data_mof_unit_65231.cif
_audit_creation_date              2012-12-10T19:39:09-0500
_audit_creation_method            fapswitch 2.2
_symmetry_space_group_name_H-M    P1
_symmetry_Int_Tables_number       1
_space_group_crystal_system       triclinic
_cell_length_a                    25.893591
_cell_length_b                    43.183487
_cell_length_c                    25.140968
_cell_angle_alpha                 90.001048
_cell_angle_beta                  120.990013
_cell_angle_gamma                 89.997583
_cell_volume                      24099.2239872

loop_
_atom_site_label
_atom_site_type_symbol
_atom_type_description
_atom_site_fract_x
_atom_site_fract_y
_atom_site_fract_z
_atom_type_partial_charge
C1    C     C_R   0.360128 0.749692 0.000446 0.831491
C2    C     C_R   0.639872 0.250308 0.999553 0.835905
C3    C     C_R   0.639870 0.749688 0.999549 0.835991
C4    C     C_R   0.360129 0.250313 0.000449 0.831655
C5    C     C_R   0.860127 0.249694 0.000443 0.831473
C6    C     C_R   0.139871 0.750310 0.999550 0.835925
C7    C     C_R   0.139869 0.249685 0.999547 0.836089
C8    C     C_R   0.860128 0.750310 0.000446 0.831564
C9    C     C_R   0.500762 0.967488 0.000645 0.130225
C10   C     C_R   0.500764 0.032512 0.000646 0.130225
C11   C     C_R   0.000785 0.467487 0.000660 0.130217
C12   C     C_R   0.000788 0.532511 0.000660 0.130221
C13   C     C_R   0.499999 0.532563 0.000003 0.107258
C14   C     C_R   0.499999 0.467437 0.000003 0.107257
C15   C     C_R   0.000001 0.032563 0.999996 0.107257
C16   C     C_R   0.000001 0.967437 0.999997 0.107259
C17   C     C_R   0.635133 0.647899 0.971479 -0.142148
C18   C     C_R   0.364494 0.352164 0.027863 -0.142019
C19   C     C_R   0.365121 0.647942 0.028946 -0.142445
C20   C     C_R   0.634544 0.352001 0.970518 -0.142467
C21   C     C_R   0.135489 0.147835 0.972100 -0.141896
C22   C     C_R   0.864851 0.852100 0.028487 -0.142268
C23   C     C_R   0.865434 0.147999 0.029439 -0.142586
C24   C     C_R   0.134856 0.852058 0.971010 -0.142321
C25   C     C_R   0.654509 0.676932 0.963773 0.263732
C26   C     C_R   0.345241 0.323135 0.035760 0.264892
C27   C     C_R   0.345670 0.676980 0.036528 0.264663
C28   C     C_R   0.654083 0.322954 0.963095 0.263516
C29   C     C_R   0.154747 0.176864 0.964212 0.263862
C30   C     C_R   0.845480 0.823067 0.036200 0.264759
C31   C     C_R   0.845902 0.177045 0.036873 0.264543
C32   C     C_R   0.154315 0.823019 0.963439 0.263632
C33   C     C_R   0.705774 0.690887 0.014073 0.071543
C34   C     C_R   0.294023 0.309094 0.985559 0.073006
C35   C     C_R   0.294368 0.690879 0.986170 0.072749
C36   C     C_R   0.705464 0.309141 0.013512 0.071383
C37   C     C_R   0.205965 0.190902 0.014418 0.071696
C38   C     C_R   0.794215 0.809109 0.985906 0.072856
C39   C     C_R   0.794522 0.190863 0.986462 0.072701
C40   C     C_R   0.205618 0.809125 0.013804 0.071436
C41   C     C_R   0.737034 0.675196 0.071071 -0.165641
C42   C     C_R   0.262683 0.324696 0.928465 -0.167919
C43   C     C_R   0.263148 0.675128 0.929239 -0.167718
C44   C     C_R   0.736680 0.324989 0.070333 -0.165639
C45   C     C_R   0.237298 0.175297 0.071510 -0.165749
C46   C     C_R   0.762948 0.824798 0.928906 -0.167806
C47   C     C_R   0.763301 0.175020 0.929636 -0.167782
C48   C     C_R   0.236831 0.824881 0.070730 -0.165570
C49   C     C_R   0.717386 0.646202 0.078162 -0.141575
C50   C     C_R   0.282206 0.353687 0.921183 -0.142586
C51   C     C_R   0.282871 0.646129 0.922270 -0.142591
C52   C     C_R   0.716871 0.353996 0.077139 -0.141628
C53   C     C_R   0.217769 0.146306 0.078783 -0.141572
C54   C     C_R   0.782590 0.853792 0.921807 -0.142583
C55   C     C_R   0.783103 0.146013 0.922819 -0.142621
C56   C     C_R   0.217101 0.853880 0.077687 -0.141596
C57   C     C_R   0.666594 0.632551 0.028401 -0.161795
C58   C     C_R   0.332953 0.367423 0.970848 -0.161338
C59   C     C_R   0.333699 0.632534 0.972089 -0.161155
C60   C     C_R   0.665957 0.367503 0.027268 -0.161640
C61   C     C_R   0.167022 0.132573 0.029113 -0.161896
C62   C     C_R   0.833383 0.867446 0.971563 -0.161233
C63   C     C_R   0.834015 0.132502 0.972684 -0.161068
C64   C     C_R   0.166272 0.867471 0.027863 -0.161720
C65   C     C_R   0.282802 0.222724 0.009979 -0.228414
C66   C     C_R   0.717267 0.777287 0.990150 -0.227488
C67   C     C_R   0.717396 0.222690 0.990394 -0.227516
C68   C     C_R   0.282659 0.777304 0.009712 -0.228303
C69   C     C_R   0.782726 0.722708 0.009834 -0.228327
C70   C     C_R   0.217192 0.277272 0.990004 -0.227561
C71   C     C_R   0.217334 0.722701 0.990271 -0.227467
C72   C     C_R   0.782597 0.277315 0.009589 -0.228342
C73   C     C_R   0.304415 0.250789 0.001251 -0.019368
C74   C     C_R   0.695580 0.749212 0.998737 -0.020607
C75   C     C_R   0.695575 0.250783 0.998730 -0.020448
C76   C     C_R   0.304418 0.749219 0.001256 -0.019208
C77   C     C_R   0.804416 0.750784 0.001253 -0.019276
C78   C     C_R   0.195580 0.249208 0.998739 -0.020696
C79   C     C_R   0.195577 0.750785 0.998734 -0.020545
C80   C     C_R   0.804420 0.249221 0.001260 -0.019111
C81   C     C_R   0.415908 0.749953 0.831661 0.812451
C82   C     C_R   0.584091 0.250048 0.168339 0.814561
C83   C     C_R   0.584091 0.749952 0.168339 0.814643
C84   C     C_R   0.415908 0.250047 0.831660 0.812562
C85   C     C_R   0.915909 0.249953 0.831661 0.812417
C86   C     C_R   0.084091 0.750048 0.168339 0.814593
C87   C     C_R   0.084091 0.249952 0.168340 0.814703
C88   C     C_R   0.915908 0.750047 0.831661 0.812501
C89   C     C_R   0.271803 0.278483 0.991895 0.041591
C90   C     C_R   0.728109 0.721503 0.007938 0.041959
C91   C     C_R   0.727969 0.278513 0.007676 0.042033
C92   C     C_R   0.271955 0.721500 0.992174 0.041653
C93   C     C_R   0.771884 0.778493 0.992048 0.041618
C94   C     C_R   0.228191 0.221512 0.008091 0.041930
C95   C     C_R   0.228038 0.778504 0.007810 0.041999
C96   C     C_R   0.772024 0.221491 0.992308 0.041688
C97   C     C_R   0.547405 0.384554 0.049022 -0.197146
C98   C     C_R   0.452601 0.615446 0.950977 -0.197261
C99   C     C_R   0.452605 0.384555 0.950972 -0.197517
C100  C     C_R   0.547399 0.615445 0.049027 -0.197448
C101  C     C_R   0.047400 0.884554 0.049023 -0.197320
C102  C     C_R   0.952596 0.115446 0.950978 -0.197090
C103  C     C_R   0.952600 0.884555 0.950973 -0.197388
C104  C     C_R   0.047395 0.115445 0.049028 -0.197577
C105  C     C_R   0.500003 0.368168 0.999997 -0.001144
C106  C     C_R   0.500001 0.631831 0.000001 -0.001096
C107  C     C_R   0.999999 0.868168 0.999999 -0.001097
C108  C     C_R   0.999997 0.131831 0.000002 -0.001141
C109  C     C_R   0.899669 0.730121 0.731067 -0.152283
C110  C     C_R   0.100323 0.269870 0.268937 -0.149834
C111  C     C_R   0.100354 0.730112 0.268935 -0.150031
C112  C     C_R   0.899653 0.269886 0.731065 -0.152485
C113  C     C_R   0.399671 0.230125 0.731064 -0.152184
C114  C     C_R   0.600325 0.769874 0.268934 -0.149933
C115  C     C_R   0.600345 0.230118 0.268936 -0.150138
C116  C     C_R   0.399636 0.769896 0.731066 -0.152385
C117  C     C_R   0.868169 0.729768 0.666304 0.110515
C118  C     C_R   0.131823 0.270220 0.333700 0.110417
C119  C     C_R   0.131855 0.729760 0.333699 0.110432
C120  C     C_R   0.868150 0.270238 0.666302 0.110528
C121  C     C_R   0.368169 0.229773 0.666301 0.110506
C122  C     C_R   0.631825 0.770226 0.333697 0.110424
C123  C     C_R   0.631845 0.229768 0.333700 0.110440
C124  C     C_R   0.368133 0.770250 0.666303 0.110522
C125  C     C_R   0.818234 0.749623 0.632986 0.056981
C126  C     C_R   0.181765 0.250370 0.367015 0.056566
C127  C     C_R   0.181765 0.749628 0.367014 0.056579
C128  C     C_R   0.818229 0.250377 0.632986 0.056972
C129  C     C_R   0.318229 0.249625 0.632985 0.056966
C130  C     C_R   0.681765 0.750374 0.367014 0.056582
C131  C     C_R   0.681764 0.249630 0.367015 0.056570
C132  C     C_R   0.318226 0.750380 0.632986 0.056977
C133  C     C_R   0.800432 0.769186 0.665147 -0.197190
C134  C     C_R   0.199572 0.230811 0.334851 -0.196791
C135  C     C_R   0.199543 0.769203 0.334851 -0.196786
C136  C     C_R   0.800444 0.230806 0.665148 -0.197178
C137  C     C_R   0.300426 0.269186 0.665148 -0.197191
C138  C     C_R   0.699570 0.730813 0.334852 -0.196788
C139  C     C_R   0.699550 0.269200 0.334851 -0.196776
C140  C     C_R   0.300454 0.730800 0.665148 -0.197185
C141  C     C_R   0.832224 0.769443 0.729807 -0.186542
C142  C     C_R   0.167780 0.230556 0.270191 -0.186071
C143  C     C_R   0.167751 0.769458 0.270191 -0.185982
C144  C     C_R   0.832237 0.230550 0.729808 -0.186464
C145  C     C_R   0.332220 0.269443 0.729808 -0.186585
C146  C     C_R   0.667778 0.730557 0.270192 -0.186027
C147  C     C_R   0.667758 0.269455 0.270191 -0.185947
C148  C     C_R   0.332248 0.730543 0.729808 -0.186496
C149  C     C_R   0.882157 0.749940 0.763325 -0.051609
C150  C     C_R   0.117841 0.250057 0.236676 -0.052714
C151  C     C_R   0.117842 0.749942 0.236675 -0.052711
C152  C     C_R   0.882156 0.250060 0.763324 -0.051616
C153  C     C_R   0.382157 0.249941 0.763324 -0.051605
C154  C     C_R   0.617842 0.750058 0.236676 -0.052718
C155  C     C_R   0.617841 0.249943 0.236676 -0.052724
C156  C     C_R   0.382155 0.750061 0.763325 -0.051601
C157  C     C_R   0.723995 0.738838 0.533150 -0.183176
C158  C     C_R   0.275987 0.261178 0.466851 -0.182812
C159  C     C_R   0.276012 0.738856 0.466853 -0.182793
C160  C     C_R   0.723993 0.261168 0.533149 -0.183163
C161  C     C_R   0.224008 0.238816 0.533149 -0.183188
C162  C     C_R   0.776005 0.761157 0.466851 -0.182798
C163  C     C_R   0.776001 0.238840 0.466851 -0.182785
C164  C     C_R   0.223980 0.761153 0.533148 -0.183171
C165  C     C_R   0.500000 0.665855 0.000001 0.806298
C166  C     C_R   0.500000 0.334145 0.999998 0.806320
C167  C     C_R   1.000000 0.165855 0.000002 0.806321
C168  C     C_R   0.999999 0.834145 0.999999 0.806297
C169  C     C_R   0.690796 0.738879 0.468468 -0.184060
C170  C     C_R   0.309184 0.261141 0.531533 -0.183983
C171  C     C_R   0.309210 0.738896 0.531535 -0.183982
C172  C     C_R   0.690795 0.261129 0.468467 -0.184075
C173  C     C_R   0.190811 0.238853 0.468467 -0.184068
C174  C     C_R   0.809204 0.761117 0.531533 -0.183975
C175  C     C_R   0.809199 0.238879 0.531533 -0.183989
C176  C     C_R   0.190782 0.761113 0.468466 -0.184067
C177  C     C_R   0.716582 0.750206 0.435118 0.097405
C178  C     C_R   0.283412 0.249792 0.564882 0.097492
C179  C     C_R   0.283411 0.750213 0.564883 0.097496
C180  C     C_R   0.716581 0.249798 0.435118 0.097396
C181  C     C_R   0.216582 0.250203 0.435118 0.097395
C182  C     C_R   0.783417 0.749789 0.564883 0.097501
C183  C     C_R   0.783413 0.250211 0.564882 0.097495
C184  C     C_R   0.216581 0.749796 0.435118 0.097400
C185  C     C_R   0.547443 0.416831 0.049002 -0.194676
C186  C     C_R   0.452559 0.583169 0.951001 -0.194777
C187  C     C_R   0.452561 0.416832 0.950999 -0.194663
C188  C     C_R   0.547441 0.583168 0.049004 -0.194597
C189  C     C_R   0.047442 0.916831 0.048999 -0.194657
C190  C     C_R   0.952557 0.083169 0.950998 -0.194797
C191  C     C_R   0.952559 0.916832 0.950997 -0.194718
C192  C     C_R   0.047439 0.083168 0.049001 -0.194543
C193  C     C_R   0.500000 0.433255 0.000002 0.121396
C194  C     C_R   0.500000 0.566745 0.000002 0.121404
C195  C     C_R   0.000001 0.933255 0.999997 0.121404
C196  C     C_R   0.000000 0.066745 0.999997 0.121398
C197  C     C_R   0.446775 0.483860 0.982500 -0.180347
C198  C     C_R   0.553224 0.516140 0.017507 -0.180339
C199  C     C_R   0.553224 0.483858 0.017507 -0.180416
C200  C     C_R   0.446775 0.516142 0.982499 -0.180427
C201  C     C_R   0.946777 0.983860 0.982494 -0.180372
C202  C     C_R   0.053226 0.016140 0.017500 -0.180314
C203  C     C_R   0.053226 0.983858 0.017500 -0.180396
C204  C     C_R   0.946777 0.016143 0.982493 -0.180448
C205  C     C_R   0.499958 0.834071 0.999970 0.809126
C206  C     C_R   0.499959 0.165929 0.999969 0.809116
C207  C     C_R   0.999960 0.334071 0.999972 0.809143
C208  C     C_R   0.999961 0.665929 0.999971 0.809147
C209  C     C_R   0.541604 0.115385 0.990408 0.068490
C210  C     C_R   0.458079 0.884677 0.009496 0.074148
C211  C     C_R   0.458075 0.115325 0.009487 0.074132
C212  C     C_R   0.541599 0.884613 0.990404 0.068479
C213  C     C_R   0.041643 0.615387 0.990459 0.068476
C214  C     C_R   0.958056 0.384678 0.009451 0.074140
C215  C     C_R   0.958068 0.615324 0.009465 0.074125
C216  C     C_R   0.041653 0.384609 0.990478 0.068464
C217  C     C_R   0.541491 0.083022 0.990667 -0.232129
C218  C     C_R   0.459042 0.917127 0.009911 -0.214463
C219  C     C_R   0.459039 0.082876 0.009904 -0.214445
C220  C     C_R   0.541485 0.916976 0.990663 -0.232121
C221  C     C_R   0.041533 0.583024 0.990718 -0.232106
C222  C     C_R   0.959023 0.417127 0.009868 -0.214452
C223  C     C_R   0.959035 0.582874 0.009882 -0.214448
C224  C     C_R   0.041541 0.416973 0.990735 -0.232099
C225  C     C_R   0.500469 0.066641 0.000457 0.066479
C226  C     C_R   0.500468 0.933359 0.000458 0.066486
C227  C     C_R   0.000489 0.566641 0.000470 0.066476
C228  C     C_R   0.000487 0.433358 0.000471 0.066465
C229  C     C_R   0.499820 0.131802 0.999871 -0.020449
C230  C     C_R   0.499820 0.868198 0.999874 -0.020455
C231  C     C_R   0.999830 0.631803 0.999880 -0.020416
C232  C     C_R   0.999830 0.368197 0.999883 -0.020409
C233  C     C_R   0.495596 0.016130 0.045906 -0.184150
C234  C     C_R   0.506058 0.983871 0.955462 -0.184693
C235  C     C_R   0.506059 0.016128 0.955463 -0.184691
C236  C     C_R   0.495595 0.983873 0.045906 -0.184144
C237  C     C_R   0.995581 0.516129 0.045897 -0.184149
C238  C     C_R   0.006122 0.483870 0.955502 -0.184690
C239  C     C_R   0.006123 0.516127 0.955502 -0.184685
C240  C     C_R   0.995579 0.483872 0.045896 -0.184145
H1    H     H_    0.584333 0.372432 0.087567 0.162354
H2    H     H_    0.415676 0.627567 0.912427 0.162350
H3    H     H_    0.415687 0.372435 0.912417 0.162334
H4    H     H_    0.584322 0.627565 0.087578 0.162321
H5    H     H_    0.084325 0.872433 0.087572 0.162330
H6    H     H_    0.915668 0.127568 0.912432 0.162375
H7    H     H_    0.915678 0.872435 0.912423 0.162343
H8    H     H_    0.084314 0.127565 0.087583 0.162312
H9    H     H_    0.776552 0.685506 0.110073 0.147272
H10   H     H_    0.223198 0.314321 0.889536 0.146141
H11   H     H_    0.223604 0.685395 0.890193 0.146138
H12   H     H_    0.776288 0.314792 0.109418 0.147303
H13   H     H_    0.276783 0.185670 0.110442 0.147272
H14   H     H_    0.723429 0.814487 0.889908 0.146135
H15   H     H_    0.723694 0.185220 0.890555 0.146153
H16   H     H_    0.276377 0.814617 0.109780 0.147277
H17   H     H_    0.741671 0.634264 0.122233 0.135587
H18   H     H_    0.257859 0.365557 0.877040 0.134834
H19   H     H_    0.258617 0.634144 0.878250 0.134773
H20   H     H_    0.741124 0.366057 0.121074 0.135565
H21   H     H_    0.242111 0.134434 0.122924 0.135622
H22   H     H_    0.758299 0.865729 0.877735 0.134796
H23   H     H_    0.758846 0.133956 0.878881 0.134767
H24   H     H_    0.241351 0.865868 0.121704 0.135565
H25   H     H_    0.307699 0.201463 0.016407 0.157754
H26   H     H_    0.692427 0.798556 0.983831 0.158975
H27   H     H_    0.692654 0.201407 0.984267 0.158785
H28   H     H_    0.307445 0.798580 0.015929 0.157510
H29   H     H_    0.807564 0.701439 0.016147 0.157625
H30   H     H_    0.192293 0.298532 0.983570 0.159092
H31   H     H_    0.192545 0.701425 0.984048 0.158886
H32   H     H_    0.807337 0.298598 0.015710 0.157404
H33   H     H_    0.937804 0.714709 0.756080 0.174373
H34   H     H_    0.062182 0.285278 0.243927 0.176000
H35   H     H_    0.062238 0.714690 0.243925 0.175951
H36   H     H_    0.937777 0.285303 0.756076 0.174320
H37   H     H_    0.437810 0.214715 0.756075 0.174393
H38   H     H_    0.562187 0.785284 0.243922 0.175980
H39   H     H_    0.562222 0.214700 0.243926 0.175925
H40   H     H_    0.437749 0.785320 0.756077 0.174342
H41   H     H_    0.761964 0.784387 0.640024 0.147440
H42   H     H_    0.238045 0.215614 0.359973 0.147437
H43   H     H_    0.237992 0.784414 0.359972 0.147448
H44   H     H_    0.761986 0.215601 0.640026 0.147458
H45   H     H_    0.261955 0.284385 0.640026 0.147436
H46   H     H_    0.738042 0.715615 0.359974 0.147441
H47   H     H_    0.738005 0.284407 0.359972 0.147461
H48   H     H_    0.262008 0.715588 0.640026 0.147447
H49   H     H_    0.817649 0.784874 0.753503 0.165772
H50   H     H_    0.182359 0.215130 0.246494 0.165840
H51   H     H_    0.182308 0.784898 0.246494 0.165858
H52   H     H_    0.817674 0.215113 0.753505 0.165797
H53   H     H_    0.317644 0.284871 0.753506 0.165764
H54   H     H_    0.682357 0.715129 0.246496 0.165849
H55   H     H_    0.682320 0.284890 0.246493 0.165876
H56   H     H_    0.317697 0.715100 0.753505 0.165780
H57   H     H_    0.703673 0.730037 0.558513 0.141583
H58   H     H_    0.296296 0.269998 0.441489 0.141900
H59   H     H_    0.296343 0.730063 0.441491 0.141907
H60   H     H_    0.703673 0.269973 0.558512 0.141591
H61   H     H_    0.203699 0.229997 0.558512 0.141580
H62   H     H_    0.796327 0.769959 0.441488 0.141901
H63   H     H_    0.796321 0.230035 0.441488 0.141911
H64   H     H_    0.203649 0.769946 0.558510 0.141589
H65   H     H_    0.645189 0.729962 0.444396 0.139547
H66   H     H_    0.354778 0.270074 0.555607 0.139561
H67   H     H_    0.354824 0.729989 0.555609 0.139536
H68   H     H_    0.645190 0.270049 0.444394 0.139538
H69   H     H_    0.145217 0.229919 0.444394 0.139569
H70   H     H_    0.854811 0.770033 0.555605 0.139538
H71   H     H_    0.854804 0.229959 0.555606 0.139527
H72   H     H_    0.145168 0.770021 0.444392 0.139545
H73   H     H_    0.584191 0.428954 0.087700 0.131855
H74   H     H_    0.415811 0.571046 0.912303 0.131685
H75   H     H_    0.415814 0.428957 0.912301 0.131615
H76   H     H_    0.584188 0.571044 0.087702 0.131790
H77   H     H_    0.084190 0.928954 0.087696 0.131814
H78   H     H_    0.915810 0.071046 0.912299 0.131725
H79   H     H_    0.915811 0.928956 0.912299 0.131661
H80   H     H_    0.084186 0.071043 0.087699 0.131744
H81   H     H_    0.574357 0.070692 0.984276 0.138294
H82   H     H_    0.426529 0.929785 0.016342 0.133583
H83   H     H_    0.426525 0.070219 0.016331 0.133595
H84   H     H_    0.574348 0.929304 0.984265 0.138302
H85   H     H_    0.074421 0.570696 0.984358 0.138306
H86   H     H_    0.926487 0.429787 0.016259 0.133579
H87   H     H_    0.926506 0.570217 0.016284 0.133584
H88   H     H_    0.074435 0.429300 0.984385 0.138323
H89   H     H_    0.405358 0.471724 0.969701 0.127785
H90   H     H_    0.594640 0.528275 0.030304 0.127893
H91   H     H_    0.594640 0.471720 0.030304 0.127863
H92   H     H_    0.405358 0.528280 0.969701 0.127753
H93   H     H_    0.905360 0.971725 0.969697 0.127760
H94   H     H_    0.094642 0.028276 0.030298 0.127918
H95   H     H_    0.094642 0.971720 0.030298 0.127887
H96   H     H_    0.905360 0.028280 0.969696 0.127730
H97   H     H_    0.492343 0.028284 0.081754 0.135482
H98   H     H_    0.509250 0.971719 0.919576 0.133215
H99   H     H_    0.509253 0.028279 0.919577 0.133217
H100  H     H_    0.492341 0.971720 0.081754 0.135480
H101  H     H_    0.992298 0.528283 0.081727 0.135480
H102  H     H_    0.009346 0.471717 0.919635 0.133222
H103  H     H_    0.009346 0.528278 0.919634 0.133218
H104  H     H_    0.992294 0.471718 0.081725 0.135485
H105  H     H_    0.651774 0.609974 0.033854 0.144550
H106  H     H_    0.347675 0.389997 0.965247 0.144209
H107  H     H_    0.348578 0.609953 0.966733 0.144472
H108  H     H_    0.651008 0.390089 0.032498 0.144768
H109  H     H_    0.152296 0.109999 0.034707 0.144401
H110  H     H_    0.848199 0.890022 0.966105 0.144359
H111  H     H_    0.848959 0.109916 0.967446 0.144576
H112  H     H_    0.151387 0.890051 0.033210 0.144665
H113  H     H_    0.595904 0.637060 0.933130 0.159246
H114  H     H_    0.403687 0.363068 0.066135 0.159169
H115  H     H_    0.404376 0.637145 0.067340 0.159148
H116  H     H_    0.595227 0.362731 0.932079 0.159202
H117  H     H_    0.096296 0.136933 0.933823 0.159265
H118  H     H_    0.904080 0.862940 0.066832 0.159151
H119  H     H_    0.904750 0.137265 0.067874 0.159109
H120  H     H_    0.095600 0.862851 0.932611 0.159242
O1    O     O_3   0.500000 0.749970 0.000000 -0.486903
O2    O     O_3   0.500000 0.250030 0.000000 -0.486898
O3    O     O_3   0.000000 0.249970 0.000000 -0.486899
O4    O     O_3   0.000000 0.750030 0.000000 -0.486903
O5    O     O_R   0.402360 0.768140 0.036330 -0.627966
O6    O     O_R   0.597640 0.231860 0.963670 -0.626602
O7    O     O_R   0.597640 0.768140 0.963670 -0.626842
O8    O     O_R   0.402360 0.231860 0.036330 -0.628199
O9    O     O_R   0.902360 0.268140 0.036330 -0.627817
O10   O     O_R   0.097640 0.731860 0.963670 -0.626745
O11   O     O_R   0.097640 0.268140 0.963670 -0.626978
O12   O     O_R   0.902360 0.731860 0.036330 -0.628057
O13   O     O_R   0.400350 0.731780 0.861400 -0.646162
O14   O     O_R   0.599650 0.268220 0.138600 -0.646175
O15   O     O_R   0.599650 0.731780 0.138600 -0.646214
O16   O     O_R   0.400350 0.268220 0.861400 -0.646193
O17   O     O_R   0.900350 0.231780 0.861400 -0.646136
O18   O     O_R   0.099650 0.768220 0.138600 -0.646200
O19   O     O_R   0.099650 0.231780 0.138600 -0.646233
O20   O     O_R   0.900350 0.768220 0.861400 -0.646175
O21   O     O_R   0.451490 0.680670 0.963650 -0.636030
O22   O     O_R   0.548510 0.319330 0.036350 -0.636316
O23   O     O_R   0.548510 0.680670 0.036350 -0.636324
O24   O     O_R   0.451490 0.319330 0.963650 -0.636027
O25   O     O_R   0.951490 0.180670 0.963650 -0.636027
O26   O     O_R   0.048510 0.819330 0.036350 -0.636319
O27   O     O_R   0.048510 0.180670 0.036350 -0.636317
O28   O     O_R   0.951490 0.819330 0.963650 -0.636036
O29   O     O_R   0.487790 0.819270 0.036340 -0.629135
O30   O     O_R   0.512210 0.180730 0.963660 -0.629516
O31   O     O_R   0.512210 0.819270 0.963660 -0.629503
O32   O     O_R   0.487790 0.180730 0.036340 -0.629134
O33   O     O_R   0.987790 0.319270 0.036340 -0.629145
O34   O     O_R   0.012210 0.680730 0.963660 -0.629524
O35   O     O_R   0.012210 0.319270 0.963660 -0.629524
O36   O     O_R   0.987790 0.680730 0.036340 -0.629130
O37   O     O_R   0.461070 0.768120 0.861410 -0.639602
O38   O     O_R   0.538930 0.231880 0.138590 -0.636669
O39   O     O_R   0.538930 0.768120 0.138590 -0.636567
O40   O     O_R   0.461070 0.231880 0.861410 -0.639488
O41   O     O_R   0.961070 0.268120 0.861410 -0.639668
O42   O     O_R   0.038930 0.731880 0.138590 -0.636609
O43   O     O_R   0.038930 0.268120 0.138590 -0.636498
O44   O     O_R   0.961070 0.731880 0.861410 -0.639562
O45   O     O_R   0.366040 0.731790 0.963660 -0.642163
O46   O     O_R   0.633960 0.268210 0.036340 -0.641896
O47   O     O_R   0.633960 0.731790 0.036340 -0.641862
O48   O     O_R   0.366040 0.268210 0.963660 -0.642135
O49   O     O_R   0.866040 0.231790 0.963660 -0.642190
O50   O     O_R   0.133960 0.768210 0.036340 -0.641872
O51   O     O_R   0.133960 0.231790 0.036340 -0.641845
O52   O     O_R   0.866040 0.768210 0.963660 -0.642154
Zn1   Zn    Zn3+2 0.517420 0.775920 0.948090 0.995089
Zn2   Zn    Zn3+2 0.482580 0.224080 0.051910 0.997962
Zn3   Zn    Zn3+2 0.482580 0.775920 0.051910 0.998094
Zn4   Zn    Zn3+2 0.517420 0.224080 0.948090 0.995231
Zn5   Zn    Zn3+2 0.017420 0.275920 0.948090 0.995015
Zn6   Zn    Zn3+2 0.982580 0.724080 0.051910 0.998045
Zn7   Zn    Zn3+2 0.982580 0.275920 0.051910 0.998187
Zn8   Zn    Zn3+2 0.017420 0.724080 0.948090 0.995148
Zn9   Zn    Zn3+2 0.430670 0.724000 0.948080 0.994149
Zn10  Zn    Zn3+2 0.569330 0.276000 0.051920 0.996768
Zn11  Zn    Zn3+2 0.569330 0.724000 0.051920 0.996761
Zn12  Zn    Zn3+2 0.430670 0.276000 0.948080 0.994201
Zn13  Zn    Zn3+2 0.930670 0.224000 0.948080 0.994168
Zn14  Zn    Zn3+2 0.069330 0.776000 0.051920 0.996748
Zn15  Zn    Zn3+2 0.069330 0.224000 0.051920 0.996798
Zn16  Zn    Zn3+2 0.930670 0.776000 0.948080 0.994164
N1    N     N_3   0.886646 0.708433 0.635610 -0.466129
H121  H     H_    0.849700 0.694680 0.605656 0.193282
H122  H     H_    0.900092 0.720971 0.609266 0.188028
N2    N     N_3   0.113338 0.291548 0.364399 -0.464611
H123  H     H_    0.099909 0.279002 0.390751 0.187977
H124  H     H_    0.150277 0.305306 0.394349 0.193817
N3    N     N_3   0.113406 0.708413 0.364396 -0.464655
H125  H     H_    0.150368 0.694666 0.394346 0.193837
H126  H     H_    0.099952 0.720942 0.390746 0.187936
N4    N     N_3   0.886612 0.291579 0.635605 -0.466168
H127  H     H_    0.900053 0.279045 0.609251 0.188005
H128  H     H_    0.849658 0.305331 0.605658 0.193292
N5    N     N_3   0.386649 0.208443 0.635603 -0.466105
H129  H     H_    0.349709 0.194684 0.605657 0.193264
H130  H     H_    0.400076 0.220986 0.609246 0.188060
N6    N     N_3   0.613344 0.791559 0.364392 -0.464638
H131  H     H_    0.599900 0.779018 0.390735 0.187945
H132  H     H_    0.650287 0.805313 0.394347 0.193832
N7    N     N_3   0.613384 0.208427 0.364398 -0.464676
H133  H     H_    0.650339 0.194676 0.394347 0.193842
H134  H     H_    0.599942 0.220963 0.390751 0.187923
N8    N     N_3   0.386577 0.791601 0.635607 -0.466150
H135  H     H_    0.400030 0.779075 0.609253 0.188019
H136  H     H_    0.349612 0.805347 0.605660 0.193285
N9    N     N_3   0.585444 0.131506 0.982263 -0.437346
H137  H     H_    0.628281 0.124469 0.017361 0.181647
H138  H     H_    0.580037 0.124734 0.939751 0.189426
N10   N     N_3   0.413947 0.868420 0.017324 -0.424458
H139  H     H_    0.383486 0.858183 0.974766 0.172258
H140  H     H_    0.389126 0.883861 0.027535 0.179608
N11   N     N_3   0.413939 0.131585 0.017307 -0.424465
H141  H     H_    0.383485 0.141826 0.974750 0.172307
H142  H     H_    0.389110 0.116144 0.027508 0.179637
N12   N     N_3   0.585432 0.868490 0.982247 -0.437315
H143  H     H_    0.628271 0.875527 0.017336 0.181703
H144  H     H_    0.580013 0.875260 0.939729 0.189427
N13   N     N_3   0.085511 0.631511 0.982363 -0.437377
H145  H     H_    0.128337 0.624477 0.017492 0.181689
H146  H     H_    0.080149 0.624737 0.939871 0.189435
N14   N     N_3   0.913892 0.368421 0.017227 -0.424496
H147  H     H_    0.883468 0.358176 0.974665 0.172203
H148  H     H_    0.889035 0.383865 0.027387 0.179599
N15   N     N_3   0.913914 0.631582 0.017259 -0.424489
H149  H     H_    0.883469 0.641820 0.974695 0.172270
H150  H     H_    0.889081 0.616142 0.027453 0.179631
N16   N     N_3   0.085532 0.368484 0.982401 -0.437374
H151  H     H_    0.128353 0.375516 0.017538 0.181746
H152  H     H_    0.080183 0.375256 0.939914 0.189435
Br1   Br    Br    0.611139 0.695977 0.883427 -0.560080
Br2   Br    Br    0.388713 0.304214 0.116221 -0.557991
Br3   Br    Br    0.388992 0.696110 0.116794 -0.557795
Br4   Br    Br    0.610775 0.303703 0.882948 -0.559933
Br5   Br    Br    0.111284 0.195789 0.883755 -0.560193
Br6   Br    Br    0.888860 0.804025 0.116549 -0.557877
Br7   Br    Br    0.889217 0.196291 0.117026 -0.557733
Br8   Br    Br    0.111001 0.803884 0.883179 -0.559995

loop_
_geom_bond_atom_site_label_1
_geom_bond_atom_site_label_2
_ccdc_geom_bond_type
C101  C107  A    
O17   Zn13  S    
N11   H141  S    
C21   C29   A    
C13   C200  A    
C212  N12   S    
C219  H83   S    
C166  O24   A    
C34   C42   A    
C84   O16   A    
C110  C118  A    
C99   C187  A    
C101  C189  A    
C190  H78   S    
C83   C154  S    
C97   C185  A    
C58   H106  S    
C10   C235  A    
C81   C156  S    
C170  C178  A    
O25   Zn13  S    
C100  C188  A    
C237  H101  S    
N12   H144  S    
C70   H30   S    
C239  H103  S    
C83   O15   A    
C54   H22   S    
C234  H98   S    
C30   C38   A    
C40   C48   A    
C3    C74   S    
C2    O6    A    
C162  C177  A    
C214  C222  A    
C157  C169  A    
C110  H34   S    
C18   C58   A    
O13   Zn9   S    
C11   C228  S    
C102  H6    S    
C9    C226  S    
C161  H61   S    
C97   C105  A    
C143  C151  A    
C214  C232  A    
C187  C193  A    
C87   O19   A    
C99   C105  A    
C224  C228  A    
C41   C49   A    
C68   C95   A    
C115  C123  A    
C202  C203  A    
O35   Zn5   S    
C113  H37   S    
C112  C120  A    
C72   C91   A    
C12   C227  S    
C20   C28   A    
C27   C35   A    
O2    Zn2   S    
O4    Zn6   S    
C103  H7    S    
O1    Zn11  S    
O29   Zn3   S    
O2    Zn12  S    
C216  C224  A    
C130  C177  S    
C146  C154  A    
C109  C149  A    
C82   O38   A    
C217  H81   S    
C172  H68   S    
C160  C172  A    
C173  H69   S    
C164  C179  A    
C87   O43   A    
C15   C196  S    
C36   C91   S    
C169  H65   S    
N2    H123  S    
C166  O22   A    
C13   C194  S    
C36   C44   A    
C157  C182  A    
C40   C95   S    
C37   C45   A    
C130  C138  A    
C63   H111  S    
C39   C47   A    
C129  C178  S    
O12   Zn6   S    
C176  C184  A    
C10   C233  A    
C125  C182  S    
C32   Br8   S    
C110  C150  A    
C207  O35   A    
C25   Br1   S    
C50   H18   S    
C14   C199  A    
C221  C227  A    
C100  C106  A    
C98   C106  A    
C17   C25   A    
C74   C90   A    
O7    Zn1   S    
C209  C217  A    
C16   C195  S    
N16   H151  S    
O26   Zn14  S    
C236  H100  S    
C136  H44   S    
C116  C156  A    
C25   C33   A    
C118  N2    S    
C23   C31   A    
C43   H11   S    
C129  C137  A    
C126  C134  A    
C136  C144  A    
C103  C107  A    
C157  H57   S    
C218  C226  A    
C2    C75   S    
N3    H126  S    
C104  C192  A    
N8    H136  S    
C186  H74   S    
C88   C149  S    
C69   C77   A    
C20   H116  S    
C163  C175  A    
C174  C182  A    
C71   C79   A    
C146  H54   S    
O3    Zn15  S    
N1    H121  S    
N11   H142  S    
C6    O50   A    
O8    Zn2   S    
O2    Zn10  S    
C78   C94   A    
C164  H64   S    
N15   H150  S    
C223  C227  A    
C123  N7    S    
C141  H49   S    
C52   H20   S    
C49   C57   A    
C105  C166  S    
O50   Zn14  S    
C111  C119  A    
C201  H93   S    
C52   C60   A    
C49   H17   S    
C71   C92   A    
C148  C156  A    
N10   H139  S    
O18   Zn14  S    
C55   C63   A    
C56   C64   A    
O40   Zn4   S    
C167  O25   A    
C3    O47   A    
C100  H4    S    
C75   C91   A    
C44   C52   A    
C135  C143  A    
C45   C53   A    
C206  C229  S    
C209  N9    S    
C127  C184  S    
C171  C179  A    
C128  C183  S    
C159  H59   S    
O38   Zn2   S    
C169  C177  A    
C207  O33   A    
C51   C59   A    
C8    O52   A    
C14   C197  A    
C98   H2    S    
O43   Zn7   S    
C116  H40   S    
C7    O51   A    
C168  O26   A    
C158  C170  A    
C18   H114  S    
C19   C59   A    
C11   C240  A    
C97   H1    S    
O14   Zn10  S    
N6    H131  S    
C197  H89   S    
C162  H62   S    
C31   Br7   S    
C65   H25   S    
O20   Zn16  S    
C29   Br5   S    
C218  H82   S    
C220  C226  A    
C187  H75   S    
C28   C36   A    
C4    C73   S    
C167  O27   A    
C42   C50   A    
C66   C93   A    
C82   C155  S    
N10   H140  S    
C8    C77   S    
C70   C89   A    
C67   C75   A    
C147  C155  A    
O3    Zn13  S    
C7    O11   A    
C224  H88   S    
C205  O31   A    
C1    C76   S    
C206  O32   A    
C186  C194  A    
C220  H84   S    
C131  C180  S    
C85   O17   A    
C68   C76   A    
C211  C219  A    
C141  C149  A    
C21   H117  S    
C174  H70   S    
C81   O37   A    
C4    O8    A    
C34   C89   S    
C72   C80   A    
C119  N3    S    
C138  C146  A    
O47   Zn11  S    
C38   C93   S    
N2    H124  S    
N13   H146  S    
C114  C154  A    
C240  H104  S    
C158  C181  A    
C191  C195  A    
C38   C46   A    
C131  C139  A    
O51   Zn15  S    
C235  H99   S    
N14   H147  S    
O23   Zn11  S    
C237  C240  A    
O24   Zn12  S    
C19   H115  S    
C126  C181  S    
O34   Zn8   S    
C24   H120  S    
C117  C125  A    
C204  H96   S    
C217  C225  A    
C222  H86   S    
C119  C127  A    
C142  H50   S    
O30   Zn4   S    
O31   Zn1   S    
O4    Zn14  S    
C18   C26   A    
C101  H5    S    
C168  O28   A    
C109  C117  A    
C59   H107  S    
C144  H52   S    
C11   C238  A    
O27   Zn15  S    
C134  H42   S    
C159  C171  A    
C192  C196  A    
C137  C145  A    
C238  H102  S    
C127  C135  A    
C128  C136  A    
C207  C232  S    
N5    H130  S    
C213  C231  A    
O46   Zn10  S    
C233  H97   S    
C48   C56   A    
C117  N1    S    
N9    H138  S    
N4    H127  S    
C158  H58   S    
C213  C221  A    
C104  H8    S    
C87   C150  S    
C67   H27   S    
C10   C225  S    
C112  C152  A    
C210  N10   S    
C159  C184  A    
C20   C60   A    
C22   C30   A    
C160  C183  A    
C21   C61   A    
C22   H118  S    
C200  H92   S    
O32   Zn2   S    
C35   C92   S    
C172  C180  A    
C23   C63   A    
C173  C181  A    
C24   C64   A    
C206  O30   A    
C5    O49   A    
C8    O12   A    
C121  N5    S    
N7    H133  S    
C50   C58   A    
C106  C165  S    
C135  H43   S    
C223  H87   S    
C238  C239  A    
C113  C153  A    
O33   Zn7   S    
N12   H143  S    
O6    Zn4   S    
C54   C62   A    
C120  N4    S    
C111  C151  A    
C213  N13   S    
C2    O46   A    
C197  C200  A    
C221  H85   S    
N15   H149  S    
C79   C95   A    
O9    Zn7   S    
C161  C173  A    
C84   C153  S    
C189  C195  A    
O10   Zn8   S    
C31   C39   A    
C222  C228  A    
C139  C147  A    
C46   C54   A    
C210  C230  A    
C139  H47   S    
C71   H31   S    
C140  H48   S    
O39   Zn3   S    
C205  O29   A    
C208  O34   A    
O37   Zn1   S    
C12   C237  A    
C14   C193  S    
C85   O41   A    
C165  O21   A    
O4    Zn16  S    
C55   H23   S    
C234  C235  A    
C84   O40   A    
C16   C201  A    
C81   O13   A    
C104  C108  A    
O16   Zn12  S    
O15   Zn11  S    
C115  H39   S    
C51   H19   S    
C107  C168  S    
C211  C229  A    
C123  C131  A    
C9    C234  A    
C185  H73   S    
C23   H119  S    
C112  H36   S    
C121  C129  A    
C26   Br2   S    
C120  C128  A    
C132  C140  A    
C212  C220  A    
C133  C141  A    
C33   C41   A    
C142  C150  A    
C62   H110  S    
C85   C152  S    
C73   C89   A    
N7    H134  S    
C98   C186  A    
C86   C151  S    
C189  H77   S    
C43   C51   A    
C6    C79   S    
C147  H55   S    
O22   Zn10  S    
C77   C93   A    
C102  C190  A    
C138  H46   S    
C164  C176  A    
C60   H108  S    
C99   H3    S    
C68   H28   S    
C208  C231  S    
C69   H29   S    
C42   H10   S    
C144  C152  A    
C29   C37   A    
C185  C193  A    
O28   Zn16  S    
C161  C178  A    
C46   H14   S    
C109  H33   S    
C17   C57   A    
C66   C74   A    
C1    O5    A    
O11   Zn5   S    
C70   C78   A    
O3    Zn7   S    
C122  N6    S    
C28   Br4   S    
C140  C148  A    
C24   C32   A    
C15   C204  A    
C88   O44   A    
C53   H21   S    
C199  H91   S    
O42   Zn6   S    
C171  H67   S    
O41   Zn5   S    
C215  C231  A    
C211  N11   S    
C56   H24   S    
C170  H66   S    
C47   H15   S    
O2    Zn4   S    
C134  C142  A    
C82   O14   A    
O36   Zn6   S    
C65   C73   A    
N6    H132  S    
C202  H94   S    
C5    O9    A    
C208  O36   A    
N16   H152  S    
C44   H12   S    
C12   C239  A    
C116  C124  A    
O3    Zn5   S    
C214  N14   S    
C165  O23   A    
C102  C108  A    
C198  C199  A    
C111  H35   S    
C48   H16   S    
C16   C203  A    
C19   C27   A    
C216  N16   S    
C66   H26   S    
C190  C196  A    
C176  H72   S    
C163  H63   S    
N8    H135  S    
C188  C194  A    
C9    C236  A    
C83   O39   A    
C205  C230  S    
C53   C61   A    
O48   Zn12  S    
C124  C132  A    
C26   C34   A    
N1    H122  S    
C148  H56   S    
O1    Zn1   S    
C13   C198  A    
O44   Zn8   S    
O45   Zn9   S    
C124  N8    S    
C17   H113  S    
O52   Zn16  S    
C198  H90   S    
O21   Zn9   S    
C188  H76   S    
C22   C62   A    
C212  C230  A    
C233  C236  A    
C30   Br6   S    
C137  H45   S    
C88   O20   A    
N13   H145  S    
C113  C121  A    
C209  C229  A    
C219  C225  A    
C5    C80   S    
C64   H112  S    
C57   H105  S    
C76   C92   A    
C7    C78   S    
C143  H51   S    
C65   C94   A    
C108  C167  S    
N14   H148  S    
C67   C96   A    
C201  C204  A    
C61   H109  S    
C80   C96   A    
O49   Zn13  S    
C69   C90   A    
O5    Zn3   S    
C15   C202  A    
C35   C43   A    
C47   C55   A    
C125  C133  A    
C191  H79   S    
C215  N15   S    
C6    O10   A    
C115  C155  A    
C175  C183  A    
C3    O7    A    
C215  C223  A    
C86   O18   A    
C1    O45   A    
C162  C174  A    
C103  C191  A    
C203  H95   S    
C210  C218  A    
C160  H60   S    
C145  C153  A    
C27   Br3   S    
C145  H53   S    
C33   C90   S    
N5    H129  S    
O1    Zn3   S    
C133  H41   S    
C86   O42   A    
C192  H80   S    
O1    Zn9   S    
C37   C94   S    
C32   C40   A    
N9    H137  S    
C4    O48   A    
N4    H128  S    
C39   C96   S    
C114  H38   S    
C132  C179  S    
N3    H125  S    
C114  C122  A    
O4    Zn8   S    
C175  H71   S    
C41   H9    S    
C163  C180  A    
C72   H32   S    
C216  C232  A    
C118  C126  A    
C122  C130  A    
O19   Zn15  S    
C45   H13   S    
