data_mof_unit_39893.cif
_audit_creation_date              2012-12-10T18:25:28-0500
_audit_creation_method            fapswitch 2.2
_symmetry_space_group_name_H-M    P1
_symmetry_Int_Tables_number       1
_space_group_crystal_system       triclinic
_cell_length_a                    14.991243
_cell_length_b                    13.991769
_cell_length_c                    18.645454
_cell_angle_alpha                 89.516048
_cell_angle_beta                  89.869903
_cell_angle_gamma                 89.834882
_cell_volume                      3910.793109

loop_
_atom_site_label
_atom_site_type_symbol
_atom_type_description
_atom_site_fract_x
_atom_site_fract_y
_atom_site_fract_z
_atom_type_partial_charge
C1    C     C_R   0.326469 0.500106 0.500424 0.899111
C2    C     C_R   0.092921 0.415927 0.520554 0.119021
C3    C     C_R   0.953951 0.332173 0.538255 -0.216540
C4    C     C_R   0.045840 0.668987 0.467217 -0.211933
C5    C     C_R   0.046650 0.332279 0.538493 -0.218696
C6    C     C_R   0.953192 0.668817 0.466836 -0.228058
C7    C     C_R   0.555948 0.798059 0.454855 -0.001375
C8    C     C_R   0.442580 0.201767 0.543790 0.004496
C9    C     C_R   0.442936 0.797585 0.544076 0.003690
C10   C     C_R   0.556200 0.202546 0.455082 0.000687
C11   C     C_R   0.440765 0.898382 0.544738 -0.118489
C12   C     C_R   0.673506 0.499897 0.500035 0.888218
C13   C     C_R   0.555557 0.101710 0.451690 -0.134506
C14   C     C_R   0.554818 0.898944 0.451011 -0.129538
C15   C     C_R   0.439818 0.100961 0.543975 -0.118048
C16   C     C_R   0.497353 0.949390 0.497489 -0.058697
C17   C     C_R   0.497337 0.050611 0.497497 -0.060613
C18   C     C_R   0.383863 0.948868 0.591622 0.405184
C19   C     C_R   0.611314 0.051273 0.403632 0.431027
C20   C     C_R   0.609922 0.950259 0.402479 0.433371
C21   C     C_R   0.380911 0.049815 0.589226 0.416460
C22   C     C_R   0.502958 0.500461 0.364484 0.919840
C23   C     C_R   0.815032 0.416062 0.519089 -0.253988
C24   C     C_R   0.502306 0.499634 0.635477 0.918221
C25   C     C_R   0.582853 0.574505 0.263266 -0.291929
C26   C     C_R   0.588659 0.433058 0.735817 -0.274888
C27   C     C_R   0.494620 0.571388 0.755822 -0.292584
C28   C     C_R   0.503358 0.426421 0.244382 -0.303997
C29   C     C_R   0.618446 0.570343 0.194435 0.470657
C30   C     C_R   0.624251 0.441145 0.804344 0.472101
C31   C     C_R   0.522768 0.574836 0.826898 0.479474
C32   C     C_R   0.531290 0.425878 0.173039 0.472815
C33   C     C_R   0.591295 0.496954 0.147971 -0.162888
C34   C     C_R   0.184726 0.584599 0.484715 -0.253007
C35   C     C_R   0.589795 0.510752 0.851294 -0.167760
C36   C     C_R   0.526987 0.501848 0.288885 -0.173338
C37   C     C_R   0.525544 0.499167 0.710987 -0.173349
C38   C     C_R   0.614818 0.508916 0.927187 0.282192
C39   C     C_R   0.615619 0.501381 0.071871 0.280361
C40   C     C_R   0.814780 0.583957 0.483252 -0.253200
C41   C     C_R   0.185204 0.416401 0.519731 -0.257794
C42   C     C_R   0.769252 0.499854 0.500653 -0.077834
C43   C     C_R   0.230659 0.500351 0.501613 -0.077463
C44   C     C_3   0.765618 0.608594 0.179407 0.093618
C45   C     C_R   0.907300 0.415687 0.520031 0.111366
C46   C     C_3   0.801480 0.628788 0.254832 -0.380300
C47   C     C_3   0.900451 0.604224 0.260536 -0.921387
C48   C     C_3   0.774903 0.422065 0.818248 0.100603
C49   C     C_3   0.812167 0.409264 0.742113 -0.381454
C50   C     C_3   0.907569 0.446289 0.736120 -0.921891
C51   C     C_3   0.414095 0.600583 0.911288 0.104100
C52   C     C_3   0.324647 0.620924 0.874598 -0.365334
C53   C     C_3   0.246841 0.583928 0.919734 -0.951498
C54   C     C_3   0.426165 0.389625 0.088458 0.108960
C55   C     C_3   0.338241 0.363513 0.125620 -0.366720
C56   C     C_R   0.092483 0.585295 0.484933 0.118111
C57   C     C_3   0.258249 0.393806 0.080255 -0.954191
C58   C     C_3   0.369859 0.888634 0.704257 -0.259752
C59   C     C_3   0.632096 0.135081 0.298828 -0.285810
C60   C     C_3   0.619318 0.874895 0.295025 -0.295835
C61   C     C_3   0.241171 0.110054 0.599877 -0.293735
C62   C     C_R   0.953524 0.500440 0.502421 0.061049
C63   C     C_R   0.046306 0.500592 0.502767 0.059102
C64   C     C_R   0.906969 0.584947 0.484139 0.116912
H1    H     H_    0.603004 0.632264 0.297980 0.167826
H2    H     H_    0.080972 0.734229 0.453464 0.154163
H3    H     H_    0.082104 0.267117 0.552389 0.140092
H4    H     H_    0.917729 0.733894 0.452720 0.165046
H5    H     H_    0.601135 0.756927 0.421895 0.154868
H6    H     H_    0.399180 0.242501 0.578579 0.169851
H7    H     H_    0.399551 0.756327 0.578871 0.168153
H8    H     H_    0.600706 0.244086 0.421471 0.169601
H9    H     H_    0.806766 0.648694 0.139779 0.177346
H10   H     H_    0.773842 0.531335 0.166277 0.123745
H11   H     H_    0.791689 0.705604 0.267478 0.244126
H12   H     H_    0.614552 0.378368 0.700515 0.177959
H13   H     H_    0.764579 0.585371 0.295181 0.215864
H14   H     H_    0.911525 0.527299 0.249124 0.264840
H15   H     H_    0.924189 0.619012 0.315660 0.276433
H16   H     H_    0.939810 0.648229 0.222094 0.262942
H17   H     H_    0.820843 0.386272 0.856731 0.176544
H18   H     H_    0.774120 0.499297 0.832848 0.121809
H19   H     H_    0.811164 0.332277 0.727929 0.237365
H20   H     H_    0.770156 0.449126 0.702969 0.216079
H21   H     H_    0.909902 0.523525 0.749268 0.265421
H22   H     H_    0.932254 0.436851 0.680449 0.276520
H23   H     H_    0.446882 0.623670 0.736191 0.163967
H24   H     H_    0.952095 0.406017 0.773173 0.262718
H25   H     H_    0.413305 0.634158 0.965080 0.174323
H26   H     H_    0.422221 0.522093 0.920945 0.111219
H27   H     H_    0.316779 0.699228 0.866108 0.232860
H28   H     H_    0.322974 0.585528 0.821542 0.216297
H29   H     H_    0.252473 0.505333 0.927448 0.266163
H30   H     H_    0.183039 0.599943 0.891928 0.271601
H31   H     H_    0.245929 0.619115 0.972916 0.262564
H32   H     H_    0.428110 0.354511 0.035246 0.175889
H33   H     H_    0.428517 0.468221 0.077501 0.110167
H34   H     H_    0.460970 0.369441 0.264320 0.170043
H35   H     H_    0.335796 0.285009 0.135004 0.236297
H36   H     H_    0.333934 0.399791 0.178261 0.216132
H37   H     H_    0.258442 0.472465 0.071672 0.264794
H38   H     H_    0.195600 0.373683 0.108365 0.271920
H39   H     H_    0.260014 0.357626 0.027465 0.264818
H40   H     H_    0.382851 0.958976 0.729561 0.198878
H41   H     H_    0.433123 0.847318 0.699165 0.146564
H42   H     H_    0.325185 0.847700 0.740657 0.186033
H43   H     H_    0.559209 0.149769 0.304351 0.128500
H44   H     H_    0.643497 0.084615 0.254202 0.192232
H45   H     H_    0.778572 0.648437 0.468557 0.166218
H46   H     H_    0.664434 0.203578 0.283658 0.194517
H47   H     H_    0.581535 0.935243 0.270411 0.148435
H48   H     H_    0.572564 0.815577 0.307332 0.150264
H49   H     H_    0.667469 0.848596 0.254414 0.216505
H50   H     H_    0.209421 0.039928 0.588772 0.196534
H51   H     H_    0.248297 0.152297 0.549313 0.132232
H52   H     H_    0.195747 0.150339 0.635734 0.188408
H53   H     H_    0.221535 0.351629 0.533454 0.155816
H54   H     H_    0.778961 0.351422 0.533110 0.165344
H55   H     H_    0.220662 0.649284 0.470572 0.164977
H56   H     H_    0.918791 0.266981 0.552092 0.156637
N1    N     N_R   0.622884 0.420147 0.033177 -0.132702
N2    N     N_R   0.614064 0.590490 0.965856 -0.130757
N3    N     N_R   0.622261 0.423845 0.961997 -0.131417
N4    N     N_R   0.614221 0.586766 0.037022 -0.132907
N5    N     N_R   0.500000 0.750030 0.500000 -0.120320
N6    N     N_R   0.500000 0.249970 0.500000 -0.123753
O1    O     O_R   0.367850 0.580280 0.500020 -0.626290
O2    O     O_3   0.690405 0.377870 0.825611 -0.623671
O3    O     O_3   0.485015 0.642317 0.871644 -0.627408
O4    O     O_3   0.499806 0.354789 0.128614 -0.629688
O5    O     O_3   0.327106 0.899850 0.637407 -0.608519
O6    O     O_3   0.673226 0.099709 0.361883 -0.579871
O7    O     O_3   0.667234 0.902745 0.356554 -0.588928
O8    O     O_3   0.323870 0.098147 0.634768 -0.598125
O9    O     O_R   0.632150 0.419720 0.499980 -0.627832
O10   O     O_R   0.632150 0.580280 0.499980 -0.626690
O11   O     O_R   0.367850 0.419720 0.500020 -0.628520
O12   O     O_R   0.499990 0.580300 0.398140 -0.622740
O13   O     O_R   0.500010 0.419700 0.601860 -0.616756
O14   O     O_R   0.500010 0.580300 0.601860 -0.613949
O15   O     O_R   0.499990 0.419700 0.398140 -0.617831
O16   O     O_3   0.676570 0.641358 0.172185 -0.635954
Zn1   Zn    Zn3+2 0.500000 0.607200 0.500000 0.938431
Zn2   Zn    Zn3+2 0.500000 0.392800 0.500000 0.937407

loop_
_geom_bond_atom_site_label_1
_geom_bond_atom_site_label_2
_ccdc_geom_bond_type
C11   C18   A    
C34   C56   A    
C23   C45   A    
C53   H31   S    
C18   C21   A    
C19   C20   A    
O14   Zn1   S    
C47   H15   S    
C5    H3    S    
C23   H54   S    
C32   O4    S    
C18   O5    S    
C24   O14   A    
C57   H38   S    
C33   C39   S    
C23   C42   A    
C30   C35   A    
C49   H20   S    
C27   C37   A    
O10   Zn1   S    
O12   Zn1   S    
C51   H26   S    
C2    C41   A    
C29   C33   A    
C45   C62   A    
C34   H55   S    
C59   H46   S    
C48   H17   S    
O13   Zn2   S    
C6    C64   A    
C12   C42   S    
C50   H21   S    
C46   C47   S    
C1    C43   S    
C7    C14   A    
C16   C17   A    
C12   O9    A    
C55   H36   S    
C61   H51   S    
C26   H12   S    
C54   H33   S    
C20   O7    S    
C54   H32   S    
C38   N3    A    
C50   H24   S    
C40   C42   A    
C57   H37   S    
C4    C56   A    
C41   C43   A    
C1    O1    A    
C60   H49   S    
C47   H16   S    
C54   O4    S    
C46   H11   S    
C44   C46   S    
C61   O8    S    
C24   O13   A    
C25   C29   A    
C57   H39   S    
C30   O2    S    
C59   O6    S    
C13   C19   A    
C53   H29   S    
C51   C52   S    
C14   C20   A    
C28   C32   A    
C35   C38   S    
C25   H1    S    
C4    C6    A    
O15   Zn2   S    
C27   C31   A    
C3    C45   A    
C59   H43   S    
C39   N4    A    
C58   H42   S    
C27   H23   S    
C62   C63   A    
C60   H48   S    
C48   O2    S    
C11   C16   A    
C58   O5    S    
C6    H4    S    
C61   H52   S    
C24   C37   S    
C56   C63   A    
O1    Zn1   S    
C7    N5    A    
C44   H10   S    
C9    C11   A    
C38   N2    A    
C8    N6    A    
O9    Zn2   S    
O11   Zn2   S    
C26   C30   A    
C8    C15   A    
C55   C57   S    
C31   C35   A    
C52   H28   S    
C2    C5    A    
C58   H40   S    
N2    N4    A    
C21   O8    S    
C1    O11   A    
C52   C53   S    
C28   H34   S    
C19   O6    S    
C15   C17   A    
C54   C55   S    
C48   C49   S    
C53   H30   S    
C34   C43   A    
C9    H7    S    
C3    C5    A    
C10   C13   A    
C40   C64   A    
C7    H5    S    
C46   H13   S    
C26   C37   A    
C40   H45   S    
C22   C36   S    
C22   O12   A    
C51   O3    S    
C8    H6    S    
C59   H44   S    
C39   N1    A    
C13   C17   A    
C58   H41   S    
C32   C33   A    
C49   H19   S    
C62   C64   A    
C2    C63   A    
C31   O3    S    
C60   H47   S    
C51   H25   S    
C4    H2    S    
N5    Zn1   S    
C29   O16   S    
C22   O15   A    
N6    Zn2   S    
C48   H18   S    
C14   C16   A    
C44   H9    S    
C9    N5    A    
N1    N3    A    
C3    H56   S    
C50   H22   S    
C25   C36   A    
C15   C21   A    
C28   C36   A    
C44   O16   S    
C49   C50   S    
C12   O10   A    
C55   H35   S    
C61   H50   S    
C52   H27   S    
C47   H14   S    
C41   H53   S    
C10   N6    A    
C60   O7    S    
C10   H8    S    
