data_mof_unit_17968.cif
_audit_creation_date              2013-03-05T15:52:44-0500
_audit_creation_method            fapswitch 2.2
_symmetry_space_group_name_H-M    P1
_symmetry_Int_Tables_number       1
_space_group_crystal_system       triclinic
_cell_length_a                    9.9808
_cell_length_b                    10.729523
_cell_length_c                    12.992146
_cell_angle_alpha                 94.070102
_cell_angle_beta                  70.293504
_cell_angle_gamma                 90.227429
_cell_volume                      1306.23375577

loop_
_atom_site_label
_atom_site_type_symbol
_atom_site_description
_atom_site_fract_x
_atom_site_fract_y
_atom_site_fract_z
_atom_type_partial_charge
O1    O     O_R   0.385310 0.683220 0.500000 -0.668012
O2    O     O_R   0.614640 0.683250 0.500010 -0.551637
C1    C     C_R   0.502188 0.739340 0.492712 0.868239
O3    O     O_R   0.328400 0.499950 0.653610 -0.651035
O4    O     O_R   0.557730 0.499970 0.653620 -0.544839
C2    C     C_R   0.420283 0.497456 0.704175 0.874693
Zn1   Zn    Zn3+2 0.346880 0.499980 0.499990 0.996155
Zn2   Zn    Zn3+2 0.653120 0.500020 0.500010 1.032915
O5    O     O_R   0.385360 0.316750 0.499990 -0.581541
O6    O     O_R   0.614690 0.316780 0.500000 -0.622352
O7    O     O_R   0.442270 0.500030 0.346380 -0.544025
O8    O     O_R   0.671600 0.500050 0.346390 -0.571205
C3    C     C_R   0.495324 0.261505 0.509758 0.886294
C4    C     C_R   0.579733 0.496323 0.295391 0.918108
C5    C     C_R   0.727986 0.304720 0.030649 0.407185
C6    C     C_R   0.628821 0.467479 0.176843 -0.375739
C7    C     C_R   0.242961 0.561604 0.884270 -0.285038
C8    C     C_R   0.200521 0.572488 0.997888 -0.097699
C9    C     C_R   0.286396 0.523986 0.051396 0.566722
C10   C     C_R   0.420586 0.465640 0.988260 0.008892
C11   C     C_R   0.447080 0.433477 0.876497 -0.027855
C12   C     C_R   0.529785 0.439205 0.030952 -0.041571
C13   C     C_R   0.635798 0.345552 0.976326 -0.211294
C14   C     C_R   0.647750 0.299417 0.868576 0.355041
C15   C     C_R   0.554498 0.344533 0.820216 -0.218406
C16   C     C_R   0.543496 0.511975 0.120739 0.391149
C17   C     C_R   0.725476 0.367055 0.129673 0.248966
C18   C     C_R   0.367001 0.493427 0.823029 -0.081363
H1    H     H_    0.178990 0.606653 0.844262 0.176426
H2    H     H_    0.100431 0.619413 0.044854 0.184444
H3    H     H_    0.567924 0.309452 0.737083 0.173019
H4    H     H_    0.719477 0.888382 0.482775 0.179922
C19   C     C_R   0.257491 0.886184 0.468820 -0.130721
H5    H     H_    0.267784 0.799830 0.418458 0.188971
C20   C     C_R   0.124779 0.946803 0.504621 -0.098185
H6    H     H_    0.035799 0.903935 0.486930 0.150321
C21   C     C_R   0.106183 0.060934 0.565687 -0.028049
H7    H     H_    0.002356 0.106163 0.596823 0.212817
C22   C     C_R   0.223765 0.121040 0.579265 -0.103198
H8    H     H_    0.205857 0.210937 0.625510 0.176109
C23   C     C_R   0.361272 0.064703 0.534102 0.089186
C24   C     C_R   0.373396 0.939106 0.495388 0.088696
C25   C     C_R   0.500545 0.872881 0.486568 -0.137573
C26   C     C_R   0.620882 0.936787 0.491010 -0.168904
H9    H     H_    0.714126 0.112295 0.499448 0.197324
C27   C     C_R   0.616408 0.064570 0.504630 -0.120438
C28   C     C_R   0.488311 0.129400 0.522926 -0.137619
H10   H     H_    0.917524 0.342384 0.391878 0.225016
C29   C     C_R   0.808582 0.683975 0.645592 0.483245
C30   C     C_R   0.861911 0.768660 0.709460 -0.252920
H11   H     H_    0.793926 0.840609 0.765203 0.188198
C31   C     C_R   0.999300 0.759471 0.707586 -0.251353
H12   H     H_    0.036747 0.822630 0.760340 0.190826
C32   C     C_R   0.088464 0.668337 0.639678 -0.137107
H13   H     H_    0.190745 0.663725 0.647071 0.218974
C33   C     C_R   0.045661 0.586412 0.567964 0.029719
C34   C     C_R   0.900471 0.589183 0.569333 0.096005
N1    N     N_R   0.856860 0.501200 0.500990 -0.130803
C35   C     C_R   0.952663 0.413249 0.439936 -0.097753
C36   C     C_R   0.094557 0.410002 0.440633 0.336711
N2    N     N_R   0.142450 0.501280 0.501020 -0.161167
N3    N     N_R   0.817157 0.323559 0.184538 0.248098
O9    O     O_R   0.920944 0.392902 0.192433 -0.368251
O10   O     O_R   0.809178 0.209317 0.213310 -0.342424
O11   O     O_3   0.666092 0.693279 0.663894 -0.720388
H14   H     H_    0.620072 0.763572 0.718128 0.319333
N4    N     N_R   0.764913 0.221323 0.800589 0.193487
O12   O     O_R   0.741873 0.126262 0.741260 -0.468649
O13   O     O_R   0.894580 0.259051 0.781454 -0.391484
N5    N     N_R   0.180660 0.302216 0.383897 0.213302
O14   O     O_R   0.311196 0.313004 0.320647 -0.369093
O15   O     O_R   0.119016 0.196950 0.374656 -0.406295
O16   O     O_3   0.814367 0.199471 0.994124 -0.655057
H15   H     H_    0.758318 0.134098 0.970408 0.352065
O17   O     O_3   0.474333 0.627397 0.151414 -0.718227
H16   H     H_    0.513986 0.675997 0.201879 0.329090
O18   O     O_3   0.230209 0.526767 0.164114 -0.699712
H17   H     H_    0.274791 0.457594 0.188202 0.373315

loop_
_geom_bond_atom_site_label_1
_geom_bond_atom_site_label_2
_geom_bond_distance
_ccdc_geom_bond_type
C15   H3    1.082259 S    
C7    H1    1.083240 S    
O16   H15   0.991116 S    
C20   H6    1.082815 S    
C25   C26   1.396652 A    
C22   C23   1.416471 A    
O18   H17   0.988079 S    
Zn1   O7    1.899495 S    
C1    C25   1.441155 S    
N3    O9    1.300700 A    
C29   O11   1.363355 S    
C19   C24   1.419893 A    
C20   C21   1.388544 A    
O4    C2    1.307139 A    
O7    C4    1.306338 A    
C29   C34   1.452150 A    
C33   C34   1.443612 A    
C7    C8    1.387906 A    
C8    C9    1.394797 A    
C23   C24   1.395585 A    
C9    O18   1.378433 S    
O5    C3    1.296843 A    
Zn1   N2    2.035999 S    
N3    O10   1.301064 A    
C14   N4    1.433836 S    
Zn2   N1    2.037799 S    
C32   H13   1.058773 S    
C2    C18   1.457599 S    
C9    C10   1.432269 A    
C31   C32   1.371655 A    
C30   C31   1.367065 A    
C13   C14   1.417206 A    
N5    O14   1.294745 A    
C8    H2    1.083086 S    
C6    C17   1.408202 A    
C5    C13   1.421871 A    
C35   C36   1.419876 A    
O3    Zn1   1.941463 S    
C26   C27   1.368863 A    
C16   O17   1.385716 S    
C6    C16   1.398490 A    
C32   C33   1.404451 A    
N4    O12   1.301309 A    
C14   C15   1.391568 A    
O3    C2    1.297042 A    
C22   H8    1.081650 S    
C3    C28   1.438346 S    
C30   H11   1.083630 S    
N1    C35   1.350335 A    
H9    C27   1.083798 S    
C36   N2    1.394028 A    
N4    O13   1.301428 A    
O17   H16   0.991588 S    
C21   H7    1.080013 S    
C17   N3    1.433086 S    
C5    C17   1.399764 A    
C36   N5    1.441879 S    
Zn2   O8    1.941464 S    
C19   H5    1.080042 S    
C23   C28   1.412027 A    
C33   N2    1.360739 A    
C5    O16   1.378224 S    
C11   C18   1.406081 A    
C10   C12   1.417197 A    
O11   H14   0.992639 S    
C4    C6    1.460352 S    
C24   C25   1.423392 A    
C31   H12   1.083270 S    
H10   C35   1.081276 S    
Zn1   O5    2.004630 S    
C11   C15   1.405424 A    
C27   C28   1.397701 A    
O1    Zn1   2.001646 S    
C7    C18   1.400401 A    
O2    Zn2   2.004629 S    
O8    C4    1.298849 A    
O6    C3    1.300141 A    
O4    Zn2   1.899495 S    
O2    C1    1.310004 A    
C21   C22   1.393459 A    
C34   N1    1.416844 A    
C19   C20   1.393661 A    
C10   C11   1.402883 A    
H4    C26   1.083845 S    
Zn2   O6    2.001647 S    
C29   C30   1.408699 A    
C12   C16   1.402367 A    
C12   C13   1.426095 A    
N5    O15   1.301407 A    
O1    C1    1.288556 A    
