data_mof_unit_6557.cif
_audit_creation_date              2012-12-10T18:58:44-0500
_audit_creation_method            fapswitch 2.2
_symmetry_space_group_name_H-M    P1
_symmetry_Int_Tables_number       1
_space_group_crystal_system       triclinic
_cell_length_a                    12.955051
_cell_length_b                    10.815258
_cell_length_c                    9.57844
_cell_angle_alpha                 90.157507
_cell_angle_beta                  94.768411
_cell_angle_gamma                 92.163598
_cell_volume                      1336.43462166

loop_
_atom_site_label
_atom_site_type_symbol
_atom_type_description
_atom_site_fract_x
_atom_site_fract_y
_atom_site_fract_z
_atom_type_partial_charge
C1    C     C_R   0.497516 0.262365 0.499197 0.769303
C2    C     C_R   0.023187 0.432646 0.556228 0.038977
C3    C     C_R   0.970928 0.462245 0.425511 -0.050929
C4    C     C_R   0.862402 0.454429 0.412591 0.440579
C5    C     C_R   0.860926 0.437898 0.664439 -0.293046
C6    C     C_R   0.966031 0.415701 0.673868 -0.199676
C7    C     C_R   0.527343 0.064305 0.617936 -0.057100
C8    C     C_R   0.494190 0.128489 0.496704 -0.243175
C9    C     C_R   0.452188 0.061414 0.376520 0.467560
C10   C     C_R   0.448254 0.932406 0.379251 -0.317698
C11   C     C_R   0.481989 0.869628 0.500978 -0.153512
C12   C     C_R   0.300668 0.491293 0.475020 0.815622
C13   C     C_R   0.514704 0.936805 0.621620 0.045757
C14   C     C_3   0.461417 0.943783 0.754451 -0.462751
C15   C     C_3   0.489532 0.080646 0.761074 0.336843
C16   C     C_R   0.582973 0.550708 0.081811 0.237045
C17   C     C_R   0.423686 0.439888 0.065750 -0.057638
C18   C     C_R   0.424025 0.439434 0.917372 -0.079221
C19   C     C_R   0.585163 0.544822 0.934992 0.168914
C20   C     C_3   0.637735 0.669483 0.925620 -0.086391
C21   C     C_3   0.631376 0.681713 0.085111 0.205215
C22   C     C_R   0.492515 0.736796 0.499737 0.833925
C23   C     C_R   0.698356 0.488829 0.524321 0.795979
C24   C     C_R   0.808804 0.462390 0.534412 -0.178810
C25   C     C_R   0.187499 0.474462 0.459862 -0.115367
C26   C     C_R   0.026923 0.499585 0.311552 0.467075
C27   C     C_R   0.135145 0.512981 0.334643 -0.395679
C28   C     C_R   0.131175 0.422337 0.566749 0.144264
Cu1   Cu    Cu3+1 0.499990 0.499980 0.640670 0.924805
Cu2   Cu    Cu3+1 0.500010 0.500020 0.359330 0.952631
H1    H     H_    0.498974 0.892015 0.841696 0.202940
H2    H     H_    0.420797 0.138891 0.764074 0.099219
H3    H     H_    0.360527 0.393866 0.114113 0.146416
H4    H     H_    0.362725 0.390272 0.855547 0.137385
H5    H     H_    0.588468 0.731854 0.861307 0.184450
H6    H     H_    0.819846 0.430979 0.758005 0.176130
H7    H     H_    0.003006 0.393445 0.775563 0.154804
H8    H     H_    0.179659 0.555116 0.255692 0.179807
H9    H     H_    0.415642 0.881857 0.287323 0.177202
H10   H     H_    0.376432 0.923600 0.736841 0.150647
N1    N     N_R   0.500660 0.500930 0.148010 -0.197077
N2    N     N_R   0.500660 0.500890 0.852110 -0.194885
O1    O     O_R   0.500000 0.319640 0.618810 -0.608670
O2    O     O_R   0.500010 0.319680 0.381230 -0.540036
O3    O     O_R   0.348990 0.499960 0.599490 -0.571141
O4    O     O_R   0.349000 0.500000 0.361910 -0.601039
O5    O     O_R   0.499990 0.680320 0.618770 -0.578333
O6    O     O_R   0.500000 0.680360 0.381190 -0.583303
O7    O     O_R   0.651000 0.500000 0.638090 -0.585773
O8    O     O_R   0.651010 0.500040 0.400510 -0.552676
O9    O     O_3   0.810090 0.434782 0.281727 -0.595101
C29   C     C_3   0.771893 0.310207 0.269620 0.110102
H11   H     H_    0.703206 0.307535 0.191900 0.171348
H12   H     H_    0.743998 0.272805 0.368868 0.121458
C30   C     C_3   0.853261 0.226481 0.216567 -0.378918
H13   H     H_    0.870342 0.255569 0.109524 0.219775
H14   H     H_    0.926272 0.235045 0.285917 0.218195
C31   C     C_3   0.814977 0.091199 0.213811 -0.923550
H15   H     H_    0.807909 0.057695 0.322266 0.258381
H16   H     H_    0.871051 0.033701 0.163908 0.255527
H17   H     H_    0.738063 0.080352 0.153800 0.271314
O10   O     O_3   0.565288 0.104878 0.876021 -0.594860
C32   C     C_3   0.658898 0.164229 0.840348 0.118989
H18   H     H_    0.687423 0.226464 0.928821 0.147579
H19   H     H_    0.649211 0.224697 0.747216 0.156942
C33   C     C_3   0.741076 0.068092 0.821978 -0.369986
H20   H     H_    0.755486 0.015664 0.920629 0.225772
H21   H     H_    0.713416 0.000407 0.738778 0.226336
C34   C     C_3   0.842670 0.128922 0.782687 -0.934900
H22   H     H_    0.830939 0.173229 0.678404 0.266271
H23   H     H_    0.901726 0.057666 0.777283 0.258408
H24   H     H_    0.871981 0.199518 0.862052 0.250736
C35   C     C_3   0.747080 0.668848 0.874643 -0.833237
H25   H     H_    0.742876 0.671691 0.758910 0.253133
H26   H     H_    0.792036 0.753806 0.911437 0.227338
H27   H     H_    0.789121 0.586421 0.912521 0.234049
C36   C     C_3   0.735742 0.694964 0.174375 -0.700349
H28   H     H_    0.773810 0.786552 0.155955 0.208719
H29   H     H_    0.723695 0.689290 0.287397 0.238861
H30   H     H_    0.788636 0.622452 0.148334 0.290474
C37   C     C_3   0.560464 0.786907 0.116678 -0.803757
H31   H     H_    0.477325 0.760225 0.091442 0.219557
H32   H     H_    0.575662 0.816779 0.226704 0.260764
H33   H     H_    0.580745 0.870385 0.056180 0.232390
O11   O     O_3   0.972003 0.543147 0.191057 -0.590575
C38   C     C_3   0.023451 0.533663 0.066984 0.049516
H34   H     H_    0.965082 0.499882 0.982903 0.151378
H35   H     H_    0.084950 0.464206 0.072361 0.122992
C39   C     C_3   0.064158 0.662140 0.025043 -0.349740
H36   H     H_    0.997366 0.720561 0.993950 0.219822
H37   H     H_    0.109424 0.708168 0.115442 0.218239
C40   C     C_3   0.132860 0.654856 0.903677 -0.913916
H38   H     H_    0.200865 0.598051 0.933276 0.252103
H39   H     H_    0.161336 0.749348 0.877263 0.253844
H40   H     H_    0.088251 0.614079 0.809748 0.270586
C41   C     C_3   0.182595 0.348463 0.685178 -0.888794
H41   H     H_    0.257036 0.311335 0.658067 0.226659
H42   H     H_    0.193384 0.406257 0.781350 0.230784
H43   H     H_    0.133456 0.265312 0.706311 0.222605
O12   O     O_3   0.411935 0.119815 0.256846 -0.581532
C42   C     C_3   0.305063 0.138088 0.266940 0.055844
H44   H     H_    0.296062 0.230410 0.314904 0.151393
H45   H     H_    0.266827 0.066661 0.331626 0.117828
C43   C     C_3   0.248586 0.133538 0.120132 -0.313298
H46   H     H_    0.286906 0.199442 0.050389 0.214252
H47   H     H_    0.252700 0.039031 0.075482 0.215688
C44   C     C_3   0.135013 0.165640 0.123617 -0.967577
H48   H     H_    0.093766 0.096917 0.187078 0.264875
H49   H     H_    0.096808 0.164702 0.015414 0.256296
H50   H     H_    0.129067 0.259246 0.169465 0.253404

loop_
_geom_bond_atom_site_label_1
_geom_bond_atom_site_label_2
_ccdc_geom_bond_type
C33   H21   S    
C30   H13   S    
C32   H19   S    
C16   C21   S    
Cu1   N2    S    
C1    C8    S    
C35   H26   S    
C35   H25   S    
C22   O6    A    
C19   C20   S    
C14   H1    S    
C5    H6    S    
C43   H47   S    
C37   H31   S    
C7    C8    A    
Cu1   O7    S    
C36   H28   S    
C25   C28   A    
C26   C27   A    
C42   H44   S    
Cu1   O5    S    
Cu2   O6    S    
C18   N2    A    
C5    C6    A    
C4    C24   A    
C38   H35   S    
C23   O7    A    
C33   C34   S    
C27   H8    S    
C31   H16   S    
C41   H43   S    
C34   H23   S    
C40   H38   S    
C20   H5    S    
C1    O1    A    
C8    C9    A    
C41   H42   S    
C23   C24   S    
Cu2   N1    S    
C39   H37   S    
Cu1   Cu2   S    
C9    C10   A    
C19   N2    A    
C31   H17   S    
C7    C15   S    
C22   O5    A    
Cu2   O8    S    
C32   C33   S    
C42   H45   S    
C13   C14   S    
Cu1   O1    S    
C44   H49   S    
Cu2   O2    S    
C2    C6    A    
C17   H3    S    
C43   H46   S    
C37   H32   S    
C29   H12   S    
C36   H29   S    
C16   C19   A    
C4    O9    S    
O9    C29   S    
C15   H2    S    
C12   O4    A    
C38   H34   S    
C23   O8    A    
C31   H15   S    
O11   C38   S    
C40   H40   S    
Cu1   O3    S    
C10   H9    S    
C34   H24   S    
O10   C32   S    
C1    O2    A    
C44   H48   S    
C41   H41   S    
C40   H39   S    
C17   C18   A    
C6    H7    S    
C39   C40   S    
C18   H4    S    
C21   C37   S    
C9    O12   S    
C30   H14   S    
C44   H50   S    
C3    C4    A    
C37   H33   S    
C29   H11   S    
C36   H30   S    
Cu2   O4    S    
C3    C26   A    
C12   O3    A    
C38   C39   S    
C29   C30   S    
C25   C27   A    
C11   C22   S    
C12   C25   S    
C28   C41   S    
C2    C3    A    
C11   C13   A    
C5    C24   A    
C26   O11   S    
O12   C42   S    
C35   H27   S    
C15   O10   S    
C20   C35   S    
C33   H20   S    
C34   H22   S    
C17   N1    A    
C10   C11   A    
C14   H10   S    
C32   H18   S    
C7    C13   A    
C20   C21   S    
C30   C31   S    
C21   C36   S    
C14   C15   S    
C2    C28   A    
C42   C43   S    
C39   H36   S    
C16   N1    A    
C43   C44   S    
