data_mof_unit_7675.cif
_audit_creation_date              2012-12-10T17:02:32-0500
_audit_creation_method            fapswitch 2.2
_symmetry_space_group_name_H-M    P1
_symmetry_Int_Tables_number       1
_space_group_crystal_system       triclinic
_cell_length_a                    10.786641
_cell_length_b                    11.020814
_cell_length_c                    9.84685
_cell_angle_alpha                 111.975752
_cell_angle_beta                  97.911415
_cell_angle_gamma                 91.478031
_cell_volume                      1071.37238044

loop_
_atom_site_label
_atom_site_type_symbol
_atom_type_description
_atom_site_fract_x
_atom_site_fract_y
_atom_site_fract_z
_atom_type_partial_charge
C1    C     C_R   0.486301 0.252857 0.439025 0.706876
C2    C     C_R   0.511370 0.746846 0.561113 0.712709
C3    C     C_2   0.467205 0.111067 0.402992 0.246965
C4    C     C_2   0.522100 0.888457 0.598643 0.201620
C5    C     C_2   0.479748 0.070510 0.516573 -0.204243
C6    C     C_2   0.466488 0.932660 0.497635 -0.194304
C7    C     C_2   0.510748 0.510987 0.081611 0.001816
C8    C     C_2   0.489284 0.488973 0.918373 -0.010376
C9    C     C_R   0.263016 0.499210 0.501187 0.773161
C10   C     C_R   0.736997 0.500203 0.498627 0.783156
C11   C     C_R   0.155130 0.737112 0.655737 -0.132242
C12   C     C_R   0.845008 0.262116 0.343718 -0.111755
C13   C     C_R   0.102805 0.853606 0.728384 -0.144131
C14   C     C_R   0.897362 0.145637 0.270878 -0.087998
C15   C     C_R   0.973641 0.854471 0.724294 -0.073705
C16   C     C_R   0.026544 0.144821 0.274651 -0.121603
C17   C     C_R   0.896267 0.738862 0.647430 -0.116625
C18   C     C_R   0.103889 0.260483 0.351223 -0.141395
C19   C     C_R   0.947491 0.618683 0.574620 0.044324
C20   C     C_R   0.052631 0.380579 0.424635 0.061528
C21   C     C_R   0.078458 0.617841 0.578667 0.076485
C22   C     C_R   0.921647 0.381383 0.420823 0.062509
C23   C     C_R   0.870525 0.500393 0.496155 -0.167288
C24   C     C_R   0.129552 0.498851 0.503442 -0.163983
Cu1   Cu    Cu3+1 0.521920 0.521810 0.644910 0.990328
Cu2   Cu    Cu3+1 0.478080 0.478190 0.355090 1.011019
H1    H     H_    0.067090 0.054068 0.218740 0.187972
H2    H     H_    0.933242 0.945259 0.780204 0.208036
H3    H     H_    0.255922 0.742165 0.660463 0.137399
H4    H     H_    0.744216 0.257091 0.339125 0.155373
H5    H     H_    0.162704 0.943693 0.787238 0.150270
H6    H     H_    0.837442 0.055549 0.212013 0.181181
H7    H     H_    0.796203 0.745083 0.644799 0.172964
H8    H     H_    0.203933 0.254228 0.352899 0.145662
H9    H     H_    0.411399 0.863452 0.396236 0.222381
H10   H     H_    0.503764 0.142288 0.628816 0.221693
H11   H     H_    0.416087 0.415291 0.844718 0.155847
H12   H     H_    0.583985 0.584629 0.155246 0.167287
H13   H     H_    0.623460 0.624198 0.935316 0.218289
H14   H     H_    0.376492 0.375860 0.064694 0.217020
N1    N     N_2   0.445130 0.445420 0.137360 -0.264102
N2    N     N_2   0.554870 0.554580 0.862640 -0.269547
O1    O     O_R   0.511700 0.332340 0.577400 -0.598039
O2    O     O_R   0.488300 0.667660 0.422600 -0.587006
O3    O     O_R   0.474680 0.295500 0.332650 -0.500117
O4    O     O_R   0.525320 0.704500 0.667350 -0.543057
O5    O     O_R   0.338170 0.518410 0.622370 -0.578127
O6    O     O_R   0.661830 0.481590 0.377630 -0.571995
O7    O     O_R   0.301150 0.481570 0.377630 -0.565497
O8    O     O_R   0.698850 0.518430 0.622370 -0.554261
S1    S     S_3+6 0.616369 0.993724 0.767825 -0.011303
O9    O     O_2   0.720589 0.064508 0.732536 -0.280702
O10   O     O_2   0.537803 0.093973 0.858887 -0.297737
O11   O     O_3   0.680214 0.909611 0.867818 -0.531919
H15   H     H_    0.617154 0.904581 0.930140 0.394143
S2    S     S_3+6 0.425065 0.999351 0.215119 -0.021713
O12   O     O_2   0.519436 0.898508 0.179274 -0.317451
O13   O     O_2   0.297608 0.931379 0.196690 -0.335872
O14   O     O_3   0.419737 0.076210 0.096014 -0.482692
H16   H     H_    0.374187 0.011529 0.000965 0.372771

loop_
_geom_bond_atom_site_label_1
_geom_bond_atom_site_label_2
_ccdc_geom_bond_type
Cu1   N2    S    
C19   C23   A    
C9    C24   S    
C10   C23   S    
C11   C13   A    
C3    S2    S    
Cu1   O5    S    
C2    C4    S    
S2    O14   S    
Cu2   O6    S    
S1    O11   S    
Cu1   O1    S    
C16   H1    S    
C7    N1    D    
Cu2   O2    S    
O14   H16   S    
C6    H9    S    
C18   H8    S    
C1    O3    A    
C15   H2    S    
C17   H7    S    
C16   C18   A    
H14   N1    S    
C19   C21   A    
C7    H12   S    
C8    N2    D    
C9    O5    A    
H13   N2    S    
C18   C20   A    
C13   C15   A    
C10   O6    A    
C5    C6    S    
C14   C16   A    
Cu2   O7    S    
C8    H11   S    
C20   C22   A    
C4    S1    S    
C11   C21   A    
S1    O9    D    
C10   O8    A    
C5    H10   S    
C12   C22   A    
C7    C8    S    
C9    O7    A    
S2    O12   D    
C11   H3    S    
C4    C6    D    
S1    O10   D    
C21   C24   A    
C14   H6    S    
C1    C3    S    
C15   C17   A    
C13   H5    S    
O11   H15   S    
C17   C19   A    
C2    O4    A    
Cu2   O3    S    
C12   H4    S    
Cu1   Cu2   S    
Cu1   O8    S    
S2    O13   D    
Cu1   O4    S    
C1    O1    A    
C22   C23   A    
C2    O2    A    
C20   C24   A    
Cu2   N1    S    
C12   C14   A    
C3    C5    D    
