data_mof_unit_36049.cif
_audit_creation_date              2012-12-10T17:18:59-0500
_audit_creation_method            fapswitch 2.2
_symmetry_space_group_name_H-M    P1
_symmetry_Int_Tables_number       1
_space_group_crystal_system       triclinic
_cell_length_a                    10.165126
_cell_length_b                    10.762732
_cell_length_c                    13.963677
_cell_angle_alpha                 92.295609
_cell_angle_beta                  101.307645
_cell_angle_gamma                 95.966466
_cell_volume                      1487.05624444

loop_
_atom_site_label
_atom_site_type_symbol
_atom_type_description
_atom_site_fract_x
_atom_site_fract_y
_atom_site_fract_z
_atom_type_partial_charge
C1    C     C_R   0.055191 0.733119 0.497268 0.894411
C2    C     C_R   0.947898 0.267290 0.509242 0.909899
C3    C     C_R   0.481375 0.595663 0.109828 -0.102220
C4    C     C_R   0.527205 0.425334 0.884268 -0.096294
C5    C     C_R   0.352440 0.630969 0.080990 -0.048586
C6    C     C_R   0.656833 0.391562 0.913522 -0.047628
C7    C     C_2   0.093315 0.867453 0.507433 -0.058443
C8    C     C_2   0.922617 0.134935 0.525192 -0.074378
C9    C     C_2   0.015582 0.937524 0.548704 -0.133552
C10   C     C_2   0.030715 0.071690 0.545745 -0.128080
C11   C     C_2   0.430634 0.518594 0.499865 -0.045233
C12   C     C_2   0.569357 0.479426 0.503655 -0.069942
C13   C     C_R   0.097369 0.524817 0.684415 0.936814
C14   C     C_R   0.903111 0.478085 0.314885 0.957131
C15   C     C_R   0.155807 0.561307 0.788377 -0.320119
C16   C     C_R   0.846396 0.449083 0.209187 -0.309228
C17   C     C_R   0.148447 0.627816 0.955991 -0.224927
C18   C     C_R   0.858761 0.393245 0.040128 -0.233589
C19   C     C_R   0.080922 0.601581 0.858323 0.339506
C20   C     C_R   0.924003 0.416622 0.138515 0.417557
C21   C     C_R   0.295919 0.561365 0.818601 0.316473
C22   C     C_R   0.706576 0.451235 0.177094 0.231634
C23   C     C_R   0.347143 0.547861 0.916940 -0.019912
C24   C     C_R   0.657962 0.468483 0.078632 -0.016820
C25   C     C_R   0.281110 0.600155 0.985745 0.085058
C26   C     C_R   0.725847 0.419290 0.009833 0.057117
C27   C     C_R   0.470436 0.498654 0.948106 0.110242
C28   C     C_R   0.535809 0.519201 0.046824 0.128206
H1    H     H_    0.310563 0.685787 0.131896 0.172076
H2    H     H_    0.701365 0.340733 0.861835 0.168741
H3    H     H_    0.097417 0.666940 0.009344 0.203381
H4    H     H_    0.912323 0.359066 0.986439 0.195370
H5    H     H_    0.539120 0.629827 0.180863 0.135373
H6    H     H_    0.471974 0.394342 0.811563 0.172306
H7    H     H_    0.132700 0.117874 0.552127 0.194402
H8    H     H_    0.929828 0.895148 0.576474 0.202495
H9    H     H_    0.579198 0.388450 0.471287 0.209793
H10   H     H_    0.420465 0.609653 0.531759 0.208798
H11   H     H_    0.663827 0.640729 0.566696 0.218718
H12   H     H_    0.336090 0.359757 0.432346 0.219962
N1    N     N_2   0.322180 0.446120 0.460900 -0.189310
N2    N     N_2   0.677820 0.553880 0.539100 -0.163957
O1    O     O_R   0.935190 0.693030 0.507870 -0.624940
O2    O     O_R   0.064810 0.306970 0.492130 -0.620256
O3    O     O_R   0.142080 0.658430 0.482770 -0.598596
O4    O     O_R   0.857920 0.341570 0.517230 -0.597854
O5    O     O_R   0.969700 0.527180 0.651960 -0.525676
O6    O     O_R   0.030300 0.472820 0.348040 -0.539119
O7    O     O_R   0.176600 0.492580 0.626860 -0.577420
O8    O     O_R   0.823400 0.507420 0.373140 -0.610676
Zn1   Zn    Zn3+2 0.861850 0.523100 0.516760 1.040340
Zn2   Zn    Zn3+2 0.138150 0.476900 0.483240 1.039560
S1    S     S_3+6 0.590926 0.367341 0.239180 0.049384
O9    O     O_2   0.487651 0.284670 0.165542 -0.199269
O10   O     O_2   0.662479 0.286214 0.312839 -0.308682
O11   O     O_3   0.509172 0.466191 0.295231 -0.588877
H13   H     H_    0.577428 0.537701 0.322057 0.337423
S2    S     S_3+6 0.406477 0.650845 0.756071 0.025769
O12   O     O_2   0.484542 0.566058 0.706954 -0.329201
O13   O     O_2   0.328929 0.726950 0.681427 -0.333613
O14   O     O_3   0.516601 0.748796 0.838096 -0.505251
H14   H     H_    0.585948 0.782494 0.802108 0.411098
S3    S     S_3+6 0.097376 0.394668 0.168466 0.059784
O15   O     O_2   0.115825 0.292070 0.238268 -0.264316
O16   O     O_2   0.149534 0.359527 0.078696 -0.274084
O17   O     O_3   0.184838 0.529197 0.221445 -0.578676
H15   H     H_    0.264256 0.504015 0.266141 0.411890
S4    S     S_3+6 0.911935 0.638230 0.826762 0.045622
O18   O     O_2   0.819776 0.522535 0.785119 -0.262897
O19   O     O_2   0.865658 0.689471 0.914738 -0.292570
O20   O     O_3   0.901559 0.745367 0.741977 -0.531423
H16   H     H_    0.972907 0.814189 0.769918 0.347777
N3    N     N_3   0.787297 0.073848 0.516602 -0.438589
H17   H     H_    0.717483 0.139128 0.504738 0.224910
H18   H     H_    0.766173 0.012989 0.453865 0.208414
N4    N     N_3   0.207457 0.922513 0.471279 -0.433362
H19   H     H_    0.192816 0.895048 0.396934 0.203942
H20   H     H_    0.293143 0.885053 0.507418 0.226183

loop_
_geom_bond_atom_site_label_1
_geom_bond_atom_site_label_2
_ccdc_geom_bond_type
S3    O16   D    
N3    H17   S    
C18   C26   A    
O1    Zn1   S    
C14   O8    A    
S1    O9    D    
C2    O4    A    
C15   C19   A    
C3    C28   A    
C24   C26   A    
C3    H5    S    
S2    O13   D    
O11   H13   S    
C12   H9    S    
C12   N2    D    
C1    O1    A    
C2    O2    A    
S4    O18   D    
C9    H8    S    
C10   H7    S    
C23   C27   A    
H11   N2    S    
C9    C10   S    
N1    Zn2   S    
C18   C20   A    
N2    Zn1   S    
O2    Zn2   S    
S2    O14   S    
O17   H15   S    
S3    O17   S    
N3    H18   S    
C21   S2    S    
C22   S1    S    
C5    H1    S    
S1    O10   D    
C4    H6    S    
N4    H19   S    
C4    C6    A    
C13   O5    A    
O5    Zn1   S    
O3    Zn2   S    
S2    O12   D    
O4    Zn1   S    
C11   H10   S    
O6    Zn2   S    
C16   C20   A    
O7    Zn2   S    
O8    Zn1   S    
C19   S4    S    
C13   O7    A    
C5    C25   A    
C8    C10   D    
H12   N1    S    
C6    H2    S    
C13   C15   S    
C17   H3    S    
C14   C16   S    
C18   H4    S    
C4    C27   A    
S1    O11   S    
C7    C9    D    
C16   C22   A    
C1    C7    S    
C2    C8    S    
C24   C28   A    
N4    H20   S    
C3    C5    A    
C14   O6    A    
C11   C12   S    
C7    N4    S    
C17   C25   A    
C20   S3    S    
C21   C23   A    
O20   H16   S    
C1    O3    A    
C6    C26   A    
S4    O20   S    
C8    N3    S    
C17   C19   A    
C11   N1    D    
C22   C24   A    
C23   C25   A    
O14   H14   S    
S3    O15   D    
C15   C21   A    
S4    O19   D    
C27   C28   A    
