data_mof_unit_33602.cif
_audit_creation_date              2013-03-05T15:52:27-0500
_audit_creation_method            fapswitch 2.2
_symmetry_space_group_name_H-M    P1
_symmetry_Int_Tables_number       1
_space_group_crystal_system       triclinic
_cell_length_a                    27.578878
_cell_length_b                    10.971601
_cell_length_c                    9.757195
_cell_angle_alpha                 94.425424
_cell_angle_beta                  89.950743
_cell_angle_gamma                 97.003997
_cell_volume                      2921.49824566

loop_
_atom_site_label
_atom_site_type_symbol
_atom_site_description
_atom_site_fract_x
_atom_site_fract_y
_atom_site_fract_z
_atom_type_partial_charge
O1    O     O_R   0.500000 0.319640 0.618810 -0.554239
O2    O     O_R   0.500000 0.319660 0.381240 -0.529224
C1    C     C_R   0.499955 0.262045 0.494597 0.920186
O3    O     O_R   0.430260 0.500010 0.618770 -0.544556
O4    O     O_R   0.430270 0.500030 0.381200 -0.536459
C2    C     C_R   0.407492 0.497516 0.499538 0.947785
Cu1   Cu    Cu3+1 0.500000 0.499990 0.640660 1.125461
Cu2   Cu    Cu3+1 0.500000 0.500010 0.359340 1.161533
O5    O     O_R   0.500000 0.680340 0.618760 -0.558885
O6    O     O_R   0.500000 0.680360 0.381190 -0.541439
O7    O     O_R   0.569730 0.499970 0.618800 -0.502849
O8    O     O_R   0.569740 0.499990 0.381230 -0.532029
C3    C     C_R   0.496946 0.737028 0.504946 0.904722
C4    C     C_R   0.592419 0.492979 0.499648 0.978894
C5    C     C_R   0.174947 0.347400 0.345390 0.689929
O9    O     O_2   0.197742 0.253299 0.291322 -0.370820
N1    N     N_R   0.201625 0.458251 0.385997 -0.460889
C6    C     C_R   0.180025 0.560277 0.358967 0.733627
C7    C     C_R   0.279085 0.584411 0.477739 0.387107
C8    C     C_R   0.330409 0.594112 0.483698 0.172869
C9    C     C_R   0.324411 0.374572 0.510095 0.192493
C10   C     C_R   0.273177 0.364662 0.486433 0.213868
C11   C     C_R   0.251652 0.468170 0.444130 0.064507
C12   C     C_R   0.100572 0.442822 0.373654 -0.198606
C13   C     C_R   0.123258 0.335073 0.350525 -0.086242
C14   C     C_R   0.094645 0.219199 0.342087 0.382004
C15   C     C_R   0.129095 0.558269 0.371816 -0.109553
C16   C     C_R   0.353531 0.488212 0.496250 -0.277407
C17   C     C_R   0.645131 0.470067 0.497756 -0.305771
C18   C     C_R   0.967793 0.322094 0.368495 0.050323
C19   C     C_R   0.979866 0.532203 0.476994 0.014238
C20   C     C_R   0.948500 0.424457 0.435264 -0.061007
C21   C     C_R   0.934727 0.229753 0.297750 0.351252
C22   C     C_R   0.884128 0.220013 0.329007 0.352402
C23   C     C_R   0.865490 0.317428 0.407311 -0.091642
C24   C     C_R   0.897684 0.421606 0.455580 -0.176176
C25   C     C_R   0.879033 0.523826 0.523369 -0.149452
C26   C     C_R   0.828280 0.527594 0.519682 0.648403
N2    N     N_R   0.797100 0.423299 0.482218 -0.436242
C27   C     C_R   0.815084 0.316844 0.434573 0.758086
C28   C     C_R   0.715025 0.396355 0.373626 0.371592
C29   C     C_R   0.664653 0.410072 0.379561 0.204838
C30   C     C_R   0.675825 0.500993 0.615271 0.171020
C31   C     C_R   0.724223 0.471875 0.614423 0.235116
C32   C     C_R   0.744845 0.428235 0.490736 0.091041
O10   O     O_2   0.784301 0.211725 0.413065 -0.382806
C33   C     C_R   0.019702 0.321212 0.368177 -0.016390
C34   C     C_R   0.049560 0.435779 0.389906 -0.018514
C35   C     C_R   0.028481 0.544321 0.427804 -0.012266
C36   C     C_R   0.042904 0.211678 0.350681 0.247551
O11   O     O_2   0.206698 0.658101 0.309141 -0.351359
C37   C     C_R   0.106252 0.666638 0.378230 0.369478
C38   C     C_R   0.962365 0.621169 0.570809 0.451781
C39   C     C_R   0.911657 0.618917 0.591795 0.360846
O12   O     O_2   0.810231 0.635470 0.549049 -0.432362
C40   C     C_R   0.055936 0.660250 0.409521 0.255510
C41   C     C_R   0.561380 0.146399 0.673148 0.378290
C42   C     C_R   0.563807 0.123329 0.811952 0.116897
C43   C     C_R   0.532879 0.023775 0.860852 0.223710
C44   C     C_R   0.508360 0.933827 0.764043 0.339469
C45   C     C_R   0.509238 0.955697 0.622212 -0.215847
C46   C     C_R   0.525584 0.075827 0.589464 -0.032123
C47   C     C_R   0.501705 0.126571 0.484133 -0.103970
C48   C     C_R   0.471416 0.046109 0.390836 0.249495
C49   C     C_R   0.468840 0.916881 0.399237 0.431751
C50   C     C_R   0.490095 0.870461 0.513167 -0.090929
C51   C     C_R   0.562607 0.688315 0.159336 0.259492
C52   C     C_R   0.577087 0.798743 0.101644 0.172592
C53   C     C_R   0.583381 0.793954 0.960609 0.223284
C54   C     C_R   0.561676 0.691232 0.877667 0.495248
C55   C     C_R   0.531011 0.591058 0.934014 0.054932
C56   C     C_R   0.532238 0.588349 0.082875 -0.024350
N3    N     N_R   0.500460 0.501210 0.147910 -0.235134
C57   C     C_R   0.464907 0.431099 0.066352 0.378917
C58   C     C_R   0.467525 0.423980 0.919288 0.351033
N4    N     N_R   0.500480 0.501290 0.852040 -0.229550
N5    N     N_R   0.346216 0.271119 0.553778 0.198178
O13   O     O_R   0.327764 0.211354 0.655566 -0.173057
O14   O     O_R   0.386580 0.241662 0.499218 -0.328853
O15   O     O_3   0.255028 0.683307 0.523243 -0.609091
H1    H     H_    0.278114 0.748374 0.572283 0.393951
O16   O     O_3   0.133898 0.777389 0.357550 -0.583048
H2    H     H_    0.112740 0.833258 0.319377 0.372273
O17   O     O_3   0.995917 0.700867 0.649934 -0.652294
H3    H     H_    0.979049 0.757668 0.711543 0.402632
N6    N     N_R   0.658795 0.564494 0.735609 0.186942
O18   O     O_R   0.643546 0.502444 0.838839 -0.238110
O19   O     O_R   0.671382 0.682697 0.755933 -0.214365
O20   O     O_3   0.895480 0.706600 0.684129 -0.648038
H4    H     H_    0.867650 0.666365 0.735138 0.382819
N7    N     N_R   0.752655 0.484694 0.739650 0.172675
O21   O     O_R   0.755171 0.584698 0.821444 -0.199193
O22   O     O_R   0.778189 0.397796 0.769068 -0.303369
N8    N     N_R   0.032223 0.769742 0.410628 0.144782
O23   O     O_R   0.048703 0.866914 0.489655 -0.262007
O24   O     O_R   0.992455 0.769967 0.338981 -0.275367
N9    N     N_R   0.443138 0.094401 0.289719 0.142577
O25   O     O_R   0.395964 0.065340 0.283593 -0.205757
O26   O     O_R   0.465198 0.150404 0.190607 -0.229797
O27   O     O_3   0.591387 0.239746 0.617456 -0.709311
H5    H     H_    0.618799 0.269765 0.681427 0.367759
N10   N     N_R   0.591888 0.211537 0.904342 0.180177
O28   O     O_R   0.637151 0.198988 0.930730 -0.254798
O29   O     O_R   0.574791 0.314016 0.942631 -0.267241
N11   N     N_R   0.243067 0.256154 0.523806 0.193415
O30   O     O_R   0.252239 0.147110 0.476664 -0.159506
O31   O     O_R   0.206992 0.266175 0.608350 -0.286537
N12   N     N_R   0.525436 0.015446 0.006573 0.153214
O32   O     O_R   0.550689 0.091216 0.096156 -0.225527
O33   O     O_R   0.491775 0.935406 0.051793 -0.304708
O34   O     O_3   0.478823 0.836611 0.812983 -0.653091
H6    H     H_    0.449943 0.817576 0.752091 0.392010
O35   O     O_3   0.444311 0.833224 0.301893 -0.635717
H7    H     H_    0.431274 0.875852 0.227294 0.408948
N13   N     N_R   0.418606 0.390277 0.124687 0.151484
O36   O     O_R   0.388029 0.471246 0.144516 -0.287888
O37   O     O_R   0.400361 0.275427 0.104412 -0.187824
N14   N     N_R   0.598822 0.667863 0.255981 0.158378
O38   O     O_R   0.601606 0.730677 0.375333 -0.326919
O39   O     O_R   0.638313 0.626967 0.208301 -0.251696
N15   N     N_R   0.601106 0.900595 0.188477 0.192840
O40   O     O_R   0.577552 0.947036 0.291482 -0.278727
O41   O     O_R   0.648483 0.925353 0.186241 -0.211630
O42   O     O_3   0.614043 0.883608 0.899533 -0.671664
H8    H     H_    0.620992 0.958689 0.962142 0.396145
O43   O     O_3   0.573110 0.688095 0.741954 -0.628826
H9    H     H_    0.584580 0.770424 0.710793 0.373252
N16   N     N_R   0.430463 0.346293 0.841533 0.166669
O44   O     O_R   0.387214 0.381213 0.833731 -0.252333
O45   O     O_R   0.435430 0.230467 0.815148 -0.274161
O46   O     O_3   0.118362 0.114911 0.333466 -0.594499
H10   H     H_    0.097886 0.047191 0.374387 0.381032
N17   N     N_R   0.633312 0.359346 0.267063 0.161115
O47   O     O_R   0.598340 0.271803 0.286366 -0.251266
O48   O     O_R   0.643034 0.389994 0.143072 -0.184307
O49   O     O_3   0.736412 0.352469 0.254667 -0.612318
H11   H     H_    0.712384 0.292149 0.202511 0.402856
O50   O     O_3   0.852421 0.119467 0.278151 -0.614440
H12   H     H_    0.870924 0.047719 0.262495 0.369634
O51   O     O_3   0.951612 0.161513 0.186719 -0.658390
H13   H     H_    0.924176 0.131631 0.122527 0.362115
N18   N     N_R   0.015088 0.092712 0.354753 0.161162
O52   O     O_R   0.018383 0.008333 0.254983 -0.229978
O53   O     O_R   0.986848 0.068096 0.458504 -0.274106
N19   N     N_R   0.358285 0.712870 0.481728 0.138185
O54   O     O_R   0.387497 0.753293 0.583678 -0.396999
O55   O     O_R   0.346505 0.789886 0.396113 -0.214952

loop_
_geom_bond_atom_site_label_1
_geom_bond_atom_site_label_2
_geom_bond_distance
_ccdc_geom_bond_type
O43   H9    0.990429 S    
O15   H1    0.990404 S    
C17   C29   1.421739 A    
N10   O28   1.300558 A    
C28   C29   1.416117 A    
C40   N8    1.435438 S    
C7    C8    1.407382 A    
C12   C15   1.408537 A    
C58   N4    1.368545 A    
N16   O44   1.300523 A    
N19   O54   1.296696 A    
C41   C46   1.399363 A    
C38   C39   1.410720 A    
C15   C37   1.409117 A    
Cu1   O7    1.934710 S    
N11   O31   1.301412 A    
N1    C11   1.480659 S    
C29   N17   1.432396 S    
C20   C24   1.412145 A    
C24   C25   1.409084 A    
O34   H6    0.985933 S    
C51   C56   1.453180 A    
C14   C36   1.422040 A    
O4    C2    1.314544 A    
N10   O29   1.300100 A    
O7    C4    1.321266 A    
N6    O19   1.300905 A    
C5    C13   1.416617 A    
C21   O51   1.382036 S    
C5    O9    1.346518 S    
N12   O32   1.299172 A    
C5    N1    1.373095 A    
C58   N16   1.426843 S    
N3    C57   1.381773 A    
O5    C3    1.321621 A    
N14   O38   1.303993 A    
Cu2   N3    2.064040 S    
N8    O24   1.301473 A    
N9    O26   1.297083 A    
O17   H3    0.989215 S    
C2    C16   1.479426 S    
C26   O12   1.349748 S    
C23   C24   1.409514 A    
N12   O33   1.299214 A    
C52   C53   1.384636 A    
N13   O37   1.298930 A    
C7    O15   1.383950 S    
C54   C55   1.446097 A    
C42   N10   1.425758 S    
Cu2   O8    1.935382 S    
N2    C32   1.450826 S    
C54   O43   1.359769 S    
C43   C44   1.420542 A    
C9    C10   1.421578 A    
C17   C30   1.420560 A    
C53   C54   1.406763 A    
C19   C35   1.418052 A    
O3    Cu1   1.935387 S    
C45   C50   1.418557 A    
C10   C11   1.431661 A    
N19   O55   1.301438 A    
C6    O11   1.347882 S    
N9    O25   1.301478 A    
C33   C36   1.427757 A    
C3    C50   1.494880 S    
N5    O14   1.298925 A    
O51   H13   0.990422 S    
C57   C58   1.433262 A    
C51   C52   1.389652 A    
C12   C34   1.409027 A    
C18   C33   1.432820 A    
Cu1   Cu2   2.744911 S    
C12   C13   1.406727 A    
C39   O20   1.380724 S    
O3    C2    1.319323 A    
N2    C27   1.372364 A    
N6    O18   1.300052 A    
C56   N3    1.404681 A    
C8    C16   1.405132 A    
C53   O42   1.387273 S    
C42   C43   1.414470 A    
N5    O13   1.301366 A    
C41   O27   1.381110 S    
C22   O50   1.381612 S    
C44   C45   1.422335 A    
O1    C1    1.322803 A    
C7    C11   1.416689 A    
C30   C31   1.409705 A    
C25   C26   1.405910 A    
N7    O22   1.301362 A    
C33   C34   1.417664 A    
C22   C23   1.413361 A    
C46   C47   1.406688 A    
N1    C6    1.373282 A    
N8    O23   1.301291 A    
C8    N19   1.431315 S    
C19   C38   1.414180 A    
C37   O16   1.382104 S    
N15   O40   1.300870 A    
C31   N7    1.440780 S    
C25   C39   1.417173 A    
C48   N9    1.430077 S    
C9    C16   1.413976 A    
O8    C4    1.326205 A    
C49   C50   1.414230 A    
C38   O17   1.384398 S    
N17   O47   1.299978 A    
N18   O53   1.301484 A    
C27   O10   1.348742 S    
C4    C17   1.505089 S    
O46   H10   0.986615 S    
C35   C40   1.422267 A    
C55   N4    1.412833 A    
N7    O21   1.300765 A    
C31   C32   1.408970 A    
O35   H7    0.985808 S    
Cu1   O5    2.006558 S    
C34   C35   1.411870 A    
C18   C21   1.415041 A    
O1    Cu1   1.973757 S    
C30   N6    1.427323 S    
C49   O35   1.384690 S    
C19   C20   1.410137 A    
O2    Cu2   2.006559 S    
C6    C15   1.407709 A    
O49   H11   0.988808 S    
O6    C3    1.322294 A    
N16   O45   1.300714 A    
C52   N15   1.442113 S    
O4    Cu2   1.934713 S    
Cu1   N4    2.061468 S    
C1    C47   1.488662 S    
C10   N11   1.437090 S    
N11   O30   1.302149 A    
C43   N12   1.444661 S    
C48   C49   1.419653 A    
C23   C27   1.414475 A    
C13   C14   1.408912 A    
C55   C56   1.455573 A    
C44   O34   1.376700 S    
C18   C20   1.414592 A    
C41   C42   1.399992 A    
C26   N2    1.370568 A    
C57   N13   1.433094 S    
O27   H5    0.988918 S    
C21   C22   1.421138 A    
O2    C1    1.315531 A    
C45   C46   1.400831 A    
C51   N14   1.423390 S    
N14   O39   1.300007 A    
N15   O41   1.302224 A    
O50   H12   0.991298 S    
C47   C48   1.415357 A    
C37   C40   1.415122 A    
Cu2   O6    1.973757 S    
O16   H2    0.988835 S    
C9    N5    1.439849 S    
N17   O48   1.299542 A    
C28   C32   1.405033 A    
N18   O52   1.301630 A    
N13   O36   1.301396 A    
O20   H4    0.991108 S    
C28   O49   1.381596 S    
C14   O46   1.382632 S    
C36   N18   1.434401 S    
O42   H8    0.986177 S    
