data_mof_unit_34733.cif
_audit_creation_date              2012-12-11T14:40:50-0500
_audit_creation_method            fapswitch 2.2
_symmetry_space_group_name_H-M    P1
_symmetry_Int_Tables_number       1
_space_group_crystal_system       triclinic
_cell_length_a                    24.452378
_cell_length_b                    17.35156
_cell_length_c                    15.513301
_cell_angle_alpha                 89.999395
_cell_angle_beta                  129.237888
_cell_angle_gamma                 90.000342
_cell_volume                      5098.00267122

loop_
_atom_site_label
_atom_site_type_symbol
_atom_type_description
_atom_site_fract_x
_atom_site_fract_y
_atom_site_fract_z
_atom_type_partial_charge
C1    C     C_R   0.333422 0.392373 0.198053 -0.127974
C2    C     C_R   0.639745 0.686452 0.500934 -0.007302
C3    C     C_R   0.184518 0.882862 0.500206 -0.007820
C4    C     C_R   0.184519 0.117138 0.500208 -0.007818
C5    C     C_R   0.362737 0.313551 0.501177 -0.007322
C6    C     C_R   0.362734 0.686448 0.501173 -0.007325
C7    C     C_R   0.817524 0.882951 0.500895 -0.007867
C8    C     C_R   0.817535 0.117064 0.500908 -0.007860
C9    C     C_3   0.362100 0.204734 0.607371 -0.399988
C10   C     C_3   0.362098 0.795274 0.607353 -0.399987
C11   C     C_3   0.775419 0.849636 0.607556 -0.407390
C12   C     C_R   0.333420 0.607623 0.198051 -0.127973
C13   C     C_3   0.775586 0.150530 0.607737 -0.407443
C14   C     C_3   0.725521 0.795366 0.607220 -0.396777
C15   C     C_3   0.725660 0.204758 0.607378 -0.396810
C16   C     C_3   0.312294 0.150741 0.607626 -0.406760
C17   C     C_3   0.312295 0.849274 0.607604 -0.406759
C18   C     C_3   0.263247 0.302665 0.498268 -0.396146
C19   C     C_3   0.263254 0.697335 0.498288 -0.396147
C20   C     C_3   0.689722 0.852834 0.398510 -0.405673
C21   C     C_3   0.689728 0.147027 0.398714 -0.405641
C22   C     C_3   0.280141 0.201810 0.398622 -0.396210
C23   C     C_R   0.851586 0.857666 0.244357 -0.124748
C24   C     C_3   0.280127 0.798179 0.398605 -0.396216
C25   C     C_3   0.785782 0.751425 0.497971 -0.392610
C26   C     C_3   0.785663 0.248581 0.497676 -0.392623
C27   C     C_3   0.318628 0.256105 0.501444 0.396564
C28   C     C_3   0.318625 0.743893 0.501439 0.396561
C29   C     C_3   0.767731 0.836184 0.501292 0.401929
C30   C     C_3   0.767747 0.163828 0.501318 0.401916
C31   C     C_3   0.684084 0.743923 0.501275 0.396433
C32   C     C_3   0.684103 0.256083 0.501312 0.396433
C33   C     C_3   0.234733 0.163887 0.500852 0.401940
C34   C     C_R   0.851585 0.142334 0.244355 -0.124743
C35   C     C_3   0.234732 0.836112 0.500849 0.401938
C36   C     C_3   0.640144 0.798148 0.398467 -0.399225
C37   C     C_3   0.640151 0.201747 0.398637 -0.399182
C38   C     C_3   0.213810 0.248643 0.496948 -0.392827
C39   C     C_3   0.213822 0.751356 0.496982 -0.392827
C40   C     C_R   0.668244 0.395069 0.802054 -0.127214
C41   C     C_R   0.668243 0.604936 0.802050 -0.127208
C42   C     C_R   0.150350 0.860557 0.756528 -0.124646
C43   C     C_R   0.150354 0.139440 0.756534 -0.124642
C44   C     C_3   0.737023 0.697391 0.498338 -0.396189
C45   C     C_R   0.648240 0.375902 0.865119 0.154294
C46   C     C_3   0.736937 0.302615 0.498124 -0.396162
C47   C     C_3   0.230687 0.146917 0.398612 -0.406228
C48   C     C_3   0.230668 0.853067 0.398590 -0.406234
C49   C     C_2   0.694628 0.349261 0.980682 -0.225656
C50   C     C_2   0.694626 0.650746 0.980674 -0.225657
C51   C     C_2   0.142049 0.745402 0.849162 -0.224241
C52   C     C_2   0.142055 0.254597 0.849164 -0.224252
C53   C     C_2   0.764773 0.348170 0.040615 -0.107099
C54   C     C_2   0.764771 0.651835 0.040610 -0.107098
C55   C     C_2   0.194976 0.706535 0.864986 -0.110712
C56   C     C_R   0.648239 0.624102 0.865114 0.154291
C57   C     C_2   0.194984 0.293458 0.864993 -0.110719
C58   C     C_2   0.307082 0.653485 0.019498 -0.225757
C59   C     C_2   0.307091 0.346497 0.019512 -0.225762
C60   C     C_2   0.860042 0.257663 0.152061 -0.224710
C61   C     C_2   0.860043 0.742337 0.152065 -0.224711
C62   C     C_2   0.236943 0.654426 0.959558 -0.107648
C63   C     C_2   0.236950 0.345571 0.959558 -0.107655
C64   C     C_2   0.806742 0.296240 0.135462 -0.110534
C65   C     C_2   0.806739 0.703764 0.135458 -0.110532
C66   C     C_R   0.588518 0.356443 0.407650 -0.137806
C67   C     C_R   0.117249 0.818235 0.787997 0.151022
C68   C     C_R   0.588513 0.643550 0.407637 -0.137791
C69   C     C_R   0.115679 0.897131 0.407869 -0.140829
C70   C     C_R   0.115680 0.102870 0.407869 -0.140827
C71   C     C_R   0.413472 0.357518 0.593553 -0.137661
C72   C     C_R   0.413471 0.642482 0.593551 -0.137661
C73   C     C_R   0.886213 0.898261 0.592755 -0.141170
C74   C     C_R   0.886219 0.101738 0.592762 -0.141188
C75   C     C_R   0.663502 0.357598 0.593355 -0.139983
C76   C     C_R   0.663499 0.642408 0.593343 -0.139998
C77   C     C_R   0.189981 0.898550 0.592273 -0.145526
C78   C     C_R   0.117252 0.181762 0.788001 0.151023
C79   C     C_R   0.189981 0.101449 0.592273 -0.145526
C80   C     C_R   0.338744 0.356520 0.407843 -0.140114
C81   C     C_R   0.338742 0.643479 0.407841 -0.140113
C82   C     C_R   0.811863 0.897505 0.408352 -0.145009
C83   C     C_R   0.811867 0.102511 0.408358 -0.144998
C84   C     C_R   0.577549 0.394295 0.803004 -0.159124
C85   C     C_R   0.577548 0.605706 0.803002 -0.159123
C86   C     C_R   0.058772 0.859857 0.757288 -0.156053
C87   C     C_R   0.058773 0.140143 0.757289 -0.156054
C88   C     C_R   0.424138 0.391610 0.197099 -0.160054
C89   C     C_R   0.639756 0.313550 0.500959 -0.007306
C90   C     C_R   0.424134 0.608384 0.197092 -0.160060
C91   C     C_R   0.943219 0.856962 0.243557 -0.156168
C92   C     C_R   0.943219 0.143038 0.243555 -0.156167
C93   C     C_R   0.353468 0.373130 0.135054 0.155107
C94   C     C_R   0.353463 0.626861 0.135047 0.155110
C95   C     C_R   0.884873 0.815177 0.213284 0.152168
C96   C     C_R   0.884873 0.184822 0.213281 0.152166
H1    H     H_    0.280324 0.395501 0.170190 0.076510
H2    H     H_    0.758246 0.240108 0.684280 0.145223
H3    H     H_    0.327804 0.089629 0.612292 0.149383
H4    H     H_    0.327796 0.910385 0.612238 0.149388
H5    H     H_    0.318484 0.163299 0.683621 0.145385
H6    H     H_    0.318497 0.836736 0.683613 0.145382
H7    H     H_    0.688113 0.829572 0.609861 0.155614
H8    H     H_    0.688331 0.170528 0.610183 0.155640
H9    H     H_    0.289976 0.341163 0.572222 0.154969
H10   H     H_    0.289990 0.658840 0.572244 0.154965
H11   H     H_    0.676196 0.913822 0.399912 0.149595
H12   H     H_    0.280324 0.604491 0.170192 0.076507
H13   H     H_    0.676294 0.086054 0.400391 0.149615
H14   H     H_    0.602127 0.832094 0.399915 0.154690
H15   H     H_    0.602187 0.167826 0.400242 0.154666
H16   H     H_    0.216201 0.261645 0.569616 0.155281
H17   H     H_    0.216232 0.738364 0.569670 0.155279
H18   H     H_    0.780152 0.740623 0.421885 0.154517
H19   H     H_    0.779885 0.259281 0.421443 0.154487
H20   H     H_    0.247684 0.235007 0.319661 0.145757
H21   H     H_    0.247671 0.764976 0.319652 0.145754
H22   H     H_    0.319391 0.168014 0.400076 0.155207
H23   H     H_    0.803848 0.843525 0.231213 0.086416
H24   H     H_    0.319369 0.831978 0.400046 0.155213
H25   H     H_    0.841576 0.738518 0.571240 0.155808
H26   H     H_    0.841475 0.261585 0.570779 0.155836
H27   H     H_    0.769383 0.658621 0.572012 0.154120
H28   H     H_    0.769325 0.341437 0.571734 0.154151
H29   H     H_    0.245771 0.085999 0.400779 0.150302
H30   H     H_    0.245736 0.913986 0.400724 0.150301
H31   H     H_    0.708317 0.660319 0.422725 0.154274
H32   H     H_    0.708151 0.339635 0.422451 0.154231
H33   H     H_    0.176226 0.155482 0.319522 0.145117
H34   H     H_    0.803847 0.156474 0.231208 0.086415
H35   H     H_    0.176206 0.844482 0.319513 0.145122
H36   H     H_    0.231536 0.340020 0.422930 0.153438
H37   H     H_    0.231538 0.659978 0.422954 0.153443
H38   H     H_    0.680947 0.843733 0.319703 0.144735
H39   H     H_    0.680853 0.155966 0.319803 0.144705
H40   H     H_    0.721333 0.398132 0.829880 0.076029
H41   H     H_    0.721331 0.601877 0.829873 0.076032
H42   H     H_    0.198094 0.846382 0.769714 0.086361
H43   H     H_    0.198101 0.153612 0.769725 0.086354
H44   H     H_    0.609168 0.764885 0.319555 0.144622
H45   H     H_    0.401538 0.170325 0.610014 0.154956
H46   H     H_    0.609113 0.234931 0.319653 0.144641
H47   H     H_    0.158550 0.259354 0.420306 0.155162
H48   H     H_    0.158558 0.740636 0.420359 0.155165
H49   H     H_    0.212036 0.628356 0.990526 0.122616
H50   H     H_    0.212041 0.371661 0.990507 0.122625
H51   H     H_    0.786082 0.279496 0.177387 0.123778
H52   H     H_    0.786076 0.720509 0.177377 0.123778
H53   H     H_    0.789696 0.374088 0.009587 0.122427
H54   H     H_    0.789695 0.625916 0.009584 0.122426
H55   H     H_    0.215412 0.723154 0.822686 0.123917
H56   H     H_    0.401533 0.829679 0.609982 0.154955
H57   H     H_    0.215422 0.276833 0.822700 0.123924
H58   H     H_    0.331261 0.680288 0.987542 0.125590
H59   H     H_    0.331273 0.319676 0.987573 0.125592
H60   H     H_    0.879961 0.274685 0.108996 0.125858
H61   H     H_    0.879965 0.725314 0.109006 0.125856
H62   H     H_    0.670427 0.322626 0.012701 0.125493
H63   H     H_    0.670424 0.677381 0.012691 0.125493
H64   H     H_    0.122350 0.728504 0.892594 0.125826
H65   H     H_    0.122354 0.271499 0.892589 0.125837
H66   H     H_    0.562012 0.343294 0.321519 0.089910
H67   H     H_    0.830239 0.837642 0.683911 0.145736
H68   H     H_    0.561995 0.656689 0.321501 0.089918
H69   H     H_    0.093480 0.896350 0.321632 0.082336
H70   H     H_    0.093481 0.103654 0.321632 0.082333
H71   H     H_    0.440143 0.345213 0.679942 0.089709
H72   H     H_    0.440141 0.654788 0.679939 0.089708
H73   H     H_    0.908406 0.898812 0.678991 0.082623
H74   H     H_    0.908414 0.101163 0.678999 0.082647
H75   H     H_    0.706560 0.345444 0.679561 0.089893
H76   H     H_    0.706566 0.654571 0.679543 0.089885
H77   H     H_    0.237255 0.899755 0.678272 0.082997
H78   H     H_    0.830411 0.162681 0.683962 0.145777
H79   H     H_    0.237255 0.100241 0.678272 0.082999
H80   H     H_    0.295725 0.343521 0.321893 0.090067
H81   H     H_    0.295724 0.656476 0.321890 0.090067
H82   H     H_    0.764597 0.897381 0.322327 0.082643
H83   H     H_    0.764598 0.102660 0.322334 0.082618
H84   H     H_    0.548490 0.396915 0.833974 0.088163
H85   H     H_    0.548490 0.603088 0.833972 0.088164
H86   H     H_    0.021844 0.843466 0.770262 0.095159
H87   H     H_    0.021845 0.156535 0.770262 0.095162
H88   H     H_    0.453155 0.394343 0.166060 0.088630
H89   H     H_    0.758106 0.760095 0.684203 0.145247
H90   H     H_    0.453148 0.605645 0.166049 0.088628
H91   H     H_    0.980133 0.840617 0.230530 0.095243
H92   H     H_    0.980133 0.159383 0.230528 0.095244
H93   H     H_    0.391391 0.240071 0.684315 0.144235
H94   H     H_    0.391393 0.759944 0.684304 0.144240
H95   H     H_    0.763164 0.910694 0.611451 0.150159
H96   H     H_    0.763468 0.089470 0.611903 0.150148
N1    N     N_R   0.389430 0.421450 0.294590 -0.040598
N2    N     N_R   0.581780 0.577610 0.443390 -0.037531
N3    N     N_R   0.081780 0.922390 0.443390 -0.030259
N4    N     N_R   0.081780 0.077610 0.443390 -0.030259
N5    N     N_R   0.419850 0.423100 0.556610 -0.037334
N6    N     N_R   0.419850 0.576900 0.556610 -0.037334
N7    N     N_R   0.919850 0.923100 0.556610 -0.030105
N8    N     N_R   0.919850 0.076900 0.556610 -0.030104
N9    N     N_R   0.627410 0.423100 0.556610 -0.038190
N10   N     N_R   0.627410 0.576900 0.556610 -0.038188
N11   N     N_R   0.127410 0.923100 0.556610 -0.030943
N12   N     N_R   0.389430 0.578550 0.294590 -0.040598
N13   N     N_R   0.127410 0.076900 0.556610 -0.030943
N14   N     N_R   0.374220 0.422390 0.443390 -0.038388
N15   N     N_R   0.374220 0.577610 0.443390 -0.038388
N16   N     N_R   0.874220 0.922390 0.443390 -0.031117
N17   N     N_R   0.874220 0.077610 0.443390 -0.031113
N18   N     N_R   0.555000 0.424040 0.705410 -0.036376
N19   N     N_R   0.555000 0.575960 0.705410 -0.036376
N20   N     N_R   0.055000 0.924040 0.705410 -0.042404
N21   N     N_R   0.055000 0.075960 0.705410 -0.042404
N22   N     N_R   0.446630 0.421450 0.294590 -0.036983
N23   N     N_R   0.889430 0.921450 0.294590 -0.046620
N24   N     N_R   0.446630 0.578550 0.294590 -0.036986
N25   N     N_R   0.946630 0.921450 0.294590 -0.043313
N26   N     N_R   0.946630 0.078550 0.294590 -0.043314
N27   N     N_R   0.889430 0.078550 0.294590 -0.046620
N28   N     N_R   0.612200 0.424040 0.705410 -0.040001
N29   N     N_R   0.612200 0.575960 0.705410 -0.039999
N30   N     N_R   0.112200 0.924040 0.705410 -0.045741
N31   N     N_R   0.112200 0.075960 0.705410 -0.045740
N32   N     N_R   0.581780 0.422390 0.443390 -0.037528
Ni1   Ni    Ni4+2 0.382890 0.500000 0.370170 0.204506
Ni2   Ni    Ni4+2 0.882890 0.000000 0.370170 0.207525
Ni3   Ni    Ni4+2 0.618740 0.500000 0.629830 0.204128
Ni4   Ni    Ni4+2 0.118740 1.000000 0.629830 0.206936
Ni5   Ni    Ni4+2 0.514090 0.500000 0.370170 0.207302
Ni6   Ni    Ni4+2 0.014090 0.000000 0.370170 0.208378
Ni7   Ni    Ni4+2 0.487550 0.500000 0.629830 0.206855
Ni8   Ni    Ni4+2 0.987550 1.000000 0.629830 0.207793

loop_
_geom_bond_atom_site_label_1
_geom_bond_atom_site_label_2
_ccdc_geom_bond_type
C78   C87   A    
C58   C62   D    
C80   N14   A    
C44   H31   S    
C7    C29   S    
C42   H42   S    
C8    C83   A    
N21   N31   A    
C38   H47   S    
C18   H36   S    
C69   N3    A    
C14   C31   S    
N7    Ni8   S    
C12   C94   A    
C90   N24   A    
C75   N9    A    
C15   C32   S    
C54   H54   S    
C54   C65   S    
C23   N23   A    
C43   C78   A    
C6    C72   A    
C40   H40   S    
C24   H21   S    
C50   C54   D    
C13   H96   S    
N19   Ni7   S    
C47   H33   S    
C19   C39   S    
C46   H32   S    
C3    C69   A    
C9    C16   S    
C34   C96   A    
C2    C68   A    
N23   N25   A    
C23   H23   S    
N20   Ni8   S    
C53   C64   S    
C76   N10   A    
C71   N5    A    
C88   H88   S    
N3    N11   A    
C10   C17   S    
N2    N10   A    
C55   C62   S    
C85   N19   A    
C51   H64   S    
C92   C96   A    
N18   N28   A    
C66   H66   S    
N13   Ni4   S    
C76   H76   S    
N4    N13   A    
C84   H84   S    
C26   H19   S    
N26   Ni6   S    
C58   H58   S    
C10   H56   S    
C5    C27   S    
N15   Ni1   S    
C26   H26   S    
C6    C28   S    
C70   N4    A    
C23   C95   A    
C39   H17   S    
C62   H49   S    
C85   H85   S    
N18   Ni7   S    
C48   H35   S    
C43   H43   S    
C3    C35   S    
C15   H8    S    
C63   H50   S    
C41   H41   S    
C52   H65   S    
C81   N15   A    
C20   H11   S    
N16   Ni2   S    
C48   H30   S    
C68   H68   S    
C22   C47   S    
C43   N31   A    
C31   C36   S    
C6    C81   A    
C71   H71   S    
C40   N28   A    
C53   H53   S    
C72   H72   S    
N2    Ni5   S    
C46   H28   S    
N5    N14   A    
C40   C45   A    
C52   C78   S    
C35   C48   S    
C77   N11   A    
C25   C44   S    
C4    C70   A    
N11   Ni4   S    
C90   C94   A    
C66   C89   A    
N32   Ni5   S    
C20   C29   S    
N5    Ni7   S    
C26   C46   S    
C25   C29   S    
C13   H78   S    
C47   H29   S    
C24   H24   S    
C74   H74   S    
C37   H46   S    
C24   C48   S    
C79   H79   S    
C13   C30   S    
N1    N22   A    
C84   N18   A    
C80   H80   S    
C4    C79   A    
C7    C73   A    
C31   C44   S    
C1    H1    S    
C12   H12   S    
C14   H89   S    
C59   H59   S    
N6    Ni7   S    
N29   Ni3   S    
N20   N30   A    
C90   H90   S    
C51   C55   D    
C79   N13   A    
C57   H57   S    
C50   C56   S    
N8    Ni8   S    
N3    Ni6   S    
C2    C31   S    
C5    C80   A    
C11   H67   S    
C91   N25   A    
C35   C39   S    
C17   H6    S    
C60   H60   S    
C41   C56   A    
C61   H61   S    
N25   Ni6   S    
C32   C89   S    
N30   Ni4   S    
C82   H82   S    
N14   Ni1   S    
C8    C74   A    
C45   C49   S    
C87   N21   A    
C10   H94   S    
C32   C37   S    
C65   H52   S    
C92   N26   A    
C19   C28   S    
C36   H44   S    
C34   H34   S    
C22   H22   S    
C83   N17   A    
N21   Ni8   S    
C88   N22   A    
C60   C96   S    
C66   N32   A    
C81   H81   S    
N4    Ni6   S    
C26   C30   S    
C22   C27   S    
C13   C15   S    
C64   H51   S    
C75   H75   S    
C42   C67   A    
C33   C47   S    
C49   H62   S    
C45   C84   A    
N17   Ni2   S    
C15   H2    S    
C73   H73   S    
C3    C77   A    
C82   N16   A    
C2    C76   A    
C9    C27   S    
N24   Ni5   S    
C10   C28   S    
N9    Ni3   S    
C20   H38   S    
C91   H91   S    
C4    C33   S    
C67   C86   A    
C77   H77   S    
N6    N15   A    
C34   N27   A    
C32   C46   S    
C18   C27   S    
C24   C28   S    
C57   C63   S    
C74   N8    A    
C21   H13   S    
C61   C95   S    
C16   H3    S    
C55   H55   S    
N10   Ni3   S    
C86   N20   A    
C50   H63   S    
C19   H37   S    
C17   C35   S    
C21   C30   S    
N12   N24   A    
C44   H27   S    
C59   C63   D    
N8    N17   A    
C83   H83   S    
C60   C64   D    
C9    H93   S    
C8    C30   S    
N23   Ni2   S    
C70   H70   S    
C18   C38   S    
C18   H9    S    
N1    Ni1   S    
C5    C71   A    
C16   C33   S    
C56   C85   A    
C25   H18   S    
C11   C29   S    
C36   H14   S    
N31   Ni4   S    
N26   N27   A    
C51   C67   S    
C25   H25   S    
C49   C53   D    
C73   N7    A    
C22   H20   S    
N7    N16   A    
C11   C14   S    
C88   C93   A    
C11   H95   S    
C12   N12   A    
N27   Ni2   S    
C58   C94   S    
C17   H4    S    
C69   H69   S    
C37   H15   S    
C9    H45   S    
C52   C57   D    
C75   C89   A    
C72   N6    A    
C20   C36   S    
C19   H10   S    
C61   C65   D    
C16   H5    S    
C7    C82   A    
C21   C37   S    
C39   H48   S    
N28   Ni3   S    
C91   C95   A    
C1    C93   A    
C86   H86   S    
C14   H7    S    
C1    N1    A    
C33   C38   S    
C68   N2    A    
C59   C93   S    
N9    N32   A    
C87   H87   S    
N12   Ni1   S    
C42   N30   A    
N22   Ni5   S    
C38   H16   S    
C21   H39   S    
C41   N29   A    
C92   H92   S    
N19   N29   A    
