data_mof_unit_43730.cif
_audit_creation_date              2012-12-11T16:44:25-0500
_audit_creation_method            fapswitch 2.2
_symmetry_space_group_name_H-M    P1
_symmetry_Int_Tables_number       1
_space_group_crystal_system       triclinic
_cell_length_a                    27.341438
_cell_length_b                    7.192153
_cell_length_c                    22.734211
_cell_angle_alpha                 90.003478
_cell_angle_beta                  101.04849
_cell_angle_gamma                 90.011443
_cell_volume                      4387.68171822

loop_
_atom_site_label
_atom_site_type_symbol
_atom_type_description
_atom_site_fract_x
_atom_site_fract_y
_atom_site_fract_z
_atom_type_partial_charge
O1    O     O_R   0.707300 0.594030 0.176840 -0.525575
O2    O     O_R   0.292700 0.405970 0.823160 -0.525576
O3    O     O_R   0.792700 0.094030 0.323160 -0.525827
O4    O     O_R   0.207300 0.905970 0.676840 -0.525828
O5    O     O_R   0.697330 0.262360 0.295660 -0.512093
O6    O     O_R   0.302670 0.737640 0.704340 -0.512092
O7    O     O_R   0.802670 0.762360 0.204340 -0.511987
O8    O     O_R   0.197330 0.237640 0.795660 -0.511987
C1    C     C_R   0.685785 0.431417 0.313230 0.766188
C2    C     C_R   0.314215 0.568583 0.686770 0.766188
C3    C     C_R   0.814210 0.931428 0.186767 0.766104
C4    C     C_R   0.185790 0.068572 0.813233 0.766103
O9    O     O_R   0.701410 0.264250 0.175600 -0.536911
O10   O     O_R   0.298590 0.735750 0.824400 -0.536911
O11   O     O_R   0.798590 0.764250 0.324400 -0.536623
O12   O     O_R   0.201410 0.235750 0.675600 -0.536624
O13   O     O_R   0.796800 0.094950 0.202240 -0.539100
O14   O     O_R   0.203200 0.905050 0.797760 -0.539100
O15   O     O_R   0.703200 0.594950 0.297760 -0.538952
O16   O     O_R   0.296800 0.405050 0.702240 -0.538953
C5    C     C_R   0.689814 0.432524 0.153603 0.781712
C6    C     C_R   0.310186 0.567476 0.846397 0.781712
C7    C     C_R   0.810186 0.932566 0.346393 0.781591
C8    C     C_R   0.189814 0.067433 0.653607 0.781591
O17   O     O_3   0.781290 0.427390 0.258880 -0.372611
O18   O     O_3   0.218710 0.572610 0.741120 -0.372611
O19   O     O_3   0.718710 0.927390 0.241120 -0.372529
O20   O     O_3   0.281290 0.072610 0.758880 -0.372529
V1    V     V_3+5 0.744190 0.152150 0.248350 1.565389
V2    V     V_3+5 0.255810 0.847850 0.751650 1.565389
V3    V     V_3+5 0.755810 0.652150 0.251650 1.565929
V4    V     V_3+5 0.244190 0.347850 0.748350 1.565929
C9    C     C_R   0.153664 0.062256 0.596364 -0.085321
C10   C     C_R   0.846336 0.937744 0.403636 -0.085321
C11   C     C_R   0.346345 0.562529 0.903638 -0.085315
C12   C     C_R   0.653655 0.437471 0.096362 -0.085316
C13   C     C_R   0.136681 0.149074 0.491840 -0.143273
C14   C     C_R   0.863319 0.850926 0.508160 -0.143273
C15   C     C_R   0.363520 0.652126 0.007930 -0.143455
C16   C     C_R   0.636480 0.347874 0.992070 -0.143454
C17   C     C_R   0.170366 0.117572 0.544803 -0.179840
C18   C     C_R   0.829634 0.882428 0.455197 -0.179839
C19   C     C_R   0.329760 0.619766 0.955085 -0.179427
C20   C     C_R   0.670240 0.380234 0.044915 -0.179427
C21   C     C_R   0.102259 0.027483 0.593978 0.168577
C22   C     C_R   0.897741 0.972517 0.406022 0.168577
C23   C     C_R   0.397701 0.526597 0.906066 0.168589
C24   C     C_R   0.602299 0.473402 0.093934 0.168589
C25   C     C_R   0.068059 0.034590 0.537354 0.042746
C26   C     C_R   0.931941 0.965410 0.462645 0.042746
C27   C     C_R   0.431952 0.534749 0.962638 0.042623
C28   C     C_R   0.568047 0.465251 0.037362 0.042624
C29   C     C_R   0.085842 0.113906 0.488203 0.088795
C30   C     C_R   0.914158 0.886094 0.511797 0.088795
C31   C     C_R   0.414312 0.616006 0.011593 0.088774
C32   C     C_R   0.585688 0.383994 0.988407 0.088773
C33   C     C_R   0.016744 0.975925 0.527339 0.062250
C34   C     C_R   0.983255 0.024074 0.472661 0.062250
C35   C     C_R   0.483204 0.475377 0.972752 0.062275
C36   C     C_R   0.516796 0.524623 0.027248 0.062275
C37   C     C_R   0.001707 0.137279 0.431530 -0.114802
C38   C     C_R   0.998293 0.862720 0.568470 -0.114802
C39   C     C_R   0.498513 0.639527 0.068077 -0.114962
C40   C     C_R   0.501487 0.360473 0.931923 -0.114962
C41   C     C_R   0.052387 0.169313 0.436932 -0.164229
C42   C     C_R   0.947613 0.830686 0.563067 -0.164229
C43   C     C_R   0.447871 0.672396 0.062659 -0.164266
C44   C     C_R   0.552129 0.327604 0.937341 -0.164266
H1    H     H_    0.065297 0.246059 0.401781 0.142481
H2    H     H_    0.934703 0.753941 0.598219 0.142481
H3    H     H_    0.435087 0.750558 0.097603 0.142542
H4    H     H_    0.564913 0.249441 0.902397 0.142542
H5    H     H_    0.790592 0.851163 0.453343 0.167267
H6    H     H_    0.209408 0.148837 0.546657 0.167266
H7    H     H_    0.709234 0.348077 0.046812 0.166851
H8    H     H_    0.290766 0.651923 0.953188 0.166851
H9    H     H_    0.150361 0.205051 0.453762 0.141564
H10   H     H_    0.849638 0.794949 0.546238 0.141564
H11   H     H_    0.349947 0.709613 0.045867 0.141537
H12   H     H_    0.650053 0.290387 0.954132 0.141537
H13   H     H_    0.977379 0.206008 0.395213 0.183840
H14   H     H_    0.022621 0.793992 0.604787 0.183840
H15   H     H_    0.522950 0.708935 0.104155 0.183827
H16   H     H_    0.477050 0.291065 0.895845 0.183827
C45   C     C_R   0.883386 0.094007 0.150013 -0.119139
C46   C     C_R   0.116613 0.905993 0.849987 -0.119139
C47   C     C_R   0.616635 0.594017 0.350007 -0.118896
C48   C     C_R   0.383365 0.405982 0.649993 -0.118896
H17   H     H_    0.880382 0.207046 0.180609 0.180370
H18   H     H_    0.119618 0.792954 0.819391 0.180370
H19   H     H_    0.619666 0.707090 0.319437 0.180721
H20   H     H_    0.380334 0.292909 0.680563 0.180722
C49   C     C_R   0.919451 0.106218 0.114179 -0.122230
C50   C     C_R   0.080548 0.893782 0.885821 -0.122230
C51   C     C_R   0.580570 0.606236 0.385839 -0.122190
C52   C     C_R   0.419429 0.393763 0.614160 -0.122190
H21   H     H_    0.942865 0.228773 0.117423 0.175492
H22   H     H_    0.057134 0.771227 0.882577 0.175492
H23   H     H_    0.557183 0.728825 0.382620 0.175636
H24   H     H_    0.442816 0.271173 0.617379 0.175638
C53   C     C_R   0.925269 0.963256 0.074216 -0.039941
C54   C     C_R   0.074731 0.036744 0.925783 -0.039941
C55   C     C_R   0.574720 0.463240 0.425774 -0.040034
C56   C     C_R   0.425280 0.536758 0.574226 -0.040034
C57   C     C_R   0.894458 0.804586 0.070836 0.271370
C58   C     C_R   0.105542 0.195414 0.929164 0.271370
C59   C     C_R   0.605495 0.304527 0.429124 0.271400
C60   C     C_R   0.394506 0.695473 0.570876 0.271402
C61   C     C_R   0.857214 0.793042 0.106181 0.232462
C62   C     C_R   0.142786 0.206958 0.893818 0.232463
C63   C     C_R   0.642735 0.292966 0.393776 0.232421
C64   C     C_R   0.357265 0.707034 0.606224 0.232420
C65   C     C_R   0.851899 0.938312 0.147049 -0.147971
C66   C     C_R   0.148101 0.061687 0.852951 -0.147971
C67   C     C_R   0.648088 0.438280 0.352940 -0.148165
C68   C     C_R   0.351911 0.561720 0.647060 -0.148165
C69   C     C_R   0.949626 0.986610 0.973351 -0.041010
C70   C     C_R   0.050374 0.013390 0.026649 -0.041011
C71   C     C_R   0.550373 0.486590 0.526643 -0.040983
C72   C     C_R   0.449627 0.513410 0.473357 -0.040984
H25   H     H_    0.910701 0.977351 0.952128 0.150279
H26   H     H_    0.089299 0.022649 0.047872 0.150279
H27   H     H_    0.589297 0.477313 0.547862 0.150249
H28   H     H_    0.410702 0.522687 0.452138 0.150249
C73   C     C_R   0.985781 0.002472 0.937508 -0.122072
C74   C     C_R   0.014219 0.997528 0.062492 -0.122072
C75   C     C_R   0.514223 0.502457 0.562492 -0.121996
C76   C     C_R   0.485777 0.497542 0.437508 -0.121996
H29   H     H_    0.974219 0.005278 0.889209 0.132717
H30   H     H_    0.025781 0.994722 0.110791 0.132717
H31   H     H_    0.525789 0.505254 0.610791 0.132741
H32   H     H_    0.474211 0.494746 0.389209 0.132740
C77   C     C_R   0.036446 0.017381 0.963841 0.125631
C78   C     C_R   0.963554 0.982619 0.036159 0.125631
C79   C     C_R   0.463559 0.517383 0.536164 0.125671
C80   C     C_R   0.536441 0.482615 0.463835 0.125670
Br1   Br    Br    0.919412 0.970560 0.329633 -0.600634
Br2   Br    Br    0.080588 0.029439 0.670366 -0.600634
Br3   Br    Br    0.580688 0.474286 0.170358 -0.600723
Br4   Br    Br    0.419312 0.525714 0.829642 -0.600722
Br5   Br    Br    0.905009 0.598560 0.020139 -0.491438
Br6   Br    Br    0.094991 0.401440 0.979861 -0.491438
Br7   Br    Br    0.594903 0.098484 0.479791 -0.491517
Br8   Br    Br    0.405098 0.901516 0.520210 -0.491519
Br9   Br    Br    0.812288 0.582848 0.094132 -0.521073
Br10  Br    Br    0.187712 0.417152 0.905868 -0.521074
Br11  Br    Br    0.687602 0.082668 0.405776 -0.521498
Br12  Br    Br    0.312398 0.917333 0.594224 -0.521500

loop_
_geom_bond_atom_site_label_1
_geom_bond_atom_site_label_2
_ccdc_geom_bond_type
O17   V3    S    
C48   C52   A    
O1    C5    A    
C56   C79   S    
C47   H19   S    
O19   V1    S    
C9    C21   A    
O3    C7    A    
C10   C18   A    
C60   Br8   S    
O15   V3    S    
C25   C33   A    
C33   C38   A    
C5    C12   S    
C53   C78   S    
O7    C3    A    
C6    C11   S    
C35   C40   A    
C26   C30   A    
C28   C36   A    
C36   C39   A    
C40   C44   A    
O9    V1    S    
C75   C79   A    
C14   C18   A    
C76   C80   A    
C57   Br5   S    
O4    C8    A    
C51   H23   S    
C64   C68   A    
C74   H30   S    
O1    V3    S    
O13   V1    S    
O2    V4    S    
C70   H26   S    
O3    V1    S    
C69   H25   S    
C40   H16   S    
C46   C50   A    
C17   H6    S    
C45   C49   A    
C1    O15   A    
C15   C31   A    
C48   H20   S    
C2    O16   A    
C16   C32   A    
C47   C51   A    
C23   Br4   S    
O2    C6    A    
C16   H12   S    
C54   C58   A    
C10   C22   A    
C11   C19   A    
C62   C66   A    
C16   C20   A    
C47   C67   A    
C61   C65   A    
C13   C29   A    
C34   C37   A    
O11   C7    A    
C38   H14   S    
C11   C23   A    
C35   C36   A    
O12   C8    A    
O10   V2    S    
C69   C78   A    
C76   H32   S    
C51   C55   A    
C58   Br6   S    
O5    V1    S    
C53   C57   A    
C39   C43   A    
O7    V3    S    
C38   C42   A    
O8    V4    S    
C46   H18   S    
C49   C53   A    
C45   H17   S    
O18   V4    S    
C15   C19   A    
C14   H10   S    
C27   C31   A    
C32   C44   A    
C13   H9    S    
C60   C64   A    
C39   H15   S    
C44   H4    S    
C1    C67   S    
C48   C68   A    
C20   H7    S    
C55   C80   S    
O5    C1    A    
C63   Br11  S    
C31   C43   A    
C14   C30   A    
C21   C25   A    
O8    C4    A    
C7    C10   S    
C26   C34   A    
O9    C5    A    
C50   C54   A    
C70   C77   A    
C22   Br1   S    
O14   V2    S    
O6    V2    S    
C52   C56   A    
C73   H29   S    
C12   C20   A    
C27   C35   A    
C59   Br7   S    
C49   H21   S    
C56   C60   A    
C29   C41   A    
C55   C59   A    
O16   V4    S    
C73   C77   A    
C19   H8    S    
C57   C61   A    
C3    O13   A    
C18   H5    S    
C24   Br3   S    
C59   C63   A    
C61   Br9   S    
C8    C9    S    
O6    C2    A    
C23   C27   A    
C72   C76   A    
O11   V3    S    
C30   C42   A    
C71   H27   S    
O12   V4    S    
C22   C26   A    
C71   C80   A    
C46   C66   A    
C72   C79   A    
C9    C17   A    
O10   C6    A    
O20   V2    S    
C54   C77   S    
C37   H13   S    
C33   C34   A    
C42   H2    S    
C41   H1    S    
C52   H24   S    
C45   C65   A    
C21   Br2   S    
C12   C24   A    
C43   H3    S    
C37   C41   A    
C13   C17   A    
C3    C65   S    
C2    C68   S    
C75   H31   S    
C25   C29   A    
C72   H28   S    
C64   Br12  S    
C24   C28   A    
C74   C78   A    
C58   C62   A    
C4    C66   S    
C4    O14   A    
C50   H22   S    
C63   C67   A    
C70   C74   A    
C62   Br10  S    
C69   C73   A    
O4    V2    S    
C28   C32   A    
C15   H11   S    
C71   C75   A    
