data_mof_unit_38577.cif
_audit_creation_date              2012-12-11T15:41:07-0500
_audit_creation_method            fapswitch 2.2
_symmetry_space_group_name_H-M    P1
_symmetry_Int_Tables_number       1
_space_group_crystal_system       triclinic
_cell_length_a                    19.10854
_cell_length_b                    11.040802
_cell_length_c                    18.750772
_cell_angle_alpha                 89.945935
_cell_angle_beta                  90.735398
_cell_angle_gamma                 89.937731
_cell_volume                      3955.58800156

loop_
_atom_site_label
_atom_site_type_symbol
_atom_type_description
_atom_site_fract_x
_atom_site_fract_y
_atom_site_fract_z
_atom_type_partial_charge
C1    C     C_R   0.723797 0.965225 0.857209 0.528214
C2    C     C_R   0.276245 0.965384 0.142740 0.528267
C3    C     C_R   0.223798 0.465224 0.857208 0.528215
C4    C     C_R   0.776244 0.465383 0.142741 0.528269
C5    C     C_R   0.714313 0.512851 0.027418 0.023722
C6    C     C_R   0.285662 0.512548 0.972472 0.024141
C7    C     C_R   0.214314 0.012853 0.027418 0.023721
C8    C     C_R   0.785662 0.012550 0.972472 0.024140
C9    C     C_R   0.710255 0.507743 0.954018 0.001186
C10   C     C_R   0.289653 0.507608 0.045864 0.001385
C11   C     C_R   0.210256 0.007745 0.954018 0.001183
C12   C     C_R   0.789653 0.007609 0.045864 0.001381
C13   C     C_R   0.817749 0.397654 0.952820 -0.145187
C14   C     C_R   0.182226 0.397722 0.047159 -0.145187
C15   C     C_R   0.317749 0.897655 0.952820 -0.145186
C16   C     C_R   0.682226 0.897722 0.047160 -0.145186
C17   C     C_R   0.821079 0.399282 0.026888 -0.177126
C18   C     C_R   0.178956 0.399211 0.973094 -0.176848
C19   C     C_R   0.321079 0.899283 0.026887 -0.177126
C20   C     C_R   0.678956 0.899212 0.973095 -0.176848
C21   C     C_3   0.637659 0.537302 0.034089 0.119111
C22   C     C_3   0.362268 0.537206 0.965828 0.119121
C23   C     C_3   0.137659 0.037300 0.034090 0.119110
C24   C     C_3   0.862267 0.037205 0.965828 0.119118
C25   C     C_3   0.634956 0.545215 0.952578 0.154844
C26   C     C_3   0.364884 0.545209 0.047327 0.154883
C27   C     C_3   0.134956 0.045214 0.952579 0.154843
C28   C     C_3   0.864885 0.045208 0.047326 0.154883
C29   C     C_R   0.756339 0.432879 0.916619 -0.009377
C30   C     C_R   0.243583 0.432935 0.083348 -0.009383
C31   C     C_R   0.256339 0.932879 0.916619 -0.009378
C32   C     C_R   0.743583 0.932935 0.083348 -0.009385
C33   C     C_R   0.476634 0.170579 0.433948 0.003796
C34   C     C_R   0.486375 0.172617 0.581606 0.002706
C35   C     C_R   0.976634 0.670579 0.433948 0.003796
C36   C     C_R   0.986375 0.672617 0.581606 0.002706
C37   C     C_R   0.470054 0.278487 0.471380 0.030684
C38   C     C_R   0.473897 0.280645 0.543995 0.014744
C39   C     C_R   0.970054 0.778487 0.471380 0.030684
C40   C     C_R   0.973896 0.780645 0.543995 0.014744
C41   C     C_R   0.475399 0.062365 0.546411 -0.122244
C42   C     C_R   0.472392 0.060961 0.471881 -0.128057
C43   C     C_R   0.975399 0.562365 0.546411 -0.122245
C44   C     C_R   0.972393 0.560961 0.471881 -0.128057
C45   C     C_R   0.560977 0.180559 0.858633 0.595523
C46   C     C_R   0.439062 0.180690 0.141353 0.596557
C47   C     C_R   0.060977 0.680558 0.858633 0.595525
C48   C     C_R   0.939062 0.680690 0.141353 0.596558
C49   C     C_3   0.508694 0.394241 0.461862 -0.266880
C50   C     C_3   0.513131 0.398864 0.541997 -0.259511
C51   C     C_3   0.008694 0.894241 0.461862 -0.266880
C52   C     C_3   0.013131 0.898864 0.541998 -0.259511
C53   C     C_R   0.760291 0.429176 0.427608 -0.011760
C54   C     C_R   0.239733 0.426979 0.573026 -0.012636
C55   C     C_R   0.260291 0.929176 0.427607 -0.011760
C56   C     C_R   0.739733 0.926979 0.573026 -0.012636
C57   C     C_R   0.816607 0.383751 0.467391 0.082852
C58   C     C_R   0.180692 0.405892 0.530108 0.097128
C59   C     C_R   0.316606 0.883750 0.467391 0.082855
C60   C     C_R   0.680692 0.905893 0.530108 0.097131
C61   C     C_R   0.814046 0.376936 0.540555 -0.015476
C62   C     C_R   0.184796 0.401310 0.456881 -0.028348
C63   C     C_R   0.314046 0.876936 0.540555 -0.015477
C64   C     C_R   0.684796 0.901311 0.456881 -0.028348
C65   C     C_R   0.701673 0.476106 0.538603 -0.173185
C66   C     C_R   0.307931 0.448145 0.465847 -0.164833
C67   C     C_R   0.201673 0.976106 0.538603 -0.173185
C68   C     C_R   0.807931 0.948145 0.465847 -0.164833
C69   C     C_R   0.703731 0.480412 0.464006 -0.174305
C70   C     C_R   0.303282 0.453316 0.540166 -0.181741
C71   C     C_R   0.203731 0.980411 0.464006 -0.174305
C72   C     C_R   0.803282 0.953316 0.540166 -0.181741
C73   C     C_3   0.850922 0.262663 0.460728 0.091220
C74   C     C_3   0.131582 0.300886 0.532757 0.112164
C75   C     C_3   0.350922 0.762663 0.460728 0.091221
C76   C     C_3   0.631582 0.800886 0.532757 0.112165
C77   C     C_3   0.850164 0.256335 0.541051 -0.186295
C78   C     C_3   0.132281 0.300831 0.452372 -0.179207
C79   C     C_3   0.350164 0.756336 0.541051 -0.186297
C80   C     C_3   0.632280 0.800832 0.452372 -0.179209
C81   C     C_R   0.754218 0.414712 0.577058 0.003563
C82   C     C_R   0.249582 0.413821 0.423785 -0.004829
C83   C     C_R   0.254218 0.914712 0.577058 0.003563
C84   C     C_R   0.749582 0.913821 0.423785 -0.004829
C85   C     C_R   0.739546 0.368131 0.850749 0.559278
C86   C     C_R   0.260426 0.368149 0.149259 0.558562
C87   C     C_R   0.239546 0.868131 0.850749 0.559279
C88   C     C_R   0.760426 0.868148 0.149258 0.558563
C89   C     C_R   0.727081 0.956197 0.647097 0.540649
C90   C     C_R   0.273142 0.957140 0.353321 0.538678
C91   C     C_R   0.227081 0.456197 0.647097 0.540649
C92   C     C_R   0.773142 0.457140 0.353321 0.538677
C93   C     C_R   0.527320 0.177047 0.646709 0.552791
C94   C     C_R   0.465626 0.176587 0.358072 0.545669
C95   C     C_R   0.027320 0.677047 0.646709 0.552790
C96   C     C_R   0.965626 0.676587 0.358072 0.545669
C97   C     C_R   0.739751 0.362633 0.646656 0.541535
C98   C     C_R   0.260844 0.361928 0.353670 0.545633
C99   C     C_R   0.239751 0.862633 0.646656 0.541536
C100  C     C_R   0.760844 0.861928 0.353670 0.545633
C101  C     C_2   0.546595 0.165659 0.936311 0.317977
C102  C     C_2   0.453482 0.165830 0.063676 0.316848
C103  C     C_2   0.046594 0.665658 0.936311 0.317979
C104  C     C_2   0.953483 0.665830 0.063676 0.316850
C105  C     C_2   0.487614 0.066717 0.037632 0.188242
C106  C     C_2   0.512480 0.066673 0.962455 0.188620
C107  C     C_2   0.987614 0.566716 0.037632 0.188243
C108  C     C_2   0.012480 0.566672 0.962455 0.188622
C109  C     C_R   0.765873 0.449296 0.066265 -0.038126
C110  C     C_R   0.234157 0.449073 0.933683 -0.038046
C111  C     C_R   0.265874 0.949297 0.066265 -0.038126
C112  C     C_R   0.734157 0.949074 0.933683 -0.038046
Cr1   Cr    Cr6+3 0.769260 0.163750 0.750730 1.000145
Cr2   Cr    Cr6+3 0.230740 0.163750 0.249270 1.002662
Cr3   Cr    Cr6+3 0.269260 0.663750 0.750730 1.000144
Cr4   Cr    Cr6+3 0.730740 0.663750 0.249270 1.002661
Cr5   Cr    Cr6+3 0.612640 0.009910 0.748780 1.040819
Cr6   Cr    Cr6+3 0.387360 0.009910 0.251220 1.041123
Cr7   Cr    Cr6+3 0.112640 0.509910 0.748780 1.040818
Cr8   Cr    Cr6+3 0.887360 0.509910 0.251220 1.041122
Cr9   Cr    Cr6+3 0.614190 0.322400 0.747710 1.031209
Cr10  Cr    Cr6+3 0.385810 0.322400 0.252290 1.035690
Cr11  Cr    Cr6+3 0.114190 0.822400 0.747710 1.031210
Cr12  Cr    Cr6+3 0.885810 0.822400 0.252290 1.035692
H1    H     H_    0.976275 0.967845 0.438335 0.155053
H2    H     H_    0.067745 0.890257 0.561078 0.172774
H3    H     H_    0.476275 0.467846 0.438335 0.155051
H4    H     H_    0.567745 0.390255 0.561078 0.172774
H5    H     H_    0.560172 0.380485 0.436132 0.136431
H6    H     H_    0.482985 0.474987 0.565341 0.136879
H7    H     H_    0.060171 0.880486 0.436133 0.136431
H8    H     H_    0.982984 0.974987 0.565341 0.136880
H9    H     H_    0.656761 0.512110 0.565670 0.117052
H10   H     H_    0.358268 0.462107 0.441886 0.147192
H11   H     H_    0.156761 0.012109 0.565670 0.117053
H12   H     H_    0.858268 0.962107 0.441886 0.147193
H13   H     H_    0.660421 0.519846 0.434704 0.123531
H14   H     H_    0.349139 0.476544 0.571774 0.127768
H15   H     H_    0.160421 0.019845 0.434704 0.123531
H16   H     H_    0.849139 0.976544 0.571774 0.127768
H17   H     H_    0.817540 0.193658 0.433501 0.107810
H18   H     H_    0.155266 0.219058 0.557884 0.097752
H19   H     H_    0.317539 0.693657 0.433501 0.107809
H20   H     H_    0.655266 0.719059 0.557884 0.097750
H21   H     H_    0.815870 0.183444 0.560693 0.135666
H22   H     H_    0.153566 0.215851 0.430872 0.127714
H23   H     H_    0.315871 0.683444 0.560694 0.135667
H24   H     H_    0.653565 0.715852 0.430872 0.127714
H25   H     H_    0.902872 0.260613 0.566812 0.177662
H26   H     H_    0.082316 0.331067 0.426947 0.183003
H27   H     H_    0.402872 0.760614 0.566811 0.177660
H28   H     H_    0.582315 0.831069 0.426948 0.183003
H29   H     H_    0.860775 0.359212 0.924147 0.210099
H30   H     H_    0.139233 0.359292 0.075854 0.210282
H31   H     H_    0.360775 0.859214 0.924147 0.210100
H32   H     H_    0.639232 0.859293 0.075855 0.210283
H33   H     H_    0.867485 0.362655 0.052657 0.184323
H34   H     H_    0.132602 0.362587 0.947355 0.184697
H35   H     H_    0.367485 0.862656 0.052656 0.184323
H36   H     H_    0.632602 0.862588 0.947355 0.184697
H37   H     H_    0.606775 0.461539 0.055989 0.155917
H38   H     H_    0.393388 0.461547 0.944138 0.156284
H39   H     H_    0.106778 0.961535 0.055991 0.155915
H40   H     H_    0.893386 0.961544 0.944136 0.156282
H41   H     H_    0.627600 0.638158 0.930599 0.137549
H42   H     H_    0.372062 0.638178 0.069179 0.137437
H43   H     H_    0.127598 0.138156 0.930601 0.137552
H44   H     H_    0.872063 0.138177 0.069178 0.137441
H45   H     H_    0.475734 0.978392 0.575808 0.191196
H46   H     H_    0.469581 0.975527 0.444213 0.209256
H47   H     H_    0.975734 0.478392 0.575808 0.191196
H48   H     H_    0.969582 0.475527 0.444213 0.209254
O1    O     O_R   0.784290 0.290360 0.830540 -0.512445
O2    O     O_R   0.215710 0.290360 0.169460 -0.512504
O3    O     O_R   0.284290 0.790360 0.830540 -0.512445
O4    O     O_R   0.715710 0.790360 0.169460 -0.512505
O5    O     O_R   0.554690 0.080440 0.673480 -0.487883
O6    O     O_R   0.445310 0.080440 0.326520 -0.501092
O7    O     O_R   0.054690 0.580440 0.673480 -0.487885
O8    O     O_R   0.945310 0.580440 0.326520 -0.501093
O9    O     O_R   0.543980 0.282110 0.666770 -0.531398
O10   O     O_R   0.456020 0.282110 0.333230 -0.521182
O11   O     O_R   0.043980 0.782110 0.666770 -0.531398
O12   O     O_R   0.956020 0.782110 0.333230 -0.521181
O13   O     O_R   0.679070 0.374030 0.674430 -0.512731
O14   O     O_R   0.320930 0.374030 0.325570 -0.513063
O15   O     O_R   0.179070 0.874030 0.674430 -0.512731
O16   O     O_R   0.820930 0.874030 0.325570 -0.513062
O17   O     O_3   0.665360 0.165350 0.749070 -0.281594
O18   O     O_3   0.334640 0.165350 0.250930 -0.284465
O19   O     O_3   0.165360 0.665350 0.749070 -0.281594
O20   O     O_3   0.834640 0.665350 0.250930 -0.284465
O21   O     O_R   0.762610 0.041070 0.825230 -0.499814
O22   O     O_R   0.237390 0.041070 0.174770 -0.499997
O23   O     O_R   0.262610 0.541070 0.825230 -0.499813
O24   O     O_R   0.737390 0.541070 0.174770 -0.499996
O25   O     O_R   0.667390 0.924160 0.829970 -0.520257
O26   O     O_R   0.332610 0.924160 0.170030 -0.519758
O27   O     O_R   0.167390 0.424160 0.829970 -0.520256
O28   O     O_R   0.832610 0.424160 0.170030 -0.519757
O29   O     O_R   0.553980 0.081420 0.821780 -0.469591
O30   O     O_R   0.446020 0.081420 0.178220 -0.464969
O31   O     O_R   0.053980 0.581420 0.821780 -0.469591
O32   O     O_R   0.946020 0.581420 0.178220 -0.464968
O33   O     O_R   0.543210 0.283170 0.826740 -0.483574
O34   O     O_R   0.456790 0.283170 0.173260 -0.481180
O35   O     O_R   0.043210 0.783170 0.826740 -0.483575
O36   O     O_R   0.956790 0.783170 0.173260 -0.481180
O37   O     O_R   0.678350 0.375000 0.822720 -0.457891
O38   O     O_R   0.321650 0.375000 0.177280 -0.458527
O39   O     O_R   0.178350 0.875000 0.822720 -0.457891
O40   O     O_R   0.821650 0.875000 0.177280 -0.458525
O41   O     O_R   0.785060 0.289300 0.670580 -0.528872
O42   O     O_R   0.214940 0.289300 0.329420 -0.526878
O43   O     O_R   0.285060 0.789300 0.670580 -0.528872
O44   O     O_R   0.714940 0.789300 0.329420 -0.526878
O45   O     O_R   0.763330 0.040090 0.676940 -0.510388
O46   O     O_R   0.236670 0.040090 0.323060 -0.507381
O47   O     O_R   0.263330 0.540090 0.676940 -0.510388
O48   O     O_R   0.736670 0.540090 0.323060 -0.507381
O49   O     O_R   0.668160 0.923110 0.670000 -0.509774
O50   O     O_R   0.331840 0.923110 0.330000 -0.514471
O51   O     O_R   0.168160 0.423110 0.670000 -0.509778
O52   O     O_R   0.831840 0.423110 0.330000 -0.514475
O53   O     O_3   0.500989 0.967340 0.080741 -0.732009
H49   H     H_    0.526644 0.906002 0.052935 0.323762
O54   O     O_3   0.499076 0.967393 0.919431 -0.732637
H50   H     H_    0.473297 0.906246 0.947257 0.323504
O55   O     O_3   0.000988 0.467339 0.080740 -0.732010
H51   H     H_    0.026643 0.406001 0.052935 0.323763
O56   O     O_3   0.999077 0.467391 0.919431 -0.732638
H52   H     H_    0.973297 0.406245 0.947256 0.323505
O57   O     O_3   0.919234 0.270417 0.434942 -0.709416
H53   H     H_    0.916155 0.251739 0.383279 0.333143
O58   O     O_3   0.065987 0.332488 0.558958 -0.701180
H54   H     H_    0.063886 0.299821 0.608178 0.329764
O59   O     O_3   0.419234 0.770417 0.434942 -0.709417
H55   H     H_    0.416155 0.751732 0.383279 0.333142
O60   O     O_3   0.565986 0.832489 0.558959 -0.701179
H56   H     H_    0.563885 0.799817 0.608177 0.329762
O61   O     O_3   0.429502 0.254011 0.016303 -0.546183
C113  C     C_3   0.367865 0.214021 0.979930 -0.014769
H57   H     H_    0.325058 0.276478 0.993776 0.171187
H58   H     H_    0.349625 0.123463 0.996415 0.118808
C114  C     C_3   0.377956 0.214271 0.898399 -0.266996
H59   H     H_    0.406051 0.297023 0.881669 0.180423
H60   H     H_    0.410791 0.136658 0.882774 0.195006
C115  C     C_3   0.309372 0.203923 0.855711 -0.457561
H61   H     H_    0.262848 0.218338 0.889318 0.150068
H62   H     H_    0.305105 0.113036 0.830881 0.148869
H63   H     H_    0.308664 0.271301 0.811717 0.156999
O62   O     O_3   0.570419 0.253887 0.983556 -0.545924
C116  C     C_3   0.632227 0.214144 0.019829 -0.014860
H64   H     H_    0.674755 0.277111 0.006090 0.171705
H65   H     H_    0.650863 0.123910 0.003163 0.118571
C117  C     C_3   0.622132 0.213692 0.101345 -0.267004
H66   H     H_    0.593490 0.295934 0.118108 0.181381
H67   H     H_    0.589803 0.135431 0.116850 0.195453
C118  C     C_3   0.690776 0.204206 0.144044 -0.457241
H68   H     H_    0.737244 0.218254 0.110313 0.149757
H69   H     H_    0.695296 0.113699 0.169442 0.149113
H70   H     H_    0.691351 0.272232 0.187610 0.157105
O63   O     O_3   0.929502 0.754010 0.016303 -0.546188
C119  C     C_3   0.867864 0.714021 0.979932 -0.014770
H71   H     H_    0.825059 0.776482 0.993776 0.171190
H72   H     H_    0.849622 0.623466 0.996419 0.118807
C120  C     C_3   0.877956 0.714264 0.898401 -0.267003
H73   H     H_    0.906055 0.797011 0.881670 0.180430
H74   H     H_    0.910785 0.636645 0.882778 0.195005
C121  C     C_3   0.809371 0.703925 0.855712 -0.457563
H75   H     H_    0.762847 0.718335 0.889321 0.150068
H76   H     H_    0.805103 0.613043 0.830877 0.148869
H77   H     H_    0.808663 0.771312 0.811723 0.157001
O64   O     O_3   0.070419 0.753886 0.983556 -0.545929
C122  C     C_3   0.132227 0.714145 0.019827 -0.014861
H78   H     H_    0.174754 0.777116 0.006090 0.171708
H79   H     H_    0.150867 0.623914 0.003157 0.118570
C123  C     C_3   0.122133 0.713683 0.101343 -0.267013
H80   H     H_    0.093485 0.795918 0.118108 0.181390
H81   H     H_    0.089810 0.635414 0.116845 0.195451
C124  C     C_3   0.190778 0.704209 0.144042 -0.457242
H82   H     H_    0.237245 0.718249 0.110309 0.149757
H83   H     H_    0.195299 0.613709 0.169447 0.149113
H84   H     H_    0.191352 0.772246 0.187602 0.157107
O65   O     O_3   0.123863 0.148384 0.066105 -0.741732
H85   H     H_    0.115626 0.130836 0.117204 0.341032
O66   O     O_3   0.875845 0.148268 0.933642 -0.741528
H86   H     H_    0.884362 0.130630 0.882620 0.340599
O67   O     O_3   0.623864 0.648386 0.066103 -0.741734
H87   H     H_    0.615626 0.630839 0.117203 0.341031
O68   O     O_3   0.375843 0.648271 0.933643 -0.741530
H88   H     H_    0.384361 0.630633 0.882621 0.340599
O69   O     O_3   0.590549 0.459811 0.921463 -0.637610
H89   H     H_    0.542479 0.492312 0.926940 0.336596
O70   O     O_3   0.409420 0.459881 0.078587 -0.637729
H90   H     H_    0.457438 0.492444 0.073100 0.336544
O71   O     O_3   0.090549 0.959809 0.921464 -0.637612
H91   H     H_    0.042479 0.992307 0.926944 0.336599
O72   O     O_3   0.909420 0.959880 0.078586 -0.637729
H92   H     H_    0.957439 0.992438 0.073095 0.336546

loop_
_geom_bond_atom_site_label_1
_geom_bond_atom_site_label_2
_ccdc_geom_bond_type
Cr2   O18   S    
C55   C59   A    
Cr10  O34   S    
O68   H88   S    
Cr4   O44   S    
C53   C69   A    
C99   O15   A    
C124  H84   S    
C97   O13   A    
C100  O16   A    
C89   O45   A    
C96   O12   A    
C117  C118  S    
O64   C122  S    
C94   O6    A    
C64   C84   A    
Cr11  O11   S    
C42   H46   S    
C93   O9    A    
C122  H78   S    
C56   C72   A    
C113  H58   S    
C28   O72   S    
Cr3   O19   S    
C98   O42   A    
C24   O66   S    
C114  H59   S    
Cr12  O36   S    
C82   C98   S    
C24   H40   S    
Cr7   O7    S    
C115  H62   S    
C2    C111  S    
C113  C114  S    
C31   C87   S    
C51   C52   S    
C84   C100  S    
C18   C110  A    
C92   O52   A    
C51   H7    S    
C41   H45   S    
C60   C76   S    
C3    O23   A    
C17   C109  A    
C86   O2    A    
C1    O21   A    
C43   C44   A    
C44   H48   S    
O55   H51   S    
C66   C82   A    
C10   C30   A    
O54   H50   S    
C54   C70   A    
C11   C27   S    
C68   C72   A    
C48   O36   A    
Cr7   O51   S    
Cr3   O43   S    
C96   O8    A    
C75   H19   S    
C76   H20   S    
C70   H14   S    
C107  O55   S    
C121  H76   S    
C101  O62   S    
C4    O24   A    
C100  O44   A    
C93   O5    A    
Cr2   O22   S    
C25   O69   S    
C103  O64   S    
C118  H69   S    
C85   O37   A    
C57   C61   A    
C19   C111  A    
C59   C63   A    
C60   C64   A    
C95   O11   A    
C66   C70   A    
C78   H22   S    
Cr2   O2    S    
C5    C21   S    
C88   O40   A    
C114  C115  S    
C73   C77   S    
C106  O54   S    
C75   C79   S    
C104  C107  D    
C55   C71   A    
O62   C116  S    
C39   C51   S    
C4    C109  S    
C67   C83   A    
Cr6   O50   S    
C120  H74   S    
Cr2   O42   S    
C33   C94   S    
C35   C96   S    
C20   H36   S    
C76   O60   S    
C33   C42   A    
Cr12  O12   S    
C55   C90   S    
C1    C112  S    
Cr9   O17   S    
C116  H64   S    
C120  C121  S    
Cr10  O14   S    
C3    C110  S    
C32   C88   S    
O61   C113  S    
C57   C73   S    
C16   C32   A    
Cr3   O3    S    
C66   H10   S    
C61   C77   S    
C119  H71   S    
C117  H67   S    
C107  C108  S    
Cr10  O38   S    
C105  O53   S    
Cr4   O48   S    
C17   H33   S    
O57   H53   S    
C15   H31   S    
Cr8   O52   S    
O59   H55   S    
C14   H30   S    
Cr6   O30   S    
Cr2   O46   S    
C52   H8    S    
C122  C123  S    
C39   C40   A    
Cr12  O16   S    
C43   H47   S    
C5    C9    A    
O69   H89   S    
C80   H24   S    
C8    C12   A    
O67   H87   S    
C22   O68   S    
Cr5   O17   S    
Cr6   O6    S    
C56   C89   S    
C22   C26   S    
Cr8   O32   S    
Cr6   O26   S    
C58   C74   S    
C79   H27   S    
C101  C106  D    
C46   O34   A    
C21   C25   S    
C87   O39   A    
C62   C78   S    
C1    O25   A    
C76   C80   S    
C116  C117  S    
C120  H73   S    
C15   C31   A    
C124  H83   S    
C87   O3    A    
C48   O32   A    
C88   O4    A    
C13   C17   A    
C61   C81   A    
C36   C95   S    
C52   H2    S    
C119  C120  S    
C7    C23   S    
C8    C24   S    
Cr4   O20   S    
C90   O46   A    
Cr4   O24   S    
C4    O28   A    
C49   C50   S    
C123  H80   S    
C83   C99   S    
C74   O58   S    
C58   C62   A    
C77   H21   S    
C41   C42   A    
O60   H56   S    
Cr9   O33   S    
C9    C25   S    
O63   C119  S    
C73   H17   S    
C15   C19   A    
C12   C28   S    
Cr7   O27   S    
C13   C29   A    
C8    C112  A    
C22   H38   S    
C6    C22   S    
C102  C105  D    
C27   O71   S    
C20   C112  A    
Cr5   O5    S    
C123  C124  S    
C16   H32   S    
O58   H54   S    
C73   O57   S    
C62   C82   A    
C97   O41   A    
C64   C80   S    
C121  H77   S    
C34   C41   A    
Cr10  O18   S    
C47   C103  S    
C68   C84   A    
C24   C28   S    
Cr7   O31   S    
C77   H25   S    
O70   H90   S    
C53   C57   A    
C79   H23   S    
Cr12  O40   S    
C25   H41   S    
C33   C37   A    
C56   C60   A    
C63   C83   A    
C2    O22   A    
C34   C38   A    
C35   C39   A    
O72   H92   S    
O65   H85   S    
C18   H34   S    
C37   C49   S    
C65   C81   A    
O66   H86   S    
C113  H57   S    
C47   O31   A    
C13   H29   S    
C45   C101  S    
C114  H60   S    
C75   O59   S    
C50   H4    S    
Cr11  O19   S    
Cr12  O20   S    
C115  H61   S    
Cr9   O9    S    
Cr3   O23   S    
C45   O33   A    
Cr1   O21   S    
C86   O38   A    
C6    C10   A    
Cr1   O17   S    
C105  C106  S    
C19   H35   S    
Cr8   O8    S    
C54   C91   S    
C98   O14   A    
C89   O49   A    
Cr6   O18   S    
C5    C109  A    
C65   C69   A    
Cr8   O28   S    
C7    C111  A    
C67   C71   A    
C46   O30   A    
C119  H72   S    
C74   C78   S    
C121  H75   S    
C36   C43   A    
C94   O10   A    
O71   H91   S    
C14   C18   A    
Cr5   O49   S    
C34   C93   S    
Cr1   O41   S    
C118  H70   S    
C63   C79   S    
C7    C11   A    
C46   C102  S    
C37   C38   A    
C99   O43   A    
C122  H79   S    
Cr7   O19   S    
C90   O50   A    
Cr8   O20   S    
C48   C104  S    
C92   O48   A    
C36   C40   A    
C50   H6    S    
Cr11  O39   S    
C85   O1    A    
C103  C108  D    
C104  O63   S    
C23   C27   S    
C30   C86   S    
C115  H63   S    
C16   C20   A    
C10   C26   S    
C74   H18   S    
C11   C31   A    
C12   C32   A    
C91   O47   A    
C6    C110  A    
Cr3   O47   S    
C14   C30   A    
Cr5   O29   S    
Cr1   O45   S    
C23   H39   S    
C69   H13   S    
C49   H3    S    
C21   H37   S    
Cr4   O4    S    
C51   H1    S    
C68   H12   S    
C116  H65   S    
C71   H15   S    
C124  H82   S    
C40   C52   S    
C49   H5    S    
C67   H11   S    
C3    O27   A    
C72   H16   S    
C117  H66   S    
C53   C92   S    
O53   H49   S    
Cr11  O35   S    
C102  O61   S    
C35   C44   A    
C23   O65   S    
C95   O7    A    
Cr9   O37   S    
C123  H81   S    
C26   O70   S    
C118  H68   S    
C59   C75   S    
Cr5   O25   S    
C78   H26   S    
Cr1   O1    S    
C54   C58   A    
C80   H28   S    
C26   H42   S    
C2    O26   A    
C29   C85   S    
C38   C50   S    
C9    C29   A    
C28   H44   S    
C47   O35   A    
C81   C97   S    
Cr11  O15   S    
Cr9   O13   S    
Cr10  O10   S    
C21   O67   S    
C45   O29   A    
O56   H52   S    
C91   O51   A    
C65   H9    S    
C27   H43   S    
C108  O56   S    
