data_mof_unit_14069.cif
_audit_creation_date              2012-12-11T16:17:40-0500
_audit_creation_method            fapswitch 2.2
_symmetry_space_group_name_H-M    P1
_symmetry_Int_Tables_number       1
_space_group_crystal_system       triclinic
_cell_length_a                    6.925384
_cell_length_b                    28.798672
_cell_length_c                    32.052516
_cell_angle_alpha                 101.176917
_cell_angle_beta                  89.67145
_cell_angle_gamma                 90.424214
_cell_volume                      6271.1347671

loop_
_atom_site_label
_atom_site_type_symbol
_atom_type_description
_atom_site_fract_x
_atom_site_fract_y
_atom_site_fract_z
_atom_type_partial_charge
O1    O     O_R   0.494350 0.453160 0.452490 -0.537272
O2    O     O_R   0.820990 0.455850 0.538220 -0.543792
O3    O     O_R   0.994300 0.546840 0.547510 -0.542737
C1    C     C_R   0.651630 0.445790 0.551717 0.692429
O4    O     O_R   0.823860 0.447580 0.452250 -0.543148
O5    O     O_R   0.997190 0.538510 0.460920 -0.539576
C2    C     C_R   0.654890 0.434561 0.436431 0.713745
O6    O     O_R   0.491450 0.461490 0.539080 -0.542569
O7    O     O_3   0.661790 0.529840 0.502950 -0.356284
V1    V     V_3+5 0.935470 0.494460 0.499450 1.430058
O8    O     O_R   0.327090 0.544150 0.461780 -0.496796
C3    C     C_R   0.158978 0.554277 0.448166 0.770824
O9    O     O_R   0.324210 0.552420 0.547750 -0.544757
C4    C     C_R   0.155142 0.565442 0.563567 0.679463
V2    V     V_3+5 0.435840 0.505540 0.500550 1.478801
O10   O     O_3   0.159650 0.470160 0.497050 -0.377701
C5    C     C_R   0.964003 0.619476 0.619937 -0.151831
H1    H     H_    0.831166 0.603575 0.606104 0.119947
C6    C     C_R   0.952380 0.655387 0.656225 -0.128046
H2    H     H_    0.811097 0.665985 0.669108 0.133267
C7    C     C_R   0.120389 0.677144 0.675634 0.019071
C8    C     C_R   0.300537 0.662003 0.657561 -0.124414
H3    H     H_    0.433128 0.677876 0.671538 0.139120
C9    C     C_R   0.312211 0.626037 0.621208 -0.153096
H4    H     H_    0.453360 0.615275 0.608332 0.118263
C10   C     C_R   0.144027 0.604202 0.601897 -0.048087
N1    N     N_R   0.269246 0.736204 0.733490 -0.272727
N2    N     N_R   0.257401 0.770151 0.768224 -0.278015
C11   C     C_R   0.083206 0.784702 0.785593 0.517362
N3    N     N_R   0.921359 0.763702 0.766570 -0.272765
N4    N     N_R   0.933204 0.729755 0.731836 -0.277982
C12   C     C_R   0.107399 0.715204 0.714467 0.517659
C13   C     C_R   0.890061 0.837906 0.842495 -0.124030
H5    H     H_    0.757473 0.822028 0.828520 0.138943
C14   C     C_R   0.878378 0.873878 0.878842 -0.153508
H6    H     H_    0.737226 0.884641 0.891716 0.118792
C15   C     C_R   0.046556 0.895721 0.898150 -0.052532
C16   C     C_R   0.226584 0.880446 0.880112 -0.152581
H7    H     H_    0.359416 0.896354 0.893942 0.120645
C17   C     C_R   0.238215 0.844529 0.843830 -0.127577
H8    H     H_    0.379501 0.833931 0.830948 0.133144
C18   C     C_R   0.070211 0.822765 0.824424 0.019246
C19   C     C_R   0.180661 0.660374 0.284307 0.590062
N5    N     N_R   0.115333 0.676607 0.325074 -0.542051
C20   C     C_R   0.039177 0.721243 0.336477 0.581623
C21   C     C_R   0.025477 0.751084 0.306547 -0.033142
C22   C     C_R   0.094044 0.734989 0.264856 -0.015891
C23   C     C_R   0.173031 0.689352 0.253587 -0.035565
C24   C     C_R   0.945903 0.796657 0.317372 -0.139016
C25   C     C_R   0.934780 0.825777 0.287253 -0.138946
C26   C     C_R   0.003655 0.810161 0.245569 -0.028463
C27   C     C_R   0.083757 0.764616 0.234369 -0.013857
C28   C     C_R   0.153802 0.748648 0.192766 -0.029478
C29   C     C_R   0.232766 0.703028 0.181902 -0.138932
C30   C     C_R   0.241890 0.673725 0.211894 -0.136837
C31   C     C_R   0.995383 0.839054 0.214782 0.574086
N6    N     N_R   0.064564 0.823120 0.174342 -0.558351
C32   C     C_R   0.142718 0.778750 0.163022 0.574161
O11   O     O_2   0.250991 0.616104 0.273275 -0.515002
O12   O     O_2   0.978876 0.737054 0.376790 -0.520297
H9    H     H_    0.891742 0.810000 0.349166 0.173813
H10   H     H_    0.872436 0.860620 0.296806 0.173299
O13   O     O_2   0.920633 0.882911 0.225373 -0.520405
O14   O     O_2   0.208123 0.763581 0.123008 -0.519637
H11   H     H_    0.287683 0.689760 0.150158 0.173767
H12   H     H_    0.303563 0.638814 0.202293 0.174819
C33   C     C_R   0.226496 0.870176 0.127241 -0.084300
H13   H     H_    0.365484 0.860305 0.138005 0.121045
C34   C     C_R   0.218681 0.899888 0.097477 -0.194912
H14   H     H_    0.352980 0.912195 0.085844 0.130410
C35   C     C_R   0.039917 0.913585 0.083063 -0.059384
C36   C     C_R   0.869335 0.896634 0.099260 -0.194549
H15   H     H_    0.729197 0.906385 0.089019 0.128960
C37   C     C_R   0.877510 0.866990 0.129103 -0.081332
H16   H     H_    0.744641 0.854354 0.141100 0.123426
C38   C     C_R   0.056094 0.853538 0.143371 0.376958
C39   C     C_R   0.960627 0.634396 0.377145 -0.060131
H17   H     H_    0.821233 0.647673 0.369999 0.161354
C40   C     C_R   0.972310 0.605063 0.407158 -0.246871
H18   H     H_    0.841451 0.597022 0.422960 0.229342
C41   C     C_R   0.150381 0.586403 0.416782 -0.202462
C42   C     C_R   0.317510 0.598384 0.395628 0.584417
C43   C     C_R   0.305680 0.628297 0.366057 -0.156394
H19   H     H_    0.436062 0.637243 0.350463 0.152487
C44   C     C_R   0.127260 0.646398 0.356300 0.274680
C45   C     C_R   0.432385 0.209088 0.824524 0.580394
N7    N     N_R   0.576326 0.176647 0.825527 -0.554440
C46   C     C_R   0.727893 0.172853 0.797157 0.582783
C47   C     C_R   0.739624 0.202387 0.766913 -0.026923
C48   C     C_R   0.591433 0.235157 0.765239 -0.020577
C49   C     C_R   0.435801 0.238431 0.794069 -0.029782
C50   C     C_R   0.895170 0.199671 0.738147 -0.143644
C51   C     C_R   0.902478 0.228812 0.707983 -0.145204
C52   C     C_R   0.754485 0.261444 0.705817 -0.029609
C53   C     C_R   0.598881 0.264725 0.734654 -0.020547
C54   C     C_R   0.450719 0.297505 0.732987 -0.027021
C55   C     C_R   0.295166 0.300218 0.761751 -0.143520
C56   C     C_R   0.287815 0.271064 0.791903 -0.144896
C57   C     C_R   0.757877 0.290779 0.675355 0.579932
N8    N     N_R   0.614003 0.323241 0.674371 -0.554364
C58   C     C_R   0.462486 0.327051 0.702754 0.582803
O15   O     O_2   0.287178 0.213498 0.853240 -0.526157
O16   O     O_2   0.865804 0.140121 0.797654 -0.529334
H20   H     H_    0.012069 0.175060 0.738856 0.170061
H21   H     H_    0.024812 0.225725 0.686438 0.171285
O17   O     O_2   0.903002 0.286343 0.646618 -0.526548
O18   O     O_2   0.324658 0.359809 0.702279 -0.529354
H22   H     H_    0.178288 0.324835 0.761046 0.170114
C59   C     C_R   0.788745 0.381539 0.640024 -0.085568
H23   H     H_    0.910352 0.380531 0.660910 0.163340
C60   C     C_R   0.798765 0.410753 0.609878 -0.203082
H24   H     H_    0.928687 0.431458 0.608064 0.133904
C61   C     C_R   0.641408 0.414024 0.583069 -0.053180
C62   C     C_R   0.474600 0.386936 0.586771 -0.207624
H25   H     H_    0.351373 0.388512 0.566445 0.135783
C63   C     C_R   0.466516 0.356782 0.616215 -0.084946
H26   H     H_    0.337996 0.335536 0.617796 0.159083
C64   C     C_R   0.623077 0.353930 0.643397 0.354146
C65   C     C_R   0.401678 0.118339 0.859881 -0.084876
H27   H     H_    0.280084 0.119321 0.838986 0.163264
C66   C     C_R   0.391695 0.089139 0.890040 -0.202781
H28   H     H_    0.261821 0.068417 0.891852 0.134517
C67   C     C_R   0.549033 0.085905 0.916864 -0.057069
C68   C     C_R   0.715783 0.113014 0.913165 -0.205920
H29   H     H_    0.838987 0.111469 0.933504 0.137442
C69   C     C_R   0.723831 0.143152 0.883707 -0.084325
H30   H     H_    0.852307 0.164415 0.882129 0.159285
C70   C     C_R   0.567290 0.145969 0.856510 0.353980
C71   C     C_R   0.463750 0.380474 0.380027 -0.144408
H31   H     H_    0.331041 0.396324 0.393844 0.119865
C72   C     C_R   0.452168 0.344567 0.343728 -0.124790
H32   H     H_    0.311024 0.333913 0.330813 0.133575
C73   C     C_R   0.620073 0.322883 0.324349 0.018388
C74   C     C_R   0.800041 0.338090 0.342457 -0.121387
H33   H     H_    0.932541 0.322275 0.328505 0.138792
C75   C     C_R   0.811671 0.374046 0.378815 -0.150582
H34   H     H_    0.952709 0.384857 0.391716 0.117783
C76   C     C_R   0.643621 0.395810 0.398099 -0.053656
N9    N     N_R   0.769034 0.263926 0.266520 -0.272116
N10   N     N_R   0.757353 0.229981 0.231777 -0.277321
C77   C     C_R   0.583362 0.215340 0.214368 0.517868
N11   N     N_R   0.421555 0.236246 0.233356 -0.272176
N12   N     N_R   0.433237 0.270191 0.268099 -0.276854
C78   C     C_R   0.607227 0.284831 0.285509 0.518839
C79   C     C_R   0.390535 0.162042 0.157448 -0.123595
H35   H     H_    0.258031 0.177847 0.171408 0.138992
C80   C     C_R   0.378898 0.126064 0.121108 -0.153702
H36   H     H_    0.237851 0.115226 0.108228 0.118796
C81   C     C_R   0.546951 0.104306 0.101819 -0.052433
C82   C     C_R   0.726834 0.119679 0.119863 -0.151953
H37   H     H_    0.859547 0.103838 0.106039 0.120769
C83   C     C_R   0.738423 0.155608 0.156145 -0.126693
H38   H     H_    0.879575 0.166287 0.169042 0.133390
C84   C     C_R   0.570513 0.177278 0.175535 0.019262
O19   O     O_R   0.699050 0.038480 0.960880 -0.537638
O20   O     O_R   0.366680 0.052470 0.047720 -0.541016
O21   O     O_R   0.193410 0.961530 0.039110 -0.538345
C85   C     C_R   0.535668 0.065515 0.063518 0.693680
O22   O     O_R   0.369510 0.044100 0.961740 -0.540256
O23   O     O_R   0.196260 0.953110 0.952520 -0.539022
C86   C     C_R   0.538851 0.054160 0.948233 0.708468
O24   O     O_R   0.696210 0.046900 0.047470 -0.539088
O25   O     O_3   0.528780 0.970170 0.997070 -0.367480
V3    V     V_3+5 0.255080 0.005530 0.000540 1.409212
O26   O     O_R   0.866350 0.947520 0.952280 -0.540848
C87   C     C_R   0.035425 0.934496 0.936468 0.694871
O27   O     O_R   0.863520 0.955880 0.038260 -0.541135
C88   C     C_R   0.031746 0.945689 0.051765 0.710257
V4    V     V_3+5 0.754720 0.994440 0.999470 1.408632
O28   O     O_3   0.030880 0.029830 0.002930 -0.367016
F1    F     F_    0.492202 0.580540 0.402726 -0.701642
H39   H     H_    0.165465 0.274148 0.813445 0.171431

loop_
_geom_bond_atom_site_label_1
_geom_bond_atom_site_label_2
_ccdc_geom_bond_type
C58   O18   S    
C23   C30   A    
N7    C46   A    
C20   O12   S    
C51   C52   A    
C11   C18   S    
C53   C54   A    
V4    O28   S    
V3    O28   S    
C80   H36   S    
C1    O6    A    
C30   H12   S    
C62   H25   S    
N6    C32   A    
C67   C68   A    
O27   V4    S    
C29   H11   S    
C39   H17   S    
O19   C86   A    
C21   C24   A    
C15   C16   A    
C37   C38   A    
C5    C10   A    
O23   V3    S    
N6    C38   S    
C7    C8    A    
N2    C11   A    
C80   C81   A    
C9    C10   A    
C61   C62   A    
C45   C49   A    
C59   C60   A    
O5    C3    A    
N3    N4    A    
C67   C86   S    
C77   C84   S    
N12   C78   A    
C55   C56   A    
C31   N6    A    
C26   C31   A    
C34   C35   A    
N8    C58   A    
C15   C87   S    
C51   H21   S    
C21   C22   A    
C55   H22   S    
O8    V2    S    
C71   C76   A    
C22   C23   A    
C81   C85   S    
C63   C64   A    
C3    C41   S    
O22   C86   A    
O1    V2    S    
O23   C87   A    
C19   C23   A    
C19   O11   S    
C56   H39   S    
C65   C70   A    
C17   C18   A    
C39   C44   A    
O1    C2    A    
C54   C58   A    
C32   O14   S    
C52   C53   A    
O21   C88   A    
N7    C70   S    
C79   C80   A    
C59   C64   A    
C79   H35   S    
C65   C66   A    
O26   V4    S    
C7    C12   S    
C24   H9    S    
C37   H16   S    
C26   C27   A    
C1    C61   S    
C48   C53   A    
C39   C40   A    
C9    H4    S    
C36   C37   A    
C65   H27   S    
O27   C88   A    
O4    C2    A    
C85   O24   A    
C45   N7    A    
C75   H34   S    
C74   C75   A    
C25   C26   A    
C20   C21   A    
N5    C44   S    
C41   C42   A    
C33   H13   S    
C33   C34   A    
C14   H6    S    
O2    C1    A    
C19   N5    A    
C11   N3    A    
N9    C78   A    
O19   V4    S    
C43   H19   S    
N9    N10   A    
C54   C55   A    
C5    H1    S    
C31   O13   S    
C60   C61   A    
C4    C10   S    
C47   C50   A    
O21   V3    S    
C66   H28   S    
C22   C27   A    
O3    C4    A    
C79   C84   A    
C75   C76   A    
C17   H8    S    
C43   C44   A    
C83   C84   A    
C42   C43   A    
O6    V2    S    
C35   C88   S    
C77   N11   A    
C73   C74   A    
C25   H10   S    
C8    C9    A    
N8    C64   S    
C13   C18   A    
C5    C6    A    
C72   H32   S    
C45   O15   S    
C46   O16   S    
C27   C28   A    
C68   C69   A    
C71   H31   S    
O7    V1    S    
C57   O17   S    
C29   C30   A    
C73   C78   S    
C69   C70   A    
C60   H24   S    
C14   C15   A    
N1    C12   A    
O22   V3    S    
N4    C12   A    
N5    C20   A    
C36   H15   S    
C72   C73   A    
O5    V1    S    
C2    C76   S    
C62   C63   A    
C28   C32   A    
C28   C29   A    
C74   H33   S    
C33   C38   A    
C40   C41   A    
C82   H37   S    
C57   N8    A    
C6    H2    S    
O9    V2    S    
O7    V2    S    
C35   C36   A    
O3    V1    S    
V1    O10   S    
C81   C82   A    
C16   C17   A    
C48   C49   A    
C16   H7    S    
O24   V4    S    
C52   C57   A    
C69   H30   S    
N10   C77   A    
O20   C85   A    
C50   C51   A    
C13   C14   A    
C13   H5    S    
C63   H26   S    
C42   F1    S    
C82   C83   A    
C49   C56   A    
C34   H14   S    
O25   V4    S    
C66   C67   A    
O25   V3    S    
C50   H20   S    
C40   H18   S    
O26   C87   A    
O4    V1    S    
C46   C47   A    
O20   V3    S    
C24   C25   A    
C59   H23   S    
N1    N2    A    
N11   N12   A    
C8    H3    S    
C83   H38   S    
C71   C72   A    
C47   C48   A    
O9    C4    A    
V2    O10   S    
O8    C3    A    
C68   H29   S    
C6    C7    A    
O2    V1    S    
