data_mof_unit_30050.cif
_audit_creation_date              2013-03-05T16:37:25-0500
_audit_creation_method            fapswitch 2.2
_symmetry_space_group_name_H-M    P1
_symmetry_Int_Tables_number       1
_space_group_crystal_system       triclinic
_cell_length_a                    16.018618
_cell_length_b                    14.751765
_cell_length_c                    10.932979
_cell_angle_alpha                 89.693945
_cell_angle_beta                  90.045283
_cell_angle_gamma                 89.91373
_cell_volume                      2583.45390633

loop_
_atom_site_label
_atom_site_type_symbol
_atom_site_description
_atom_site_fract_x
_atom_site_fract_y
_atom_site_fract_z
_atom_type_partial_charge
O1    O     O_R   0.380310 0.575320 0.500020 -0.561350
O2    O     O_R   0.619690 0.424680 0.499980 -0.559916
O3    O     O_R   0.619690 0.575320 0.499980 -0.594364
O4    O     O_R   0.380310 0.424680 0.500020 -0.597620
C1    C     C_1   0.252214 0.500187 0.500730 -0.110708
C2    C     C_1   0.747782 0.499800 0.498132 -0.110354
C3    C     C_R   0.340988 0.500063 0.500643 0.891705
C4    C     C_R   0.659017 0.499932 0.500180 0.894442
O5    O     O_R   0.499990 0.575350 0.319650 -0.588692
O6    O     O_R   0.500010 0.424650 0.680350 -0.586053
O7    O     O_R   0.500010 0.575350 0.680350 -0.591693
O8    O     O_R   0.499990 0.424650 0.319650 -0.587582
C5    C     C_R   0.499885 0.500299 0.262051 0.902216
C6    C     C_R   0.499471 0.499851 0.739031 0.864183
Cu1   Cu    Cu3+1 0.500000 0.589220 0.500000 0.993196
Cu2   Cu    Cu3+1 0.500000 0.410780 0.500000 0.993702
C7    C     C_R   0.912581 0.499850 0.493322 -0.047963
C8    C     C_R   0.087387 0.500090 0.500797 -0.047662
C9    C     C_1   0.499980 0.802515 0.498855 0.044167
C10   C     C_1   0.500047 0.197469 0.498677 0.037453
C11   C     C_1   0.822612 0.499761 0.495876 -0.082025
C12   C     C_1   0.177369 0.500199 0.500749 -0.082611
C13   C     C_R   0.580951 0.646440 0.107782 -0.027452
C14   C     C_R   0.510808 0.328001 0.902356 -0.046608
C15   C     C_R   0.482014 0.671747 0.897462 -0.043168
C16   C     C_R   0.413218 0.358222 0.112383 -0.027917
C17   C     C_R   0.578680 0.733406 0.050690 0.094200
C18   C     C_R   0.470190 0.253406 0.960793 0.102089
C19   C     C_R   0.520574 0.748340 0.953264 0.100706
C20   C     C_R   0.413630 0.270783 0.058591 0.097674
C21   C     C_R   0.502584 0.583421 0.940760 0.018175
C22   C     C_R   0.466877 0.425710 0.063796 0.010367
C23   C     C_R   0.529006 0.576729 0.061586 0.011244
C24   C     C_R   0.492854 0.417286 0.943106 0.012922
C25   C     C_R   0.498385 0.499990 0.874037 -0.087744
C26   C     C_R   0.498789 0.501004 0.128815 -0.076359
C27   C     C_R   0.499980 0.902893 0.497979 -0.162537
C28   C     C_R   0.499797 0.097039 0.497522 -0.159323
C29   C     C_R   0.574822 0.951499 0.475645 -0.009471
C30   C     C_R   0.424223 0.048376 0.514317 -0.021808
C31   C     C_R   0.425346 0.951495 0.521610 -0.012801
C32   C     C_R   0.575414 0.048396 0.481688 -0.016925
N1    N     N_1   0.500000 0.276710 0.500000 -0.169926
N2    N     N_1   0.500000 0.723290 0.500000 -0.171771
C33   C     C_R   0.955592 0.583363 0.495618 -0.024434
C34   C     C_R   0.044396 0.416587 0.497396 -0.027610
C35   C     C_R   0.043944 0.583486 0.497143 -0.026425
C36   C     C_R   0.956042 0.416452 0.496326 -0.031819
C37   C     C_2   0.092396 0.669583 0.489000 0.502371
H1    H     H_    0.151436 0.676062 0.536903 0.076200
O9    O     O_2   0.068945 0.732313 0.424201 -0.472421
C38   C     C_2   0.907626 0.330326 0.504505 0.507337
H2    H     H_    0.848273 0.324066 0.457386 0.073096
O10   O     O_2   0.931480 0.267313 0.568480 -0.464005
C39   C     C_2   0.906669 0.669315 0.502506 0.484934
H3    H     H_    0.847631 0.675608 0.454385 0.063262
O11   O     O_2   0.929722 0.732095 0.566484 -0.475271
C40   C     C_2   0.093298 0.330694 0.488963 0.490373
H4    H     H_    0.152565 0.324038 0.536357 0.063036
O12   O     O_2   0.069945 0.268366 0.424414 -0.471440
C41   C     C_3   0.354603 0.197408 0.105083 -0.408381
C42   C     C_3   0.389412 0.150182 0.218728 -0.793624
H5    H     H_    0.452521 0.122009 0.201125 0.243615
H6    H     H_    0.393599 0.198419 0.295702 0.239824
H7    H     H_    0.347416 0.093729 0.245583 0.277979
H8    H     H_    0.292099 0.226202 0.125254 0.212203
H9    H     H_    0.341755 0.145858 0.034364 0.229557
C43   C     C_3   0.500469 0.843999 0.908268 -0.419912
C44   C     C_3   0.560921 0.873508 0.807825 -0.792607
H10   H     H_    0.624670 0.882889 0.845001 0.265524
H11   H     H_    0.563325 0.821759 0.734702 0.247745
H12   H     H_    0.540098 0.938775 0.767337 0.245883
H13   H     H_    0.435740 0.849600 0.873518 0.204502
H14   H     H_    0.500282 0.893449 0.984192 0.201484
C45   C     C_3   0.486718 0.156750 0.918843 -0.428757
C46   C     C_3   0.435126 0.135082 0.805680 -0.813625
H15   H     H_    0.367373 0.137971 0.826208 0.263496
H16   H     H_    0.448654 0.184720 0.732185 0.238950
H17   H     H_    0.450444 0.066000 0.773305 0.254364
H18   H     H_    0.553998 0.145828 0.900077 0.198132
H19   H     H_    0.472642 0.106081 0.990948 0.222750
C47   C     C_3   0.637563 0.808038 0.094269 -0.424170
C48   C     C_3   0.726786 0.792415 0.049234 -0.714215
H20   H     H_    0.754296 0.730074 0.089473 0.250227
H21   H     H_    0.727760 0.786601 0.948027 0.254734
H22   H     H_    0.766513 0.850664 0.076040 0.268364
H23   H     H_    0.619423 0.876468 0.063056 0.224170
H24   H     H_    0.636298 0.812542 0.195407 0.203103
C49   C     C_2   0.654971 0.100381 0.476143 0.469687
H25   H     H_    0.656758 0.166592 0.432499 0.065855
O13   O     O_2   0.718246 0.071844 0.525471 -0.468462
C50   C     C_2   0.349942 0.899533 0.559400 0.454855
H26   H     H_    0.337379 0.833448 0.520400 0.073796
O14   O     O_2   0.303511 0.927897 0.639067 -0.495318
C51   C     C_2   0.344326 0.100210 0.521760 0.426711
H27   H     H_    0.343525 0.168596 0.557696 0.063015
O15   O     O_2   0.279173 0.068942 0.482341 -0.473632
C52   C     C_2   0.651532 0.899504 0.443559 0.423933
H28   H     H_    0.661742 0.832162 0.481145 0.064137
O16   O     O_2   0.702238 0.929484 0.370552 -0.504261
C53   C     C_2   0.644937 0.624728 0.202573 0.387482
H29   H     H_    0.665906 0.675413 0.266939 0.074202
O17   O     O_2   0.676419 0.549345 0.207760 -0.557794
C54   C     C_2   0.583759 0.311560 0.820819 0.443188
H30   H     H_    0.586900 0.252138 0.763177 0.076454
O18   O     O_2   0.641940 0.364968 0.817805 -0.529287
C55   C     C_2   0.409621 0.684374 0.813362 0.442791
H31   H     H_    0.407864 0.739924 0.748128 0.070985
O19   O     O_2   0.351199 0.631267 0.815354 -0.535707
C56   C     C_2   0.348685 0.383301 0.204454 0.385122
H32   H     H_    0.323467 0.333603 0.267508 0.087191
O20   O     O_2   0.321322 0.460547 0.208598 -0.549481

loop_
_geom_bond_atom_site_label_1
_geom_bond_atom_site_label_2
_geom_bond_distance
_ccdc_geom_bond_type
C15   C21   1.422056 A    
C39   H3    1.085442 S    
C16   C22   1.417665 A    
C53   H29   1.083096 S    
C17   C19   1.429953 A    
C51   H27   1.084642 S    
C46   H17   1.107819 S    
C8    C35   1.412876 A    
C54   O18   1.221627 D    
C35   C37   1.491741 S    
C9    N2    1.168701 T    
C22   C26   1.417707 A    
C7    C33   1.412765 A    
Cu1   N2    1.977771 S    
C28   C32   1.418142 A    
O7    C6    1.282376 A    
C43   H14   1.107987 S    
Cu1   Cu2   2.632303 S    
C23   C26   1.419808 A    
C24   C25   1.434270 A    
C44   H11   1.108994 S    
O5    C5    1.276616 A    
C56   H32   1.082516 S    
C42   H6    1.107030 S    
C9    C27   1.480744 S    
O7    Cu1   1.981263 S    
C41   H8    1.109778 S    
C1    C12   1.198915 T    
O8    Cu2   1.981264 S    
C43   C44   1.526754 S    
C13   C23   1.418611 A    
C55   H31   1.083799 S    
C21   C23   1.389779 A    
O1    Cu1   1.928511 S    
C13   C17   1.424085 A    
C49   O13   1.220992 D    
O2    Cu2   1.928508 S    
C45   H18   1.108944 S    
C16   C56   1.491038 S    
C7    C36   1.412887 A    
C53   O17   1.221356 D    
O1    C3    1.277234 A    
C34   C40   1.491983 S    
C27   C31   1.417730 A    
C55   O19   1.221505 D    
C41   C42   1.525935 S    
O4    C3    1.277258 A    
C8    C34   1.412790 A    
C54   H30   1.083465 S    
C38   O10   1.221018 D    
C29   C32   1.431320 A    
C33   C35   1.415363 A    
C15   C19   1.428016 A    
C34   C36   1.415351 A    
C46   H15   1.109240 S    
C5    C26   1.456741 S    
O3    C4    1.277294 A    
O6    C6    1.284489 A    
C6    C25   1.476148 S    
C1    C3    1.422035 S    
C45   H19   1.107011 S    
C29   C52   1.490639 S    
C2    C4    1.422088 S    
C37   O9    1.221012 D    
C43   H13   1.106812 S    
C2    C11   1.198944 T    
C14   C24   1.421726 A    
C14   C54   1.490684 S    
C22   C24   1.390018 A    
O4    Cu2   1.927897 S    
C44   H12   1.108349 S    
C45   C46   1.522914 S    
C42   H5    1.109788 S    
C19   C43   1.525769 S    
C10   C28   1.481652 S    
C41   H9    1.106763 S    
C48   H20   1.107991 S    
C31   C50   1.489087 S    
C50   O14   1.221016 D    
Cu2   N1    1.977771 S    
C30   C31   1.431060 A    
C48   H21   1.110390 S    
C47   C48   1.529556 S    
C52   O16   1.220971 D    
C39   O11   1.221002 D    
C37   H1    1.085297 S    
C21   C25   1.435674 A    
C30   C51   1.492371 S    
C10   N1    1.169105 T    
O3    Cu1   1.927894 S    
C38   H2    1.085278 S    
C15   C55   1.490206 S    
C42   H7    1.109790 S    
C8    C12   1.441390 S    
C17   C47   1.528660 S    
O2    C4    1.277231 A    
C14   C18   1.427498 A    
C46   H16   1.106017 S    
C51   O15   1.220891 D    
C16   C20   1.420491 A    
C32   C49   1.489443 S    
C18   C20   1.426031 A    
C40   H4    1.085277 S    
C27   C29   1.418525 A    
O6    Cu2   1.983437 S    
C28   C30   1.419906 A    
C13   C53   1.490283 S    
C47   H24   1.108287 S    
C50   H26   1.085165 S    
O5    Cu1   1.983438 S    
C44   H10   1.107929 S    
C56   O20   1.221367 D    
C36   C38   1.491823 S    
C48   H22   1.110522 S    
O8    C5    1.278440 A    
C33   C39   1.491862 S    
C52   H28   1.085138 S    
C20   C41   1.523801 S    
C49   H25   1.085180 S    
C18   C45   1.522995 S    
C40   O12   1.221017 D    
C47   H23   1.102356 S    
C7    C11   1.441484 S    
