data_mof_unit_61370.cif
_audit_creation_date              2012-12-10T21:15:21-0500
_audit_creation_method            fapswitch 2.2
_symmetry_space_group_name_H-M    P1
_symmetry_Int_Tables_number       1
_space_group_crystal_system       triclinic
_cell_length_a                    17.612431
_cell_length_b                    16.733826
_cell_length_c                    14.174273
_cell_angle_alpha                 89.978583
_cell_angle_beta                  90.143285
_cell_angle_gamma                 89.993426
_cell_volume                      4177.47592171

loop_
_atom_site_label
_atom_site_type_symbol
_atom_type_description
_atom_site_fract_x
_atom_site_fract_y
_atom_site_fract_z
_atom_type_partial_charge
C1    C     C_R   0.353307 0.500008 0.499932 0.972788
C2    C     C_R   0.549986 0.251895 0.555788 0.044746
C3    C     C_R   0.549934 0.748059 0.555864 0.038760
C4    C     C_R   0.450061 0.251941 0.444144 0.038748
C5    C     C_R   0.499986 0.875576 0.500024 0.155108
C6    C     C_R   0.500014 0.124423 0.499976 0.155107
C7    C     C_1   0.499996 0.963420 0.500008 -0.037608
C8    C     C_1   0.500004 0.036580 0.499991 -0.037608
C9    C     C_R   0.499962 0.500010 0.328722 0.902095
C10   C     C_R   0.500038 0.499990 0.671278 0.902084
C11   C     C_1   0.499959 0.500025 0.227403 -0.181684
C12   C     C_R   0.646693 0.499992 0.500063 0.972774
C13   C     C_1   0.500041 0.499975 0.772597 -0.181692
C14   C     C_1   0.499967 0.500020 0.142285 -0.004479
C15   C     C_1   0.500032 0.499980 0.857715 -0.004479
C16   C     C_1   0.499989 0.500006 0.042558 0.013682
C17   C     C_1   0.500011 0.499994 0.957442 0.013682
C18   C     C_R   0.847978 0.558930 0.549853 -0.274595
C19   C     C_R   0.152038 0.441106 0.449977 -0.274595
C20   C     C_R   0.152213 0.559038 0.549573 -0.278442
C21   C     C_R   0.847771 0.440993 0.450267 -0.278442
C22   C     C_R   0.768715 0.559542 0.550599 0.374188
C23   C     C_1   0.966321 0.500012 0.499920 -0.009535
C24   C     C_R   0.231301 0.440474 0.449305 0.374182
C25   C     C_R   0.231478 0.559659 0.550298 0.370059
C26   C     C_R   0.768506 0.440351 0.449617 0.370059
C27   C     C_R   0.729160 0.499962 0.500097 -0.144839
C28   C     C_R   0.270840 0.500042 0.499848 -0.144838
C29   C     C_R   0.886399 0.499979 0.500017 0.061908
C30   C     C_R   0.113601 0.500066 0.499781 0.061907
C31   C     C_1   0.033679 0.500035 0.499839 -0.009535
C32   C     C_R   0.449097 0.832352 0.443197 -0.265761
C33   C     C_R   0.550908 0.167648 0.556795 -0.265761
C34   C     C_R   0.550858 0.832303 0.556875 -0.269509
C35   C     C_R   0.449137 0.167697 0.443133 -0.269511
C36   C     C_R   0.450019 0.748105 0.444204 0.044738
H1    H     H_    0.879694 0.603962 0.588324 0.143297
H2    H     H_    0.589402 0.284649 0.599828 0.129367
H3    H     H_    0.589284 0.715278 0.599991 0.164702
H4    H     H_    0.410707 0.284722 0.400021 0.164725
H5    H     H_    0.765465 0.653010 0.632532 0.330570
H6    H     H_    0.234579 0.347012 0.367366 0.330568
H7    H     H_    0.235026 0.653147 0.632193 0.333785
H8    H     H_    0.764932 0.346858 0.367732 0.333783
H9    H     H_    0.120334 0.396083 0.411478 0.143299
H10   H     H_    0.120645 0.604069 0.588048 0.144096
H11   H     H_    0.879327 0.395964 0.411773 0.144098
H12   H     H_    0.408921 0.863430 0.398330 0.143454
H13   H     H_    0.591089 0.136570 0.601656 0.143455
H14   H     H_    0.591017 0.863338 0.601772 0.145980
H15   H     H_    0.408975 0.136662 0.398242 0.145981
H16   H     H_    0.410607 0.715351 0.400159 0.129365
N1    N     N_R   0.500000 0.707230 0.500000 -0.088293
N2    N     N_R   0.500000 0.292770 0.500000 -0.088292
O1    O     O_R   0.389110 0.566570 0.500000 -0.582577
O2    O     O_3   0.271017 0.383826 0.398392 -0.774025
O3    O     O_3   0.271370 0.616354 0.601168 -0.751141
O4    O     O_3   0.728597 0.383643 0.398788 -0.751134
O5    O     O_R   0.610890 0.433430 0.500000 -0.582570
O6    O     O_R   0.610890 0.566570 0.500000 -0.584083
O7    O     O_R   0.389110 0.433430 0.500000 -0.584085
O8    O     O_R   0.500000 0.566560 0.373710 -0.620684
O9    O     O_R   0.500000 0.433440 0.626290 -0.620677
O10   O     O_R   0.500000 0.566560 0.626290 -0.588580
O11   O     O_R   0.500000 0.433440 0.373710 -0.588563
O12   O     O_3   0.729016 0.616184 0.601543 -0.774016
Zn1   Zn    Zn3+2 0.500000 0.588860 0.500000 0.987241
Zn2   Zn    Zn3+2 0.500000 0.411140 0.500000 0.987251

loop_
_geom_bond_atom_site_label_1
_geom_bond_atom_site_label_2
_ccdc_geom_bond_type
C1    C28   S    
O1    Zn1   S    
C21   C26   A    
C19   H9    S    
C4    H4    S    
H5    O12   S    
O5    Zn2   S    
C24   O2    S    
C9    C11   S    
C2    H2    S    
C10   O10   A    
C10   O9    A    
C36   H16   S    
C6    C33   A    
C5    C32   A    
C4    N2    A    
C5    C34   A    
O11   Zn2   S    
C19   C24   A    
C1    O1    A    
C4    C35   A    
C3    H3    S    
C7    C8    T    
C18   C29   A    
C20   C30   A    
C25   C28   A    
C3    N1    A    
O7    Zn2   S    
C26   C27   A    
C32   H12   S    
C25   O3    S    
O8    Zn1   S    
C23   C29   S    
C2    C33   A    
C12   O5    A    
C18   H1    S    
C14   C16   S    
C22   C27   A    
C13   C15   T    
C35   H15   S    
C30   C31   S    
N1    Zn1   S    
C11   C14   T    
C9    O11   A    
C34   H14   S    
N2    Zn2   S    
C20   C25   A    
H7    O3    S    
C12   C27   S    
C33   H13   S    
C9    O8    A    
C12   O6    A    
O10   Zn1   S    
C32   C36   A    
C1    O7    A    
C6    C35   A    
C5    C7    S    
C2    N2    A    
C15   C17   S    
O9    Zn2   S    
C22   O12   S    
C6    C8    S    
C36   N1    A    
C3    C34   A    
H6    O2    S    
C18   C22   A    
C19   C30   A    
C21   C29   A    
C26   O4    S    
C20   H10   S    
C24   C28   A    
O6    Zn1   S    
H8    O4    S    
C16   C17   T    
C21   H11   S    
C10   C13   S    
C23   C31   T    
