data_mof_unit_37029.cif
_audit_creation_date              2012-12-10T18:34:30-0500
_audit_creation_method            fapswitch 2.2
_symmetry_space_group_name_H-M    P1
_symmetry_Int_Tables_number       1
_space_group_crystal_system       triclinic
_cell_length_a                    15.066723
_cell_length_b                    15.255321
_cell_length_c                    15.725535
_cell_angle_alpha                 90.659077
_cell_angle_beta                  105.387062
_cell_angle_gamma                 81.50033
_cell_volume                      3445.18631257

loop_
_atom_site_label
_atom_site_type_symbol
_atom_type_description
_atom_site_fract_x
_atom_site_fract_y
_atom_site_fract_z
_atom_type_partial_charge
C1    C     C_R   0.441643 0.662645 0.481421 0.926674
C2    C     C_R   0.558566 0.336599 0.511933 0.961314
C3    C     C_R   0.291628 0.884149 0.398501 0.610350
C4    C     C_R   0.721637 0.117732 0.537447 0.572449
C5    C     C_R   0.317113 0.798398 0.437661 0.324171
C6    C     C_R   0.690090 0.208607 0.544926 0.307554
C7    C     C_R   0.472524 0.799809 0.422608 0.658995
C8    C     C_R   0.533398 0.183950 0.467155 0.625260
C9    C     C_R   0.455348 0.891816 0.410668 -0.153881
C10   C     C_R   0.565605 0.095485 0.451652 -0.159157
C11   C     C_R   0.360940 0.932659 0.387506 -0.331073
C12   C     C_R   0.660229 0.061157 0.491021 -0.307279
C13   C     C_R   0.528089 0.945046 0.425874 -0.136477
C14   C     C_R   0.502510 0.037503 0.409596 -0.144789
C15   C     C_R   0.411734 0.069127 0.357426 0.638367
C16   C     C_R   0.623330 0.912156 0.465804 0.556514
C17   C     C_R   0.339139 0.020482 0.353956 0.443468
C18   C     C_R   0.689563 0.969295 0.490384 0.465961
C19   C     C_R   0.846393 0.626512 0.646464 0.410716
C20   C     C_R   0.146874 0.386234 0.347894 0.381436
C21   C     C_R   0.758259 0.599965 0.623444 0.446541
C22   C     C_R   0.238939 0.404794 0.373936 0.425605
C23   C     C_R   0.501778 0.500343 0.662124 0.845318
C24   C     C_R   0.498176 0.499913 0.337900 0.872157
C25   C     C_R   0.790420 0.528356 0.498137 0.743748
C26   C     C_R   0.211750 0.471583 0.503817 0.746672
C27   C     C_R   0.886748 0.533036 0.530632 -0.237744
C28   C     C_R   0.115343 0.467627 0.474424 -0.218581
C29   C     C_R   0.913365 0.588360 0.603096 -0.290767
C30   C     C_R   0.086633 0.413850 0.401593 -0.296844
C31   C     C_R   0.956055 0.486725 0.492764 -0.094769
C32   C     C_R   0.048399 0.509489 0.517684 -0.084308
C33   C     C_R   0.069983 0.574842 0.582740 0.458593
C34   C     C_R   0.937387 0.414896 0.434887 0.457376
C35   C     C_R   0.004916 0.606745 0.629551 0.540522
C36   C     C_R   0.003078 0.380053 0.389824 0.541606
C37   C     C_3   0.447250 0.575850 0.013186 0.323718
C38   C     C_3   0.553213 0.424934 0.987205 0.326836
C39   C     C_3   0.538182 0.571234 0.984990 0.314786
C40   C     C_3   0.462305 0.429570 0.015438 0.311605
C41   C     C_1   0.505687 0.500662 0.751995 -0.121632
C42   C     C_1   0.494365 0.500050 0.248126 -0.142274
C43   C     C_3   0.413434 0.504782 0.947142 0.321775
C44   C     C_3   0.587049 0.495989 0.053292 0.329961
C45   C     C_3   0.504459 0.500186 0.917883 -0.219326
C46   C     C_3   0.495987 0.500634 0.082461 -0.217226
C47   C     C_1   0.506655 0.500478 0.827534 0.173895
C48   C     C_1   0.493570 0.500389 0.172675 0.166717
C49   C     C_R   0.408615 0.754914 0.448201 -0.435048
C50   C     C_R   0.595065 0.241407 0.509001 -0.386613
N1    N     N_R   0.731710 0.552730 0.549140 -0.206493
N2    N     N_R   0.268290 0.447270 0.450860 -0.212404
O1    O     O_R   0.383110 0.605620 0.475230 -0.569380
O2    O     O_R   0.616890 0.394380 0.524770 -0.577247
O3    O     O_R   0.531900 0.639510 0.506760 -0.567227
O4    O     O_R   0.468100 0.360490 0.493240 -0.514335
O5    O     O_R   0.425620 0.483070 0.607460 -0.550477
O6    O     O_R   0.574380 0.516930 0.392540 -0.521238
O7    O     O_R   0.574400 0.516960 0.638990 -0.563864
O8    O     O_R   0.425600 0.483040 0.361010 -0.610520
Zn1   Zn    Zn3+2 0.400660 0.477370 0.478940 1.078017
Zn2   Zn    Zn3+2 0.599340 0.522630 0.521060 1.085124
O9    O     O_3   0.576007 0.643518 0.960977 -0.609719
C51   C     C_3   0.610726 0.692045 0.036318 -0.220847
H1    H     H_    0.680712 0.659600 0.073974 0.198910
H2    H     H_    0.563539 0.702010 0.080499 0.194673
H3    H     H_    0.618413 0.758657 0.014295 0.171102
O10   O     O_3   0.424521 0.357366 0.039692 -0.612469
C52   C     C_3   0.389485 0.308809 0.964481 -0.230365
H4    H     H_    0.436302 0.298978 0.919943 0.187284
H5    H     H_    0.319312 0.341145 0.927184 0.194971
H6    H     H_    0.382105 0.242149 0.986649 0.181544
F1    F     F_    0.252621 0.481663 0.589906 -0.638899
F2    F     F_    0.753232 0.508730 0.413395 -0.626659
O11   O     O_3   0.305214 0.366734 0.332422 -0.503727
C53   C     C_3   0.283038 0.396499 0.243466 -0.087224
H7    H     H_    0.348466 0.390957 0.222847 0.187658
H8    H     H_    0.249849 0.467234 0.233137 0.087535
H9    H     H_    0.239929 0.352507 0.199682 0.194343
O12   O     O_3   0.703355 0.611095 0.681754 -0.555187
C54   C     C_3   0.655656 0.698497 0.676471 -0.174981
H10   H     H_    0.587022 0.696287 0.689205 0.157391
H11   H     H_    0.641903 0.731923 0.610878 0.195393
H12   H     H_    0.694288 0.738284 0.729128 0.173795
O13   O     O_3   0.868193 0.682653 0.716245 -0.549084
C55   C     C_3   0.856524 0.770255 0.681956 -0.082761
H13   H     H_    0.875550 0.815034 0.737776 0.188286
H14   H     H_    0.783359 0.793893 0.645197 0.159746
H15   H     H_    0.901915 0.776914 0.637740 0.198722
O14   O     O_3   0.118971 0.336846 0.273649 -0.543053
C56   C     C_3   0.057013 0.392853 0.205509 -0.232218
H16   H     H_    0.046916 0.356607 0.142929 0.188055
H17   H     H_    0.084829 0.454443 0.195369 0.105220
H18   H     H_    0.987545 0.410705 0.218001 0.183004
O15   O     O_3   0.146331 0.618295 0.587771 -0.604760
C57   C     C_3   0.199582 0.627159 0.675696 -0.059366
H19   H     H_    0.195819 0.573613 0.721668 0.206297
H20   H     H_    0.179010 0.693657 0.699964 0.161945
H21   H     H_    0.273793 0.623401 0.676048 0.179406
O16   O     O_3   0.863898 0.369741 0.436530 -0.632794
C58   C     C_3   0.813599 0.347340 0.351440 -0.078728
H22   H     H_    0.838152 0.277786 0.337636 0.181869
H23   H     H_    0.816012 0.393542 0.297933 0.182418
H24   H     H_    0.739381 0.350429 0.350859 0.180292
O17   O     O_3   0.391864 0.651670 0.034032 -0.594214
C59   C     C_3   0.364598 0.713502 0.962405 -0.242347
H25   H     H_    0.342716 0.682349 0.897276 0.166935
H26   H     H_    0.421224 0.752432 0.962644 0.190271
H27   H     H_    0.304046 0.760775 0.970192 0.185915
O18   O     O_3   0.608562 0.349090 0.966355 -0.595985
C60   C     C_3   0.635605 0.287149 0.037884 -0.238889
H28   H     H_    0.578959 0.248138 0.037316 0.194859
H29   H     H_    0.657198 0.318207 0.103100 0.173870
H30   H     H_    0.696291 0.239965 0.030259 0.181517
O19   O     O_3   0.674272 0.492839 0.115923 -0.598089
C61   C     C_3   0.746406 0.478372 0.073342 -0.255213
H31   H     H_    0.730784 0.518351 0.010944 0.197224
H32   H     H_    0.762415 0.407056 0.060182 0.194474
H33   H     H_    0.810214 0.497872 0.118233 0.165116
O20   O     O_3   0.326048 0.507788 0.884860 -0.615130
C62   C     C_3   0.254229 0.522182 0.927853 -0.256002
H34   H     H_    0.237716 0.593603 0.940326 0.203869
H35   H     H_    0.270454 0.482821 0.990708 0.178324
H36   H     H_    0.190528 0.501890 0.883544 0.186751
O21   O     O_3   0.248139 0.056264 0.312256 -0.542678
C63   C     C_3   0.216379 0.122343 0.365403 -0.011693
H37   H     H_    0.251661 0.181636 0.367303 0.219556
H38   H     H_    0.225378 0.096523 0.433624 0.119458
H39   H     H_    0.140841 0.144037 0.336200 0.225855
O22   O     O_3   0.781231 0.933207 0.528347 -0.551260
C64   C     C_3   0.824429 0.910138 0.460285 -0.185750
H40   H     H_    0.822450 0.969211 0.418476 0.158100
H41   H     H_    0.792243 0.857484 0.418949 0.175672
H42   H     H_    0.898629 0.883324 0.490564 0.187468
F3    F     F_    0.440523 0.211493 0.452403 -0.610519
F4    F     F_    0.543387 0.752130 0.395817 -0.581387
O23   O     O_3   0.745606 0.263274 0.599478 -0.583599
C65   C     C_3   0.834864 0.257177 0.585081 -0.051187
H43   H     H_    0.857127 0.323549 0.594500 0.173542
H44   H     H_    0.837032 0.235919 0.517557 0.169116
H45   H     H_    0.885832 0.211608 0.635393 0.198111
O24   O     O_3   0.250864 0.755562 0.458718 -0.535740
C66   C     C_3   0.234403 0.790457 0.537601 -0.165339
H46   H     H_    0.292452 0.763348 0.595123 0.112537
H47   H     H_    0.169097 0.770599 0.545066 0.225343
H48   H     H_    0.224051 0.864283 0.537806 0.152177
F5    F     F_    0.200600 0.921243 0.378042 -0.612839
F6    F     F_    0.810031 0.083486 0.581935 -0.632106
F7    F     F_    0.393489 0.146584 0.309742 -0.600463
F8    F     F_    0.654586 0.825828 0.489206 -0.658135
F9    F     F_    0.030142 0.659930 0.698805 -0.673255
F10   F     F_    0.990676 0.305842 0.342193 -0.664095

loop_
_geom_bond_atom_site_label_1
_geom_bond_atom_site_label_2
_ccdc_geom_bond_type
O6    Zn2   S    
C66   H48   S    
O3    Zn2   S    
C3    F5    S    
C58   H22   S    
C27   C29   A    
C24   C42   S    
C60   H28   S    
C53   H9    S    
C15   F7    S    
C64   H42   S    
C54   H10   S    
O14   C56   S    
C20   C30   A    
O13   C55   S    
C23   O7    A    
C63   H37   S    
C19   C21   A    
C53   H8    S    
N2    Zn1   S    
C55   H14   S    
C59   H25   S    
C66   H46   S    
C4    F6    S    
C57   H21   S    
C26   F1    S    
C61   H31   S    
C23   O5    A    
C25   F2    S    
C52   H5    S    
C1    O1    A    
O18   C60   S    
C62   H36   S    
C9    C13   A    
C2    C50   S    
O1    Zn1   S    
C40   C43   S    
O15   C57   S    
C44   O19   S    
O10   C52   S    
C38   C45   S    
C57   H20   S    
C34   O16   S    
C38   O18   S    
C43   O20   S    
C39   C45   S    
C58   H23   S    
C13   C14   A    
C8    F3    S    
C5    C49   A    
N1    Zn2   S    
C35   F9    S    
C22   O11   S    
C33   O15   S    
C54   H11   S    
C44   C46   S    
C45   C47   S    
C46   C48   S    
C27   C31   A    
C51   H3    S    
C28   C32   A    
C53   H7    S    
C7    C49   A    
C4    C6    A    
C10   C14   A    
C56   H16   S    
C55   H13   S    
C36   F10   S    
O2    Zn2   S    
C63   H39   S    
C64   H41   S    
C37   O17   S    
C20   O14   S    
C65   H45   S    
O8    Zn1   S    
C51   H2    S    
C37   C43   S    
C52   H6    S    
C40   C46   S    
O11   C53   S    
C25   N1    A    
C38   C44   S    
C26   N2    A    
C56   H17   S    
C43   C45   S    
C31   C32   A    
C24   O8    A    
C57   H19   S    
C3    C5    A    
C41   C47   T    
C31   C34   A    
C60   H29   S    
C16   C18   A    
C42   C48   T    
C6    C50   A    
C9    C11   A    
C62   H34   S    
C10   C12   A    
C8    C10   A    
C20   C22   A    
C58   H24   S    
C2    O2    A    
O21   C63   S    
C18   O22   S    
C4    C12   A    
C64   H40   S    
C19   C29   A    
C8    C50   A    
C21   N1    A    
C54   H12   S    
O20   C62   S    
C22   N2    A    
O23   C65   S    
C66   H47   S    
C11   C17   A    
O7    Zn2   S    
C63   H38   S    
C14   C15   A    
O12   C54   S    
C19   O13   S    
C55   H15   S    
O5    Zn1   S    
C39   C44   S    
C65   H44   S    
C25   C27   A    
C39   O9    S    
O17   C59   S    
C29   C35   A    
C26   C28   A    
C23   C41   S    
C61   H33   S    
C30   C36   A    
C32   C33   A    
C6    O23   S    
C28   C30   A    
O22   C64   S    
C1    O3    A    
C7    F4    S    
C37   C39   S    
C2    O4    A    
C51   H1    S    
C56   H18   S    
C38   C40   S    
C17   O21   S    
C5    O24   S    
C59   H26   S    
C21   O12   S    
O16   C58   S    
C33   C35   A    
C61   H32   S    
C60   H30   S    
C34   C36   A    
C52   H4    S    
C62   H35   S    
C3    C11   A    
C65   H43   S    
O9    C51   S    
C7    C9    A    
C24   O6    A    
C40   O10   S    
C13   C16   A    
C12   C18   A    
O24   C66   S    
O4    Zn1   S    
C16   F8    S    
C37   C46   S    
C15   C17   A    
C1    C49   S    
O19   C61   S    
C59   H27   S    
