data_mof_unit_35188.cif
_audit_creation_date              2012-12-10T17:09:51-0500
_audit_creation_method            fapswitch 2.2
_symmetry_space_group_name_H-M    P1
_symmetry_Int_Tables_number       1
_space_group_crystal_system       triclinic
_cell_length_a                    10.788867
_cell_length_b                    12.984936
_cell_length_c                    11.695716
_cell_angle_alpha                 100.149446
_cell_angle_beta                  93.734918
_cell_angle_gamma                 90.780236
_cell_volume                      1608.89422385

loop_
_atom_site_label
_atom_site_type_symbol
_atom_type_description
_atom_site_fract_x
_atom_site_fract_y
_atom_site_fract_z
_atom_type_partial_charge
C1    C     C_R   0.503822 0.299097 0.478121 0.829523
C2    C     C_R   0.066656 0.415194 0.550978 0.070040
C3    C     C_R   0.128841 0.490575 0.500093 -0.148640
C4    C     C_R   0.063011 0.562736 0.446510 -0.180572
C5    C     C_R   0.935109 0.564873 0.445973 0.361059
C6    C     C_R   0.871049 0.492191 0.497603 -0.176463
C7    C     C_R   0.502313 0.814319 0.534221 -0.047958
C8    C     C_R   0.513976 0.185526 0.465189 -0.145438
C9    C     C_R   0.556653 0.015101 0.354246 -0.219832
C10   C     C_R   0.551724 0.123145 0.362077 0.413091
C11   C     C_R   0.488409 0.138721 0.560495 -0.293150
C12   C     C_R   0.262548 0.496131 0.500014 0.811153
C13   C     C_R   0.494607 0.031044 0.552944 0.164724
C14   C     C_R   0.527297 0.968708 0.448385 0.086358
C15   C     C_R   0.530727 0.860718 0.439617 -0.179337
C16   C     C_R   0.472466 0.876512 0.639006 -0.195322
C17   C     C_R   0.468153 0.984630 0.648203 -0.139169
C18   C     C_R   0.377297 0.408054 0.020122 -0.321209
C19   C     C_R   0.388211 0.415449 0.141764 0.215883
C20   C     C_R   0.554841 0.539451 0.157102 0.039452
C21   C     C_R   0.545947 0.533968 0.034164 0.057071
C22   C     C_R   0.456057 0.466934 0.965404 0.048079
C23   C     C_R   0.501851 0.700891 0.521632 0.831722
C24   C     C_R   0.446402 0.460549 0.843014 0.060404
C25   C     C_R   0.610698 0.585328 0.855842 0.095710
C26   C     C_R   0.623818 0.593728 0.977950 -0.293846
C27   C     C_R   0.737453 0.498310 0.499344 0.857940
C28   C     C_R   0.131380 0.338554 0.601799 -0.221902
C29   C     C_R   0.067543 0.263532 0.650329 0.033955
C30   C     C_R   0.937707 0.262468 0.643867 -0.157417
C31   C     C_R   0.872521 0.336373 0.592810 -0.159203
C32   C     C_R   0.935605 0.415065 0.548002 0.049618
Cu1   Cu    Cu3+1 0.509250 0.507730 0.615930 0.949660
Cu2   Cu    Cu3+1 0.490750 0.492270 0.384070 1.027439
H1    H     H_    0.111995 0.619870 0.407587 0.188160
H2    H     H_    0.443407 0.031693 0.729141 0.174143
H3    H     H_    0.463215 0.186175 0.640971 0.213878
H4    H     H_    0.377595 0.408523 0.789890 0.142403
H5    H     H_    0.671206 0.631725 0.813569 0.140720
H6    H     H_    0.306715 0.356481 0.968403 0.168272
H7    H     H_    0.694175 0.646529 0.027750 0.165930
H8    H     H_    0.623629 0.591221 0.210513 0.171097
H9    H     H_    0.231472 0.335325 0.602759 0.165893
H10   H     H_    0.885862 0.204388 0.678619 0.188354
H11   H     H_    0.772287 0.330092 0.588099 0.152280
H12   H     H_    0.555603 0.812830 0.359084 0.164578
H13   H     H_    0.450275 0.841479 0.712873 0.166278
H14   H     H_    0.584727 0.967441 0.274890 0.178022
N1    N     N_R   0.523180 0.519350 0.790130 -0.192669
N2    N     N_R   0.476820 0.480650 0.209890 -0.224168
O1    O     O_R   0.506570 0.354460 0.582000 -0.614758
O2    O     O_R   0.490940 0.341410 0.386200 -0.514680
O3    O     O_R   0.327470 0.506530 0.597920 -0.593629
O4    O     O_R   0.311840 0.493480 0.402120 -0.573298
O5    O     O_R   0.509060 0.658590 0.613800 -0.589908
O6    O     O_R   0.493430 0.645540 0.418000 -0.586955
O7    O     O_R   0.688160 0.506520 0.597880 -0.601305
O8    O     O_R   0.672530 0.493470 0.402080 -0.538372
Cl1   Cl    Cl    0.601589 0.175380 0.242946 -0.552922
C33   C     C_2   0.298145 0.353034 0.191621 0.891540
O9    O     O_2   0.325274 0.266519 0.211261 -0.548272
O10   O     O_R   0.177696 0.389140 0.205843 -0.755083
H15   H     H_    0.123036 0.338875 0.238632 0.338943
C34   C     C_2   0.135870 0.185954 0.707620 0.841063
O11   O     O_2   0.248539 0.194687 0.727191 -0.651448
O12   O     O_R   0.071332 0.103059 0.740798 -0.747026
H16   H     H_    0.128213 0.055652 0.779084 0.345529
Cl2   Cl    Cl    0.858869 0.663734 0.384571 -0.636013

loop_
_geom_bond_atom_site_label_1
_geom_bond_atom_site_label_2
_ccdc_geom_bond_type
Cu1   O5    S    
C20   H8    S    
C9    C14   A    
C11   H3    S    
Cu2   O6    S    
C29   C30   A    
C17   H2    S    
C19   C33   S    
Cu1   O1    S    
C1    C8    S    
C11   C13   A    
C9    C10   A    
C28   H9    S    
C6    C32   A    
C31   C32   A    
C6    C27   S    
C13   C17   A    
C21   C26   A    
C34   O11   D    
C7    C15   A    
O12   H16   S    
C29   C34   S    
C23   O6    A    
C10   Cl1   S    
C13   C14   A    
C25   H5    S    
C23   O5    A    
C1    O1    A    
C19   N2    A    
C30   H10   S    
O10   H15   S    
C8    C11   A    
C7    C23   S    
C5    C6    A    
C16   H13   S    
C33   O10   S    
C28   C29   A    
Cu1   Cu2   S    
C21   C22   A    
Cu2   O4    S    
C2    C3    A    
C5    Cl2   S    
Cu1   O3    S    
C30   C31   A    
C1    O2    A    
C22   C24   A    
Cu2   N2    S    
C2    C28   A    
Cu1   N1    S    
C24   H4    S    
C16   C17   A    
C20   N2    A    
C20   C21   A    
C7    C16   A    
C9    H14   S    
C2    C32   A    
C18   C19   A    
C27   O7    A    
C24   N1    A    
Cu2   O8    S    
C4    H1    S    
C18   H6    S    
C14   C15   A    
C4    C5    A    
Cu1   O7    S    
C3    C12   S    
C31   H11   S    
C15   H12   S    
C25   C26   A    
C18   C22   A    
Cu2   O2    S    
C27   O8    A    
C8    C10   A    
C12   O4    A    
C3    C4    A    
C12   O3    A    
C26   H7    S    
C33   O9    D    
C25   N1    A    
C34   O12   S    
