data_mof_unit_62036.cif
_audit_creation_date              2012-12-10T19:49:08-0500
_audit_creation_method            fapswitch 2.2
_symmetry_space_group_name_H-M    P1
_symmetry_Int_Tables_number       1
_space_group_crystal_system       monoclinic
_cell_length_a                    26.048266
_cell_length_b                    26.097112
_cell_length_c                    22.21997
_cell_angle_alpha                 90.0
_cell_angle_beta                  54.113186
_cell_angle_gamma                 90.0
_cell_volume                      12237.5481386

loop_
_atom_site_label
_atom_site_type_symbol
_atom_type_description
_atom_site_fract_x
_atom_site_fract_y
_atom_site_fract_z
_atom_type_partial_charge
C1    C     C_R   0.849462 0.750039 0.301088 0.524324
C2    C     C_R   0.445327 0.250580 0.500469 0.021410
C3    C     C_R   0.303516 0.974075 0.455480 -0.111426
C4    C     C_R   0.748680 0.554476 0.501094 -0.035334
C5    C     C_R   0.748680 0.445524 0.501094 -0.035333
C6    C     C_R   0.248668 0.054476 0.501019 -0.035356
C7    C     C_R   0.248668 0.945524 0.501019 -0.035356
C8    C     C_R   0.691478 0.526924 0.548760 0.405089
C9    C     C_R   0.691478 0.473076 0.548760 0.405089
C10   C     C_R   0.191425 0.026924 0.548452 0.405105
C11   C     C_R   0.191425 0.973076 0.548452 0.405105
C12   C     C_3   0.873142 0.470508 0.397378 0.817862
C13   C     C_R   0.945327 0.249419 0.500467 0.021391
C14   C     C_3   0.873142 0.529492 0.397378 0.817865
C15   C     C_3   0.373223 0.970508 0.397823 0.817964
C16   C     C_3   0.373223 0.029492 0.397823 0.817964
C17   C     C_R   0.750364 0.890014 0.499844 0.541015
C18   C     C_R   0.750364 0.109986 0.499844 0.541019
C19   C     C_R   0.250365 0.390014 0.499844 0.541009
C20   C     C_R   0.250365 0.609985 0.499844 0.541012
C21   C     C_R   0.889985 0.750051 0.500039 0.531107
C22   C     C_R   0.889985 0.249949 0.500039 0.531109
C23   C     C_R   0.389985 0.250051 0.500038 0.531146
C24   C     C_R   0.945327 0.750581 0.500467 0.021389
C25   C     C_R   0.389985 0.749949 0.500038 0.531143
C26   C     C_R   0.610021 0.749979 0.500052 0.523747
C27   C     C_R   0.610021 0.250021 0.500052 0.523750
C28   C     C_R   0.110021 0.249979 0.500052 0.523743
C29   C     C_R   0.110021 0.750021 0.500052 0.523744
C30   C     C_R   0.547998 0.782234 0.455990 -0.060738
C31   C     C_R   0.547998 0.217766 0.455990 -0.060734
C32   C     C_R   0.047989 0.282245 0.456007 -0.060746
C33   C     C_R   0.047989 0.717755 0.456007 -0.060747
C34   C     C_R   0.554274 0.749411 0.500449 0.024433
C35   C     C_R   0.496083 0.782235 0.456037 0.016267
C36   C     C_R   0.554274 0.250589 0.500449 0.024434
C37   C     C_R   0.054274 0.249411 0.500448 0.024419
C38   C     C_R   0.054274 0.750589 0.500448 0.024419
C39   C     C_R   0.503768 0.715203 0.546509 -0.123783
C40   C     C_R   0.503768 0.284797 0.546509 -0.123778
C41   C     C_R   0.003779 0.215190 0.546488 -0.123744
C42   C     C_R   0.003779 0.784810 0.546488 -0.123742
C43   C     C_R   0.496083 0.217765 0.456037 0.016269
C44   C     C_R   0.996074 0.282246 0.456054 0.016234
C45   C     C_R   0.996074 0.717754 0.456054 0.016230
C46   C     C_3   0.520662 0.824256 0.400288 0.786023
C47   C     C_3   0.520662 0.175744 0.400288 0.786024
C48   C     C_3   0.020638 0.324287 0.400336 0.786031
C49   C     C_R   0.849462 0.249961 0.301088 0.524338
C50   C     C_3   0.020638 0.675713 0.400335 0.786035
C51   C     C_3   0.579810 0.824273 0.400236 0.352792
C52   C     C_3   0.579810 0.175727 0.400236 0.352785
C53   C     C_3   0.079785 0.324304 0.400283 0.352810
C54   C     C_3   0.079785 0.675696 0.400283 0.352807
C55   C     C_3   0.469178 0.731693 0.956724 -0.250934
C56   C     C_3   0.469184 0.268325 0.956724 -0.250930
C57   C     C_3   0.969171 0.231714 0.956724 -0.250938
C58   C     C_3   0.969206 0.768386 0.956724 -0.250931
C59   C     C_3   0.531795 0.805001 0.956953 0.271683
C60   C     C_R   0.349462 0.250038 0.301088 0.524286
C61   C     C_3   0.531776 0.194995 0.956953 0.271681
C62   C     C_3   0.031818 0.304997 0.956953 0.271686
C63   C     C_3   0.031712 0.694984 0.956953 0.271677
C64   C     C_3   0.488893 0.804843 0.043182 -0.117299
C65   C     C_3   0.488875 0.195153 0.043182 -0.117303
C66   C     C_3   0.988916 0.304838 0.043182 -0.117262
C67   C     C_3   0.988811 0.695142 0.043182 -0.117276
C68   C     C_1   0.389174 0.749973 0.221674 0.111349
C69   C     C_1   0.389174 0.250027 0.221674 0.111348
C70   C     C_1   0.889174 0.249973 0.221674 0.111406
C71   C     C_R   0.349462 0.749961 0.301088 0.524288
C72   C     C_1   0.889174 0.750027 0.221674 0.111402
C73   C     C_3   0.536806 0.750165 0.926783 -0.040736
C74   C     C_3   0.536806 0.249834 0.926783 -0.040736
C75   C     C_3   0.036807 0.250165 0.926783 -0.040735
C76   C     C_3   0.036806 0.749835 0.926783 -0.040733
C77   C     C_R   0.650586 0.749995 0.698919 0.503611
C78   C     C_R   0.650586 0.250005 0.698919 0.503611
C79   C     C_R   0.150586 0.249995 0.698919 0.503592
C80   C     C_R   0.150586 0.750005 0.698919 0.503591
C81   C     C_3   0.425953 0.731442 0.042974 0.205942
C82   C     C_R   0.449776 0.715206 0.546514 -0.127676
C83   C     C_3   0.425959 0.268576 0.042974 0.205945
C84   C     C_3   0.925945 0.231463 0.042974 0.205943
C85   C     C_3   0.925981 0.768637 0.042974 0.205951
C86   C     C_3   0.463486 0.750076 0.073211 0.005383
C87   C     C_3   0.463486 0.249924 0.073211 0.005383
C88   C     C_3   0.963486 0.250076 0.073211 0.005367
C89   C     C_3   0.963486 0.749924 0.073211 0.005366
C90   C     C_3   0.520824 0.713584 0.043093 0.220024
C91   C     C_3   0.520837 0.286402 0.043093 0.220026
C92   C     C_3   0.020809 0.213566 0.043093 0.220011
C93   C     C_R   0.449776 0.284794 0.546514 -0.127669
C94   C     C_3   0.020879 0.786353 0.043093 0.220023
C95   C     C_3   0.563965 0.713725 0.956853 -0.158845
C96   C     C_3   0.563977 0.286261 0.956853 -0.158845
C97   C     C_3   0.063950 0.213707 0.956853 -0.158846
C98   C     C_3   0.064019 0.786212 0.956853 -0.158842
C99   C     C_1   0.422610 0.750005 0.154852 0.072012
C100  C     C_1   0.422610 0.249995 0.154852 0.072011
C101  C     C_1   0.922610 0.250005 0.154852 0.072044
C102  C     C_1   0.922610 0.749995 0.154852 0.072039
C103  C     C_1   0.577519 0.750056 0.845166 0.005875
C104  C     C_R   0.949787 0.215192 0.546493 -0.127664
C105  C     C_1   0.577519 0.249944 0.845166 0.005876
C106  C     C_1   0.077519 0.250056 0.845166 0.005855
C107  C     C_1   0.077519 0.749944 0.845166 0.005855
C108  C     C_1   0.610887 0.750005 0.778341 0.061640
C109  C     C_1   0.610887 0.249995 0.778341 0.061641
C110  C     C_1   0.110887 0.250004 0.778341 0.061605
C111  C     C_1   0.110887 0.749996 0.778341 0.061603
C112  C     C_R   0.736089 0.974117 0.459969 -0.086699
C113  C     C_R   0.736089 0.025883 0.459969 -0.086698
C114  C     C_R   0.236079 0.474117 0.459978 -0.086695
C115  C     C_R   0.949787 0.784808 0.546493 -0.127663
C116  C     C_R   0.236079 0.525883 0.459978 -0.086696
C117  C     C_R   0.752334 0.945549 0.499168 -0.034204
C118  C     C_R   0.752334 0.054451 0.499168 -0.034203
C119  C     C_R   0.252338 0.445549 0.499164 -0.034210
C120  C     C_R   0.252338 0.554451 0.499164 -0.034209
C121  C     C_R   0.770812 0.973061 0.538580 0.407967
C122  C     C_R   0.770812 0.026940 0.538580 0.407971
C123  C     C_R   0.270834 0.473060 0.538558 0.407967
C124  C     C_R   0.270834 0.526940 0.538558 0.407973
C125  C     C_R   0.749856 0.610027 0.500135 0.558911
C126  C     C_R   0.445327 0.749420 0.500469 0.021410
C127  C     C_R   0.749856 0.389973 0.500135 0.558913
C128  C     C_R   0.249854 0.110027 0.500123 0.558889
C129  C     C_R   0.249854 0.889973 0.500123 0.558888
C130  C     C_3   0.711676 0.029533 0.413982 0.363466
C131  C     C_3   0.711676 0.970466 0.413982 0.363468
C132  C     C_3   0.211640 0.529533 0.414019 0.363477
C133  C     C_3   0.211640 0.470466 0.414019 0.363478
C134  C     C_R   0.803497 0.525925 0.455383 -0.111318
C135  C     C_R   0.803497 0.474075 0.455383 -0.111316
C136  C     C_R   0.303516 0.025925 0.455480 -0.111426
F1    F     F_    0.555642 0.728307 0.069219 -0.563434
F2    F     F_    0.756299 0.949585 0.344783 -0.501927
F3    F     F_    0.256245 0.550415 0.344814 -0.501892
F4    F     F_    0.256245 0.449584 0.344814 -0.501891
F5    F     F_    0.635415 0.551496 0.595502 -0.535520
F6    F     F_    0.635415 0.448504 0.595502 -0.535519
F7    F     F_    0.135321 0.051495 0.594970 -0.535504
F8    F     F_    0.135321 0.948505 0.594970 -0.535504
F9    F     F_    0.904949 0.448845 0.423674 -0.484607
F10   F     F_    0.904950 0.551155 0.423674 -0.484604
F11   F     F_    0.404729 0.948847 0.424505 -0.484933
F12   F     F_    0.555649 0.271662 0.069219 -0.563430
F13   F     F_    0.404729 0.051153 0.424505 -0.484933
F14   F     F_    0.888325 0.448802 0.331968 -0.521653
F15   F     F_    0.888325 0.551198 0.331967 -0.521649
F16   F     F_    0.388749 0.948800 0.332264 -0.521297
F17   F     F_    0.388749 0.051200 0.332264 -0.521297
F18   F     F_    0.531939 0.808667 0.333962 -0.478619
F19   F     F_    0.531939 0.191332 0.333962 -0.478624
F20   F     F_    0.031920 0.308720 0.333998 -0.478568
F21   F     F_    0.031920 0.691280 0.333998 -0.478553
F22   F     F_    0.484992 0.868588 0.429017 -0.537708
F23   F     F_    0.055633 0.228270 0.069219 -0.563456
F24   F     F_    0.484992 0.131412 0.429017 -0.537707
F25   F     F_    0.984950 0.368608 0.429096 -0.537957
F26   F     F_    0.984950 0.631392 0.429095 -0.537954
F27   F     F_    0.633698 0.807055 0.333994 -0.516187
F28   F     F_    0.633698 0.192946 0.333994 -0.516212
F29   F     F_    0.133680 0.307108 0.334029 -0.516176
F30   F     F_    0.133680 0.692892 0.334029 -0.516179
F31   F     F_    0.373609 0.762490 0.069129 -0.580416
F32   F     F_    0.373605 0.237540 0.069129 -0.580404
F33   F     F_    0.873614 0.262528 0.069129 -0.580392
F34   F     F_    0.055674 0.771557 0.069219 -0.563414
F35   F     F_    0.873590 0.737648 0.069129 -0.580351
F36   F     F_    0.591442 0.823462 0.930725 -0.570225
F37   F     F_    0.591418 0.176519 0.930724 -0.570229
F38   F     F_    0.091473 0.323438 0.930724 -0.570212
F39   F     F_    0.091332 0.676454 0.930724 -0.570215
F40   F     F_    0.788936 0.948392 0.577113 -0.529346
F41   F     F_    0.788936 0.051608 0.577113 -0.529346
F42   F     F_    0.288975 0.448392 0.577075 -0.529360
F43   F     F_    0.288975 0.551608 0.577075 -0.529358
F44   F     F_    0.756299 0.050415 0.344783 -0.501932
H1    H     H_    0.511079 0.831290 0.936993 0.152825
H2    H     H_    0.567468 0.325884 0.936198 0.092178
H3    H     H_    0.067411 0.174089 0.936199 0.092145
H4    H     H_    0.067557 0.825843 0.936199 0.092125
H5    H     H_    0.408414 0.691780 0.062931 0.160923
H6    H     H_    0.408434 0.308240 0.062931 0.160919
H7    H     H_    0.908390 0.191805 0.062931 0.160914
H8    H     H_    0.908502 0.808310 0.062931 0.160895
H9    H     H_    0.411860 0.688542 0.582465 0.184526
H10   H     H_    0.411860 0.311457 0.582465 0.184531
H11   H     H_    0.911879 0.188519 0.582428 0.184545
H12   H     H_    0.511052 0.168716 0.936993 0.152824
H13   H     H_    0.911879 0.811481 0.582428 0.184547
H14   H     H_    0.663901 0.047258 0.443735 0.075989
H15   H     H_    0.663901 0.952742 0.443735 0.075989
H16   H     H_    0.163863 0.547258 0.443792 0.075944
H17   H     H_    0.163863 0.452742 0.443792 0.075943
H18   H     H_    0.586723 0.859672 0.422516 0.120325
H19   H     H_    0.586723 0.140328 0.422515 0.120326
H20   H     H_    0.086685 0.359696 0.422588 0.120280
H21   H     H_    0.086686 0.640304 0.422587 0.120281
H22   H     H_    0.505730 0.688545 0.582465 0.179860
H23   H     H_    0.011114 0.331298 0.936992 0.152843
H24   H     H_    0.505730 0.311455 0.582465 0.179863
H25   H     H_    0.005749 0.188522 0.582428 0.179922
H26   H     H_    0.005749 0.811478 0.582428 0.179923
H27   H     H_    0.516001 0.819026 0.064155 0.238623
H28   H     H_    0.515977 0.180957 0.064155 0.238621
H29   H     H_    0.016029 0.319006 0.064155 0.238647
H30   H     H_    0.015897 0.680902 0.064155 0.238642
H31   H     H_    0.612806 0.725804 0.935754 0.244284
H32   H     H_    0.612814 0.274169 0.935754 0.244284
H33   H     H_    0.112796 0.225770 0.935754 0.244281
H34   H     H_    0.010958 0.668741 0.936992 0.152825
H35   H     H_    0.112843 0.774076 0.935754 0.244290
H36   H     H_    0.503395 0.673918 0.063165 0.136711
H37   H     H_    0.503421 0.326070 0.063166 0.136708
H38   H     H_    0.003364 0.173904 0.063166 0.136705
H39   H     H_    0.003510 0.826029 0.063166 0.136683
H40   H     H_    0.471316 0.692382 0.935911 0.128338
H41   H     H_    0.471335 0.307638 0.935911 0.128339
H42   H     H_    0.971292 0.192407 0.935911 0.128305
H43   H     H_    0.971403 0.807709 0.935911 0.128300
H44   H     H_    0.448617 0.757135 0.935704 0.193006
H45   H     H_    0.448655 0.831787 0.064005 0.155066
H46   H     H_    0.448615 0.242893 0.935704 0.193013
H47   H     H_    0.948620 0.257169 0.935704 0.193008
H48   H     H_    0.948607 0.742990 0.935704 0.193023
H49   H     H_    0.448627 0.168219 0.064005 0.155063
H50   H     H_    0.948689 0.331795 0.064005 0.155137
H51   H     H_    0.948532 0.668242 0.064005 0.155115
H52   H     H_    0.567443 0.674104 0.936198 0.092180
O1    O     O_3   0.750020 0.750020 0.500000 -0.505608
O2    O     O_R   0.741140 0.134170 0.457020 -0.518648
O3    O     O_R   0.241140 0.365830 0.457020 -0.518631
O4    O     O_R   0.241140 0.634170 0.457020 -0.518631
O5    O     O_R   0.862350 0.719680 0.336040 -0.495692
O6    O     O_R   0.862350 0.280320 0.336040 -0.495699
O7    O     O_R   0.362350 0.219680 0.336040 -0.495773
O8    O     O_R   0.362350 0.780320 0.336040 -0.495773
O9    O     O_R   0.698420 0.780360 0.663960 -0.516743
O10   O     O_R   0.698420 0.219640 0.663960 -0.516745
O11   O     O_R   0.198420 0.280360 0.663960 -0.516733
O12   O     O_3   0.750020 0.249980 0.500000 -0.505606
O13   O     O_R   0.198420 0.719640 0.663960 -0.516735
O14   O     O_R   0.801620 0.780400 0.336040 -0.500721
O15   O     O_R   0.801620 0.219600 0.336040 -0.500730
O16   O     O_R   0.301620 0.280400 0.336040 -0.500712
O17   O     O_R   0.301620 0.719600 0.336040 -0.500714
O18   O     O_R   0.637700 0.719640 0.663960 -0.532823
O19   O     O_R   0.637700 0.280360 0.663960 -0.532822
O20   O     O_R   0.137700 0.219640 0.663960 -0.532906
O21   O     O_R   0.137700 0.780360 0.663960 -0.532905
O22   O     O_R   0.801870 0.634220 0.457010 -0.479850
O23   O     O_3   0.250020 0.250020 0.500000 -0.505599
O24   O     O_R   0.801870 0.365780 0.457010 -0.479850
O25   O     O_R   0.301870 0.134220 0.457010 -0.479872
O26   O     O_R   0.301870 0.865780 0.457010 -0.479873
O27   O     O_R   0.758890 0.865820 0.542980 -0.470405
O28   O     O_R   0.758890 0.134180 0.542980 -0.470404
O29   O     O_R   0.258890 0.365820 0.542980 -0.470412
O30   O     O_R   0.258890 0.634180 0.542980 -0.470407
O31   O     O_R   0.887320 0.719660 0.457000 -0.469769
O32   O     O_R   0.887320 0.280340 0.457000 -0.469770
O33   O     O_R   0.387320 0.219660 0.457000 -0.469720
O34   O     O_3   0.250020 0.749980 0.500000 -0.505599
O35   O     O_R   0.387320 0.780340 0.457000 -0.469720
O36   O     O_R   0.655700 0.780400 0.457020 -0.510722
O37   O     O_R   0.655700 0.219600 0.457020 -0.510724
O38   O     O_R   0.155700 0.280400 0.457020 -0.510712
O39   O     O_R   0.155700 0.719600 0.457020 -0.510712
O40   O     O_R   0.844340 0.780370 0.542980 -0.542033
O41   O     O_R   0.844340 0.219630 0.542980 -0.542033
O42   O     O_R   0.344340 0.280370 0.542980 -0.542031
O43   O     O_R   0.344340 0.719630 0.542980 -0.542037
O44   O     O_R   0.612730 0.719670 0.543000 -0.541513
O45   O     O_R   0.698170 0.634220 0.542990 -0.475359
O46   O     O_R   0.612730 0.280330 0.543000 -0.541511
O47   O     O_R   0.112730 0.219670 0.543000 -0.541450
O48   O     O_R   0.112730 0.780330 0.543000 -0.541448
O49   O     O_R   0.698170 0.365780 0.542990 -0.475359
O50   O     O_R   0.198170 0.134220 0.542990 -0.475364
O51   O     O_R   0.198170 0.865780 0.542990 -0.475365
O52   O     O_R   0.741140 0.865830 0.457020 -0.518649
Zn1   Zn    Zn3+2 0.675940 0.706640 0.561420 1.001676
Zn2   Zn    Zn3+2 0.762700 0.206610 0.561410 1.012913
Zn3   Zn    Zn3+2 0.262700 0.293390 0.561410 1.012919
Zn4   Zn    Zn3+2 0.262700 0.706610 0.561410 1.012916
Zn5   Zn    Zn3+2 0.737340 0.793410 0.438590 1.027456
Zn6   Zn    Zn3+2 0.737340 0.206590 0.438590 1.027456
Zn7   Zn    Zn3+2 0.237340 0.293410 0.438590 1.027466
Zn8   Zn    Zn3+2 0.237340 0.706590 0.438590 1.027468
Zn9   Zn    Zn3+2 0.675940 0.293360 0.561420 1.001681
Zn10  Zn    Zn3+2 0.175940 0.206640 0.561420 1.001649
Zn11  Zn    Zn3+2 0.175940 0.793360 0.561420 1.001650
Zn12  Zn    Zn3+2 0.824100 0.706650 0.438580 1.090534
Zn13  Zn    Zn3+2 0.824100 0.293350 0.438580 1.090533
Zn14  Zn    Zn3+2 0.324100 0.206650 0.438580 1.090497
Zn15  Zn    Zn3+2 0.324100 0.793350 0.438580 1.090495
Zn16  Zn    Zn3+2 0.762700 0.793390 0.561410 1.012911

loop_
_geom_bond_atom_site_label_1
_geom_bond_atom_site_label_2
_ccdc_geom_bond_type
C30   C51   S    
O14   Zn5   S    
C87   C91   S    
C33   C45   A    
C40   C93   A    
C90   H36   S    
C90   C95   S    
C65   H28   S    
C93   H10   S    
C4    C125  S    
C63   C76   S    
C76   C98   S    
O48   Zn11  S    
C89   C94   S    
C129  O51   A    
C91   F12   S    
C20   O30   A    
C91   C96   S    
C21   O31   A    
C22   O32   A    
C20   O4    A    
C12   C135  S    
C14   F15   S    
O31   Zn12  S    
C16   F13   S    
C79   O11   A    
C59   C73   S    
C81   C86   S    
C79   C110  S    
C85   H8    S    
C67   H51   S    
C123  F42   S    
C25   O35   A    
C65   C87   S    
C26   O36   A    
O44   Zn1   S    
C28   O38   A    
C12   F14   S    
C95   H52   S    
C86   C90   S    
O38   Zn7   S    
C62   C66   S    
O34   Zn11  S    
C91   H37   S    
C25   C126  S    
C78   O19   A    
C81   F31   S    
C86   C99   S    
C129  O26   A    
C76   C107  S    
C62   C75   S    
C73   C95   S    
C32   C53   S    
C20   C120  S    
C56   C83   S    
C133  H17   S    
C131  H15   S    
C84   C88   S    
C58   H43   S    
C18   O2    A    
C47   C52   S    
C119  C123  A    
C61   C74   S    
C33   C38   A    
C71   O8    A    
C130  C131  S    
C131  F2    S    
C94   F34   S    
O17   Zn8   S    
C45   C50   S    
O15   Zn6   S    
C94   H39   S    
C112  C131  S    
C69   C100  T    
C61   C65   S    
O25   Zn14  S    
C73   C103  S    
C39   H22   S    
C31   C36   A    
C84   H7    S    
O34   Zn8   S    
C77   O18   A    
C43   C47   S    
C71   O17   A    
C13   C44   A    
O28   Zn2   S    
C44   C48   S    
C21   O40   A    
C55   H44   S    
O29   Zn3   S    
C122  F41   S    
O30   Zn4   S    
O12   Zn2   S    
C50   F26   S    
C79   O20   A    
C128  O50   A    
C70   C101  T    
C58   C76   S    
C123  C124  A    
C132  F3    S    
O33   Zn14  S    
C85   F35   S    
C31   C43   A    
C77   O9    A    
O3    Zn7   S    
C66   C88   S    
C56   H41   S    
O8    Zn15  S    
C46   F22   S    
C3    C136  A    
C118  C122  A    
O23   Zn7   S    
O49   Zn9   S    
C17   O52   A    
C82   C126  A    
C40   H24   S    
O51   Zn11  S    
C29   C38   S    
O35   Zn15  S    
C8    F5    S    
C55   C81   S    
C114  C119  A    
C22   O41   A    
C51   H18   S    
O23   Zn10  S    
C64   H45   S    
C92   C97   S    
O9    Zn16  S    
C48   C53   S    
C64   H27   S    
C1    C72   S    
C113  C130  S    
C30   C34   A    
C34   C39   A    
C29   O39   A    
C74   C96   S    
C1    O5    A    
O45   Zn1   S    
C46   C51   S    
C23   O33   A    
C116  C120  A    
C12   F9    S    
C5    C9    A    
C116  C132  S    
O26   Zn15  S    
C32   C37   A    
C51   F27   S    
C130  F44   S    
C133  F4    S    
C27   O37   A    
C82   H9    S    
O1    Zn5   S    
C21   C24   S    
C16   C136  S    
C4    C134  A    
C87   C100  S    
C33   C54   S    
C5    C135  A    
C18   C118  S    
O34   Zn15  S    
C107  C111  T    
C77   C108  S    
C39   C82   A    
C26   O44   A    
C114  C116  A    
C9    F6    S    
C134  C135  A    
C54   H21   S    
C41   C104  A    
C65   H49   S    
C95   H31   S    
C128  O25   A    
C57   C75   S    
C6    C128  S    
C74   C105  S    
C72   C102  T    
C28   C37   S    
C78   C109  S    
C63   H34   S    
C37   C41   A    
C125  O22   A    
C10   C11   A    
C55   C73   S    
O6    Zn13  S    
O34   Zn4   S    
C2    C23   S    
O36   Zn5   S    
O11   Zn3   S    
C83   C87   S    
C98   H35   S    
C96   H32   S    
C3    C15   S    
C50   C54   S    
C3    C7    A    
C112  C117  A    
O12   Zn9   S    
C94   C98   S    
O23   Zn3   S    
C75   C97   S    
C59   H1    S    
O10   Zn2   S    
C124  F43   S    
C105  C109  T    
O1    Zn1   S    
C83   H6    S    
C97   H3    S    
C17   O27   A    
O40   Zn16  S    
C18   O28   A    
C17   C117  S    
C48   F20   S    
C19   C119  S    
C97   H33   S    
O41   Zn2   S    
C54   F30   S    
O43   Zn4   S    
C64   C86   S    
C15   F16   S    
C27   O46   A    
C57   H42   S    
C46   F18   S    
C56   C74   S    
C80   O21   A    
C85   C89   S    
O50   Zn10  S    
C48   F25   S    
C104  H11   S    
O5    Zn12  S    
C5    C127  S    
C57   C84   S    
C60   O7    A    
O23   Zn14  S    
C92   H38   S    
C121  C122  A    
C49   O15   A    
C52   F28   S    
C53   F29   S    
O52   Zn5   S    
C49   C70   S    
C59   F36   S    
O39   Zn8   S    
C28   O47   A    
C66   H50   S    
O16   Zn7   S    
C96   H2    S    
C49   O6    A    
C130  H14   S    
C19   O3    A    
C6    C10   A    
O1    Zn12  S    
C27   C36   S    
C25   O43   A    
C15   F11   S    
C125  O45   A    
C68   C71   S    
C80   C111  S    
O18   Zn1   S    
C13   C22   S    
C42   H26   S    
O2    Zn6   S    
C7    C129  S    
C42   C115  A    
O37   Zn6   S    
C75   C106  S    
O42   Zn3   S    
C35   C46   S    
O1    Zn16  S    
C89   C102  S    
C4    C8    A    
C88   C101  S    
C29   O48   A    
C7    C11   A    
C59   C64   S    
C78   O10   A    
C30   C35   A    
C92   F23   S    
O20   Zn10  S    
C24   C45   A    
C60   C69   S    
O21   Zn11  S    
C38   C42   A    
O22   Zn12  S    
C1    O14   A    
C23   O42   A    
C121  F40   S    
C15   C16   S    
C62   F38   S    
C67   C89   S    
C67   H30   S    
C117  C121  A    
C6    C136  A    
C26   C34   S    
C88   C92   S    
C8    C9    A    
C61   H12   S    
C103  C108  T    
C11   F8    S    
O7    Zn14  S    
C115  H13   S    
O13   Zn4   S    
C98   H4    S    
C81   H5    S    
C112  C113  A    
O12   Zn13  S    
C47   F24   S    
C50   F21   S    
C63   C67   S    
O27   Zn16  S    
C127  O24   A    
O19   Zn9   S    
C36   C40   A    
C61   F37   S    
O32   Zn13  S    
C84   F33   S    
C132  C133  S    
C14   C134  S    
O46   Zn9   S    
C13   C104  A    
C57   H47   S    
C35   C126  A    
C19   O29   A    
C2    C43   A    
C32   C44   A    
C52   H19   S    
C66   H29   S    
O4    Zn8   S    
C12   C14   S    
C60   O16   A    
C58   C85   S    
C90   F1    S    
C58   H48   S    
C106  C110  T    
O12   Zn6   S    
C53   H20   S    
C2    C93   A    
C63   F39   S    
C55   H40   S    
O47   Zn10  S    
C83   F32   S    
C14   F10   S    
C31   C52   S    
C56   H46   S    
C127  O49   A    
C68   C99   T    
O24   Zn13  S    
C47   F19   S    
C114  C133  S    
C10   F7    S    
C41   H25   S    
C62   H23   S    
C113  C118  A    
C24   C115  A    
C16   F17   S    
C132  H16   S    
C80   O13   A    
C120  C124  A    
