data_mof_unit_58436.cif
_audit_creation_date              2012-12-10T18:37:18-0500
_audit_creation_method            fapswitch 2.2
_symmetry_space_group_name_H-M    P1
_symmetry_Int_Tables_number       1
_space_group_crystal_system       triclinic
_cell_length_a                    15.17585
_cell_length_b                    13.894675
_cell_length_c                    10.901953
_cell_angle_alpha                 90.861672
_cell_angle_beta                  92.307363
_cell_angle_gamma                 90.477993
_cell_volume                      2296.60832346

loop_
_atom_site_label
_atom_site_type_symbol
_atom_type_description
_atom_site_fract_x
_atom_site_fract_y
_atom_site_fract_z
_atom_type_partial_charge
C1    C     C_R   0.329805 0.499552 0.496372 0.841137
C2    C     C_3   0.579938 0.466048 0.934222 -0.507966
C3    C     C_R   0.092692 0.569520 0.422115 0.394533
C4    C     C_R   0.094534 0.424423 0.547851 0.274257
C5    C     C_R   0.185258 0.568739 0.421029 0.245457
C6    C     C_R   0.187326 0.425639 0.550890 0.373970
C7    C     C_R   0.232718 0.498045 0.488651 -0.304204
C8    C     C_R   0.048133 0.497554 0.484296 -0.250614
C9    C     C_R   0.900443 0.452974 0.391768 -0.006078
C10   C     C_R   0.911251 0.549674 0.582673 -0.040146
C11   C     C_R   0.807921 0.447188 0.400564 -0.091156
C12   C     C_R   0.818531 0.550269 0.586241 -0.031161
C13   C     C_R   0.766927 0.499621 0.494864 -0.158825
C14   C     C_R   0.951221 0.501578 0.484958 0.023983
C15   C     C_R   0.538533 0.105647 0.588695 -0.202012
C16   C     C_R   0.567577 0.896755 0.543510 -0.198952
C17   C     C_R   0.496140 0.499717 0.259823 0.753780
C18   C     C_R   0.544198 0.206269 0.589191 0.609395
C19   C     C_R   0.567688 0.796365 0.552443 0.615577
C20   C     C_R   0.449840 0.210771 0.411487 0.095281
C21   C     C_R   0.431322 0.786613 0.440402 0.055789
C22   C     C_R   0.446769 0.109205 0.404899 -0.226862
C23   C     C_R   0.426939 0.888002 0.435898 -0.230567
C24   C     C_R   0.492879 0.054384 0.493645 0.049312
C25   C     C_R   0.495451 0.945390 0.489534 0.055572
C26   C     C_R   0.669966 0.500102 0.498678 0.844290
C27   C     C_R   0.497535 0.501142 0.740080 0.789898
C28   C     C_3   0.489858 0.611119 0.075844 0.348277
C29   C     C_3   0.406744 0.442382 0.065689 0.310185
C30   C     C_3   0.476417 0.611755 0.930038 0.311872
C31   C     C_3   0.412577 0.435646 0.919629 0.358606
C32   C     C_3   0.574759 0.452134 0.073007 -0.491490
C33   C     C_3   0.490820 0.501201 0.121604 -0.124710
C34   C     C_3   0.491174 0.504241 0.878020 -0.263204
Cu1   Cu    Cu3+1 0.499990 0.596430 0.500000 0.978333
Cu2   Cu    Cu3+1 0.499990 0.403570 0.500000 0.997562
H1    H     H_    0.571350 0.068283 0.663671 0.173653
H2    H     H_    0.624247 0.936053 0.581975 0.165328
H3    H     H_    0.411238 0.251372 0.345720 0.162575
H4    H     H_    0.378733 0.744387 0.396382 0.194845
H5    H     H_    0.408982 0.074480 0.330251 0.166564
H6    H     H_    0.369636 0.920627 0.392044 0.166785
H7    H     H_    0.635637 0.480603 0.120173 0.234602
H8    H     H_    0.576792 0.374475 0.092853 0.256799
H9    H     H_    0.634111 0.517146 0.917934 0.282725
H10   H     H_    0.599769 0.397530 0.889814 0.231559
N1    N     N_R   0.500020 0.258690 0.500000 -0.234260
N2    N     N_R   0.500020 0.741310 0.500000 -0.245119
O1    O     O_R   0.371450 0.581430 0.500010 -0.591649
O2    O     O_R   0.371450 0.418570 0.500010 -0.535102
O3    O     O_R   0.499980 0.581440 0.317690 -0.571229
O4    O     O_R   0.499980 0.418560 0.317690 -0.586515
O5    O     O_R   0.628540 0.581440 0.499990 -0.564542
O6    O     O_R   0.628540 0.418560 0.499990 -0.617012
O7    O     O_R   0.500010 0.581440 0.682310 -0.614310
O8    O     O_R   0.500010 0.418560 0.682310 -0.569436
C35   C     C_2   0.574927 0.664710 0.122211 0.374492
H11   H     H_    0.570485 0.721619 0.191134 0.153784
O9    O     O_2   0.647855 0.646477 0.085124 -0.583442
C36   C     C_2   0.394473 0.342551 0.122380 0.276165
H12   H     H_    0.331283 0.323564 0.159169 0.120611
O10   O     O_2   0.452234 0.281937 0.124749 -0.583025
C37   C     C_2   0.753697 0.383826 0.315006 0.489596
H13   H     H_    0.686734 0.402874 0.288938 0.049773
O11   O     O_2   0.781686 0.306968 0.278126 -0.490267
C38   C     C_2   0.776295 0.601215 0.688359 0.493397
H14   H     H_    0.800161 0.671640 0.719391 0.129865
O12   O     O_2   0.716636 0.563065 0.741718 -0.602179
O13   O     O_3   0.594393 0.248500 0.683332 -0.737762
H15   H     H_    0.615901 0.310943 0.655640 0.368184
O14   O     O_3   0.637148 0.756562 0.616987 -0.736623
H16   H     H_    0.614815 0.697147 0.652678 0.365205
O15   O     O_3   0.423063 0.664844 0.132934 -0.730169
H17   H     H_    0.363388 0.650765 0.098387 0.425940
O16   O     O_3   0.329299 0.492446 0.092474 -0.660542
H18   H     H_    0.324747 0.495918 0.183016 0.279683
O17   O     O_3   0.389248 0.640084 0.898069 -0.630974
H19   H     H_    0.381756 0.643304 0.807408 0.359742
O18   O     O_3   0.331011 0.466423 0.866745 -0.585413
H20   H     H_    0.334466 0.465938 0.776100 0.341557
C39   C     C_2   0.537891 0.687510 0.877424 0.399861
H21   H     H_    0.606204 0.671171 0.862374 0.124385
O19   O     O_2   0.511524 0.768368 0.854407 -0.491828
C40   C     C_2   0.426251 0.331425 0.875502 0.434033
H22   H     H_    0.486790 0.293947 0.898852 0.118521
O20   O     O_2   0.369022 0.288046 0.814496 -0.467567
O21   O     O_3   0.042933 0.638629 0.361559 -0.680343
H23   H     H_    0.081888 0.686810 0.324824 0.391356
O22   O     O_3   0.052125 0.351917 0.609238 -0.695066
H24   H     H_    0.987537 0.355259 0.595027 0.351679
O23   O     O_3   0.226671 0.637118 0.352313 -0.713513
H25   H     H_    0.281210 0.609575 0.320628 0.333757
O24   O     O_3   0.235910 0.357890 0.615758 -0.657651
H26   H     H_    0.196586 0.312420 0.656692 0.404647
C41   C     C_2   0.945547 0.411208 0.284454 0.543606
H27   H     H_    0.010854 0.380671 0.296195 0.050764
O25   O     O_2   0.911977 0.414717 0.180945 -0.458523
C42   C     C_2   0.968278 0.596594 0.681774 0.403053
H28   H     H_    0.031179 0.628490 0.660244 0.103405
O26   O     O_2   0.947670 0.596531 0.788880 -0.487558

loop_
_geom_bond_atom_site_label_1
_geom_bond_atom_site_label_2
_ccdc_geom_bond_type
C15   C18   A    
C38   O12   D    
O21   H23   S    
C37   O11   D    
O24   H26   S    
Cu1   O5    S    
O15   H17   S    
C19   O14   S    
Cu1   Cu2   S    
C4    C8    A    
C18   N1    A    
C17   O3    A    
C39   H21   S    
O17   H19   S    
C2    H10   S    
C23   H6    S    
C2    C32   S    
C40   O20   D    
C11   C37   S    
C27   O7    A    
C35   O9    D    
C22   H5    S    
C28   O15   S    
C29   C33   S    
Cu2   N1    S    
C36   O10   D    
C10   C42   S    
C15   H1    S    
C30   O17   S    
C41   H27   S    
Cu1   O1    S    
C1    O2    A    
C9    C41   S    
Cu2   O4    S    
C21   N2    A    
C2    C34   S    
C18   O13   S    
C38   H14   S    
C27   C34   S    
C1    C7    S    
C17   C33   S    
Cu1   N2    S    
C26   O6    A    
C17   O4    A    
C39   O19   D    
C2    H9    S    
C30   C34   S    
C3    O21   S    
C24   C25   S    
C4    C6    A    
C3    C8    A    
C10   C14   A    
O23   H25   S    
C5    C7    A    
C20   H3    S    
C19   N2    A    
C28   C35   S    
C12   C38   S    
Cu1   O7    S    
C31   C40   S    
O18   H20   S    
C36   H12   S    
O16   H18   S    
Cu2   O8    S    
C29   C36   S    
C6    O24   S    
C32   H8    S    
C31   C34   S    
C40   H22   S    
C9    C11   A    
C5    O23   S    
C10   C12   A    
C15   C24   A    
C20   C22   A    
C28   C33   S    
C42   O26   D    
C21   C23   A    
Cu1   O3    S    
C22   C24   A    
C13   C26   S    
C26   O5    A    
Cu2   O2    S    
C4    O22   S    
C16   C25   A    
C8    C14   S    
C27   O8    A    
C3    C5    A    
C41   O25   D    
C31   O18   S    
C6    C7    A    
C29   O16   S    
C32   C33   S    
C30   C39   S    
C28   C30   S    
O14   H16   S    
C29   C31   S    
C11   C13   A    
C35   H11   S    
C21   H4    S    
C16   C19   A    
C32   H7    S    
C9    C14   A    
C23   C25   A    
O13   H15   S    
C20   N1    A    
Cu2   O6    S    
C37   H13   S    
C12   C13   A    
C42   H28   S    
O22   H24   S    
C1    O1    A    
C16   H2    S    
