data_mof_unit_26717.cif
_audit_creation_date              2012-10-26T19:52:25-0400
_audit_creation_method            fapswitch 2.2
_symmetry_space_group_name_H-M    P1
_symmetry_Int_Tables_number       1
_space_group_crystal_system       triclinic
_cell_length_a                    9.642003
_cell_length_b                    10.87036
_cell_length_c                    13.419772
_cell_angle_alpha                 91.889242
_cell_angle_beta                  72.613519
_cell_angle_gamma                 91.613691
_cell_volume                      1341.3126599

loop_
_atom_site_label
_atom_site_type_symbol
_atom_type_description
_atom_site_fract_x
_atom_site_fract_y
_atom_site_fract_z
_atom_type_partial_charge
C1    C     C_R   0.500313 0.737216 0.503692 0.542615
C2    C     C_R   0.378028 0.458925 0.811859 -0.001834
C3    C     C_R   0.368419 0.932428 0.542899 0.110879
C4    C     C_R   0.422400 0.486990 0.699015 0.543678
C5    C     C_R   0.499309 0.870192 0.516717 -0.017392
C6    C     C_R   0.628759 0.938752 0.504185 -0.157895
C7    C     C_R   0.627338 0.067098 0.501783 -0.150123
C8    C     C_R   0.496620 0.128451 0.511391 -0.010174
C9    C     C_R   0.367096 0.059332 0.539202 0.006422
C10   C     C_3   0.245008 0.053404 0.492384 -0.203290
C11   C     C_3   0.243891 0.914981 0.499519 0.078750
C12   C     C_R   0.438057 0.444890 0.976236 0.032746
C13   C     C_R   0.962387 0.476158 0.410054 0.097607
C14   C     C_R   0.891404 0.541714 0.584109 0.074378
C15   C     C_R   0.039234 0.546079 0.583428 0.377287
C16   C     C_R   0.498406 0.262169 0.501554 0.550636
C17   C     C_R   0.108746 0.472827 0.410829 0.118917
C18   C     C_3   0.127619 0.354134 0.348863 0.091084
C19   C     C_3   0.974072 0.364430 0.341678 -0.225202
C20   C     C_R   0.578424 0.504007 0.299742 0.534894
C21   C     C_R   0.802164 0.487314 0.013954 -0.035035
C22   C     C_R   0.622594 0.502309 0.184121 -0.008139
C23   C     C_R   0.481188 0.436122 0.865678 -0.012136
C24   C     C_R   0.230200 0.458086 0.868594 -0.100681
C25   C     C_R   0.186923 0.440671 0.975833 -0.109792
C26   C     C_R   0.288434 0.441006 0.029933 -0.093068
C27   C     C_R   0.546718 0.457555 0.027810 -0.014645
C28   C     C_R   0.694525 0.450435 0.968432 0.023183
C29   C     C_R   0.731054 0.409084 0.863944 0.219407
C30   C     C_R   0.624539 0.400749 0.813782 -0.082815
C31   C     C_R   0.513487 0.482116 0.135594 -0.158803
C32   C     C_R   0.768322 0.515911 0.120684 0.208853
Cl1   Cl    Cl    0.906325 0.358601 0.794917 -0.643769
Cu1   Cu    Cu3+1 0.359330 0.500020 0.500010 1.023723
Cu2   Cu    Cu3+1 0.640670 0.499980 0.499990 0.938743
H1    H     H_    0.729931 0.117114 0.486750 0.144523
H2    H     H_    0.402566 0.487275 0.183492 0.123430
H3    H     H_    0.148393 0.469971 0.829908 0.217326
H4    H     H_    0.245827 0.434578 0.113207 0.093668
H5    H     H_    0.074536 0.429600 0.019525 0.170080
H6    H     H_    0.655152 0.362678 0.735071 0.177594
H7    H     H_    0.731937 0.893679 0.489744 0.143333
H8    H     H_    0.837432 0.618410 0.216999 0.343849
H9    H     H_    0.043827 0.860012 0.539320 0.322555
H10   H     H_    0.159299 0.649713 0.641804 0.385132
H11   H     H_    0.061808 0.257090 0.475291 0.335218
H12   H     H_    0.145574 0.096261 0.544983 0.202906
H13   H     H_    0.281595 0.081525 0.409674 0.170121
H14   H     H_    0.270576 0.863736 0.423045 0.120627
H15   H     H_    0.809053 0.575844 0.652437 0.162659
H16   H     H_    0.213705 0.357192 0.273051 0.139062
H17   H     H_    0.971464 0.386752 0.262104 0.149799
H18   H     H_    0.898225 0.288753 0.378816 0.159692
H19   H     H_    0.911239 0.502291 0.964249 0.167588
N1    N     N_R   0.852320 0.499070 0.499340 -0.280944
N2    N     N_R   0.148230 0.499110 0.499340 -0.230094
O1    O     O_R   0.381190 0.680360 0.500000 -0.515305
O2    O     O_3   0.120135 0.870356 0.574935 -0.673378
O3    O     O_3   0.068482 0.601196 0.668520 -0.653018
O4    O     O_3   0.141092 0.254235 0.407922 -0.713343
O5    O     O_R   0.618780 0.680320 0.499990 -0.506881
O6    O     O_R   0.323230 0.500000 0.650990 -0.475121
O7    O     O_R   0.560820 0.499960 0.650980 -0.530641
O8    O     O_R   0.381220 0.319680 0.500010 -0.447082
O9    O     O_R   0.618810 0.319640 0.500000 -0.520667
O10   O     O_R   0.439180 0.500040 0.349020 -0.511133
O11   O     O_R   0.676770 0.500000 0.349010 -0.489928
O12   O     O_3   0.879001 0.559771 0.158318 -0.730636

loop_
_geom_bond_atom_site_label_1
_geom_bond_atom_site_label_2
_ccdc_geom_bond_type
C8    C9    A    
Cu1   O1    S    
C2    C4    S    
C30   H6    S    
Cu1   N2    S    
C29   C30   A    
C11   H14   S    
C1    O1    A    
C11   O2    S    
C7    H1    S    
C20   O11   A    
C24   H3    S    
C12   C23   A    
C13   C17   A    
C21   H19   S    
C32   O12   S    
C4    O6    A    
C15   N2    A    
C19   H18   S    
Cu1   O8    S    
C17   C18   S    
C3    C5    A    
C7    C8    A    
C8    C16   S    
Cu1   O6    S    
C12   C26   A    
C10   H13   S    
C17   N2    A    
Cu1   O10   S    
C14   H15   S    
C22   C32   A    
C3    C9    A    
C9    C10   S    
C4    O7    A    
C28   C29   A    
C21   C28   A    
C20   C22   S    
C18   H16   S    
C14   N1    A    
C6    C7    A    
C10   C11   S    
Cu2   O11   S    
C25   H5    S    
C2    C24   A    
C5    C6    A    
Cu1   Cu2   S    
C21   C32   A    
C1    C5    S    
C26   H4    S    
C3    C11   S    
C22   C31   A    
C13   C19   S    
C12   C27   A    
C27   C31   A    
C23   C30   A    
C29   Cl1   S    
C20   O10   A    
C10   H12   S    
C24   C25   A    
C2    C23   A    
Cu2   O5    S    
C18   C19   S    
C6    H7    S    
C18   O4    S    
C27   C28   A    
Cu2   O9    S    
C14   C15   A    
H10   O3    S    
Cu2   O7    S    
C16   O9    A    
C16   O8    A    
H11   O4    S    
C25   C26   A    
C15   O3    S    
C19   H17   S    
Cu2   N1    S    
C31   H2    S    
H9    O2    S    
H8    O12   S    
C13   N1    A    
C1    O5    A    
