data_mof_unit_19603.cif
_audit_creation_date              2012-12-10T16:59:17-0500
_audit_creation_method            fapswitch 2.2
_symmetry_space_group_name_H-M    P1
_symmetry_Int_Tables_number       1
_space_group_crystal_system       triclinic
_cell_length_a                    7.734875
_cell_length_b                    8.566367
_cell_length_c                    27.425992
_cell_angle_alpha                 90.984401
_cell_angle_beta                  85.752963
_cell_angle_gamma                 93.972492
_cell_volume                      1807.76334837

loop_
_atom_site_label
_atom_site_type_symbol
_atom_type_description
_atom_site_fract_x
_atom_site_fract_y
_atom_site_fract_z
_atom_type_partial_charge
C1    C     C_R   0.546159 0.794964 0.499068 0.995341
C2    C     C_R   0.453864 0.205040 0.501391 0.953450
C3    C     C_R   0.447657 0.591169 0.902813 -0.057008
C4    C     C_R   0.402207 0.651904 0.107278 -0.059981
C5    C     C_R   0.550072 0.699108 0.873113 -0.107952
C6    C     C_R   0.275784 0.561118 0.135869 -0.106814
C7    C     C_R   0.626529 0.834017 0.894161 -0.209966
C8    C     C_R   0.140271 0.478570 0.113560 -0.211493
C9    C     C_R   0.370356 0.455527 0.881554 -0.003556
C10   C     C_R   0.535904 0.738295 0.130018 -0.011723
C11   C     C_R   0.503300 0.499057 0.648161 -0.294859
C12   C     C_R   0.495867 0.532570 0.354534 -0.246507
C13   C     C_R   0.522645 0.748062 0.027328 0.070487
C14   C     C_R   0.308458 0.514606 0.982626 0.078608
C15   C     C_R   0.279198 0.545618 0.033259 -0.089710
C16   C     C_R   0.518973 0.744650 0.975662 -0.092874
C17   C     C_R   0.399479 0.650646 0.055832 0.005845
C18   C     C_R   0.424045 0.617636 0.953800 0.005861
C19   C     C_R   0.653095 0.836069 0.051375 -0.188017
C20   C     C_R   0.235926 0.377890 0.960431 -0.180580
C21   C     C_R   0.659181 0.831426 0.101798 -0.189339
C22   C     C_R   0.265988 0.349262 0.910744 -0.203815
C23   C     C_R   0.501638 0.498853 0.594418 0.911329
C24   C     C_R   0.497947 0.501602 0.406151 1.005124
C25   C     C_R   0.609252 0.859696 0.944608 0.483011
C26   C     C_R   0.138439 0.472536 0.062797 0.482515
C27   C     C_2   0.570406 0.958593 0.498990 -0.379526
C28   C     C_2   0.429603 0.041448 0.502377 -0.354514
C29   C     C_R   0.568023 0.672351 0.822507 0.564244
C30   C     C_R   0.290094 0.552458 0.186242 0.563710
C31   C     C_R   0.400368 0.428572 0.831351 0.524472
C32   C     C_R   0.549284 0.721423 0.180250 0.531805
C33   C     C_R   0.343618 0.497748 0.727755 -0.205365
C34   C     C_R   0.462068 0.718154 0.291062 -0.195604
C35   C     C_R   0.344377 0.480079 0.677306 0.419039
C36   C     C_R   0.487759 0.688109 0.339740 0.413219
C37   C     C_R   0.660974 0.523686 0.671211 0.426125
C38   C     C_R   0.487661 0.408586 0.320599 0.423302
C39   C     C_R   0.657569 0.526983 0.722328 -0.199860
C40   C     C_R   0.473568 0.441559 0.271406 -0.184178
C41   C     C_R   0.499105 0.519374 0.750526 0.165284
C42   C     C_R   0.455904 0.595493 0.256865 0.168425
H1    H     H_    0.013804 0.381595 0.463629 0.187391
H2    H     H_    0.986131 0.618862 0.536145 0.200361
H3    H     H_    0.778404 0.540329 0.740052 0.183327
H4    H     H_    0.471494 0.347058 0.244656 0.174286
H5    H     H_    0.699410 0.921975 0.871583 0.213646
H6    H     H_    0.036247 0.415287 0.135235 0.211105
H7    H     H_    0.445936 0.836655 0.279901 0.178735
H8    H     H_    0.220434 0.493431 0.749417 0.181964
H9    H     H_    0.765174 0.896733 0.118344 0.201543
H10   H     H_    0.208461 0.242150 0.895436 0.199998
H11   H     H_    0.761525 0.898880 0.031888 0.215286
H12   H     H_    0.164925 0.285492 0.981210 0.211577
H13   H     H_    0.703161 0.010296 0.495735 0.169174
H14   H     H_    0.296846 0.989747 0.505622 0.174799
N1    N     N_R   0.493518 0.538530 0.802633 -0.325688
N2    N     N_R   0.429631 0.626273 0.206951 -0.329115
N3    N     N_2   0.950320 0.457960 0.486880 -0.170879
N4    N     N_2   0.049680 0.542040 0.513120 -0.159386
O1    O     O_R   0.389250 0.738570 0.503220 -0.610981
O2    O     O_R   0.610750 0.261430 0.496780 -0.616865
O3    O     O_R   0.678390 0.711630 0.494810 -0.644456
O4    O     O_R   0.321610 0.288370 0.505190 -0.638933
O5    O     O_R   0.355440 0.513440 0.575450 -0.571565
O6    O     O_R   0.644560 0.486560 0.424550 -0.611673
O7    O     O_R   0.644590 0.486500 0.567040 -0.582551
O8    O     O_R   0.355410 0.513500 0.432960 -0.621754
O9    O     O_2   0.656005 0.780721 0.793342 -0.571784
O10   O     O_2   0.167543 0.468528 0.214273 -0.559445
O11   O     O_2   0.683760 0.795238 0.201912 -0.561243
O12   O     O_2   0.336191 0.293770 0.811233 -0.566593
Zn1   Zn    Zn3+2 0.306940 0.517990 0.505620 0.972525
Zn2   Zn    Zn3+2 0.693060 0.482010 0.494380 0.965098
O13   O     O_3   0.818904 0.539313 0.644018 -0.565249
C43   C     C_3   0.880300 0.698285 0.644464 -0.199460
H15   H     H_    0.907625 0.739797 0.681957 0.172103
H16   H     H_    0.787245 0.773300 0.628598 0.121871
H17   H     H_    0.004602 0.711301 0.621553 0.189757
O14   O     O_3   0.496491 0.256190 0.335557 -0.616805
C44   C     C_3   0.327863 0.181388 0.337224 -0.298465
H18   H     H_    0.281671 0.164942 0.299904 0.185366
H19   H     H_    0.233901 0.246612 0.361080 0.158151
H20   H     H_    0.331589 0.063827 0.353147 0.229644
O15   O     O_3   0.490621 0.808956 0.373829 -0.622994
C45   C     C_3   0.653888 0.893334 0.368291 -0.258762
H21   H     H_    0.677544 0.946477 0.331451 0.202296
H22   H     H_    0.760466 0.817800 0.375493 0.164098
H23   H     H_    0.655977 0.990795 0.395412 0.204648
O16   O     O_3   0.187099 0.453372 0.656723 -0.562322
C46   C     C_3   0.141939 0.291059 0.657100 -0.183994
H24   H     H_    0.119491 0.246960 0.695140 0.161097
H25   H     H_    0.242610 0.224901 0.636165 0.125541
H26   H     H_    0.018795 0.268666 0.639046 0.204652
O17   O     O_3   0.676760 0.001160 0.962354 -0.625002
C47   C     C_3   0.546785 0.108742 0.963365 -0.275633
H27   H     H_    0.431507 0.069176 0.987906 0.164987
H28   H     H_    0.507812 0.129283 0.925896 0.176749
H29   H     H_    0.599905 0.222274 0.977896 0.197900
O18   O     O_3   0.997058 0.395042 0.042909 -0.624183
C48   C     C_3   0.870453 0.503045 0.037909 -0.274508
H30   H     H_    0.759325 0.442893 0.020298 0.190526
H31   H     H_    0.921692 0.602372 0.014121 0.165847
H32   H     H_    0.820181 0.546672 0.074295 0.176280

loop_
_geom_bond_atom_site_label_1
_geom_bond_atom_site_label_2
_ccdc_geom_bond_type
C48   H30   S    
C8    C26   A    
C14   C18   A    
O17   C47   S    
C34   C42   A    
C43   H17   S    
C32   N2    A    
C42   N2    S    
C44   H18   S    
C28   H14   S    
C39   C41   A    
O15   C45   S    
C40   H4    S    
C19   C21   A    
C43   H16   S    
C27   H13   S    
C9    C22   A    
O6    Zn2   S    
C47   H29   S    
N4    Zn1   S    
O5    Zn1   S    
C3    C18   A    
C23   O7    A    
C11   C37   A    
C44   H19   S    
C47   H28   S    
O4    Zn1   S    
C12   C36   A    
C29   O9    S    
C24   O6    A    
C39   H3    S    
C19   H11   S    
C40   C42   A    
C37   O13   S    
N3    N4    D    
C48   H31   S    
C1    O3    A    
C30   O10   S    
C2    O4    A    
C32   O11   S    
C5    C29   A    
C10   C21   A    
C13   C19   A    
C45   H22   S    
C14   C20   A    
C43   H15   S    
C4    C6    A    
C46   H24   S    
C5    C7    A    
C9    C31   A    
C45   H21   S    
C15   C26   A    
C6    C8    A    
O1    Zn1   S    
C33   H8    S    
C7    H5    S    
O13   C43   S    
C8    H6    S    
C3    C9    A    
C46   H25   S    
C47   H27   S    
O7    Zn2   S    
N3    Zn2   S    
C4    C17   A    
C20   H12   S    
C31   O12   S    
C6    C30   A    
C20   C22   A    
C25   O17   S    
C48   H32   S    
C4    C10   A    
C21   H9    S    
C44   H20   S    
C22   H10   S    
C16   C25   A    
C15   C17   A    
C34   H7    S    
C29   N1    A    
O14   C44   S    
C3    C5    A    
C45   H23   S    
C1    O1    A    
O3    Zn2   S    
H1    N3    S    
C36   O15   S    
C12   C24   S    
C7    C25   A    
C13   C17   A    
C33   C41   A    
C23   O5    A    
C11   C35   A    
O8    Zn1   S    
C41   N1    S    
C37   C39   A    
C46   H26   S    
C38   C40   A    
C31   N1    A    
O16   C46   S    
C38   O14   S    
H2    N4    S    
C30   N2    A    
C11   C23   S    
O18   C48   S    
C33   C35   A    
C34   C36   A    
C12   C38   A    
C24   O8    A    
C35   O16   S    
C10   C32   A    
C16   C18   A    
C13   C16   A    
C27   C28   D    
C1    C27   S    
C14   C15   A    
O2    Zn2   S    
C2    C28   S    
C2    O2    A    
C26   O18   S    
