data_mof_unit_66024.cif
_audit_creation_date              2012-12-10T16:41:58-0500
_audit_creation_method            fapswitch 2.2
_symmetry_space_group_name_H-M    P1
_symmetry_Int_Tables_number       1
_space_group_crystal_system       triclinic
_cell_length_a                    26.195331
_cell_length_b                    26.189337
_cell_length_c                    18.471781
_cell_angle_alpha                 89.994001
_cell_angle_beta                  134.852767
_cell_angle_gamma                 89.937583
_cell_volume                      8983.68932385

loop_
_atom_site_label
_atom_site_type_symbol
_atom_type_description
_atom_site_fract_x
_atom_site_fract_y
_atom_site_fract_z
_atom_type_partial_charge
C1    C     C_R   0.611448 0.749888 0.499970 0.518659
C2    C     C_2   0.008741 0.286578 0.459584 -0.163733
C3    C     C_2   0.497243 0.222436 0.436952 -0.148960
C4    C     C_2   0.508718 0.786563 0.459540 -0.163660
C5    C     C_2   0.054219 0.753750 0.495952 -0.147784
C6    C     C_2   0.054399 0.247400 0.496399 -0.137223
C7    C     C_2   0.554216 0.253756 0.495945 -0.147806
C8    C     C_2   0.554394 0.747394 0.496389 -0.137273
C9    C     C_2   0.937712 0.724584 0.430101 0.227332
C10   C     C_2   0.947204 0.285612 0.449162 0.233415
C11   C     C_2   0.437683 0.224625 0.430044 0.227344
C12   C     C_R   0.611208 0.250451 0.499452 0.510464
C13   C     C_2   0.447179 0.785588 0.449110 0.233346
C14   C     C_2   0.944742 0.749139 0.501137 -0.068213
C15   C     C_2   0.947164 0.252903 0.505725 -0.054576
C16   C     C_2   0.444742 0.249139 0.501137 -0.068302
C17   C     C_2   0.447157 0.752897 0.505712 -0.054578
C18   C     C_2   0.750998 0.471921 0.441850 -0.156785
C19   C     C_2   0.748479 0.528090 0.439351 -0.155124
C20   C     C_2   0.250997 0.971921 0.441850 -0.156786
C21   C     C_2   0.248478 0.028090 0.439350 -0.155134
C22   C     C_2   0.747088 0.443898 0.498593 -0.093760
C23   C     C_R   0.111449 0.249889 0.499972 0.518555
C24   C     C_2   0.752802 0.556099 0.504307 -0.093102
C25   C     C_2   0.247088 0.943898 0.498593 -0.093761
C26   C     C_2   0.252801 0.056099 0.504306 -0.093113
C27   C     C_2   0.808808 0.028007 0.557625 -0.160949
C28   C     C_2   0.808724 0.971842 0.560003 -0.158832
C29   C     C_2   0.308799 0.528009 0.560271 -0.160659
C30   C     C_2   0.308731 0.471843 0.557745 -0.159051
C31   C     C_2   0.748534 0.056129 0.501405 -0.093294
C32   C     C_2   0.748391 0.943884 0.495573 -0.093814
C33   C     C_2   0.248537 0.556131 0.495744 -0.092873
C34   C     C_R   0.111209 0.750450 0.499453 0.510590
C35   C     C_2   0.248381 0.443883 0.501170 -0.094195
C36   C     C_R   0.888462 0.749895 0.499651 0.516312
C37   C     C_R   0.889176 0.250694 0.500929 0.531899
C38   C     C_R   0.388461 0.249896 0.499649 0.516253
C39   C     C_R   0.389174 0.750692 0.500925 0.531892
C40   C     C_R   0.749924 0.888539 0.499599 0.512053
C41   C     C_R   0.750008 0.111464 0.500327 0.511552
C42   C     C_R   0.249924 0.388539 0.500224 0.511980
C43   C     C_R   0.250008 0.611464 0.499702 0.511527
C44   C     C_R   0.750293 0.611432 0.500324 0.514121
C45   C     C_2   0.947574 0.742841 0.886542 -0.098273
C46   C     C_R   0.749691 0.388567 0.499718 0.511490
C47   C     C_R   0.250293 0.111432 0.500324 0.514108
C48   C     C_R   0.249691 0.888567 0.499718 0.511493
C49   C     C_R   0.612001 0.750571 0.222502 0.547542
C50   C     C_R   0.611427 0.250384 0.222923 0.539548
C51   C     C_R   0.112001 0.250571 0.222503 0.547589
C52   C     C_R   0.111426 0.750385 0.222923 0.539385
C53   C     C_R   0.889034 0.749119 0.776940 0.505492
C54   C     C_R   0.887808 0.249426 0.777085 0.510632
C55   C     C_R   0.389034 0.249120 0.776940 0.505513
C56   C     C_2   0.936985 0.245539 0.887010 -0.088297
C57   C     C_R   0.387810 0.749426 0.777086 0.510631
C58   C     C_2   0.065659 0.764366 0.054979 0.252049
C59   C     C_2   0.042603 0.211318 0.055714 0.252852
C60   C     C_2   0.565656 0.264384 0.054976 0.252091
C61   C     C_2   0.542631 0.711324 0.055714 0.252938
C62   C     C_2   0.051819 0.755935 0.112197 0.303176
C63   C     C_2   0.061307 0.254307 0.110773 0.289185
C64   C     C_2   0.551820 0.255935 0.112196 0.303215
C65   C     C_2   0.561309 0.754310 0.110771 0.289242
C66   C     C_2   0.005453 0.772947 0.943701 -0.139463
C67   C     C_2   0.447577 0.242842 0.886541 -0.098208
C68   C     C_2   0.995700 0.215952 0.943964 -0.127952
C69   C     C_2   0.505435 0.272968 0.943699 -0.139472
C70   C     C_2   0.495723 0.715969 0.943962 -0.127987
C71   C     C_3   0.147990 0.747754 0.046237 -0.142114
C72   C     C_3   0.029029 0.122496 0.041398 -0.131902
C73   C     C_3   0.647957 0.247959 0.046083 -0.142105
C74   C     C_3   0.529274 0.622475 0.041348 -0.132008
C75   C     C_3   0.967218 0.790974 0.102928 -0.124885
C76   C     C_3   0.015594 0.335427 0.086988 -0.123684
C77   C     C_3   0.467201 0.290962 0.102897 -0.124890
C78   C     C_2   0.436989 0.745537 0.887011 -0.088255
C79   C     C_3   0.515573 0.835420 0.086989 -0.123732
C80   C     C_3   0.829195 0.725931 0.264557 0.018319
C81   C     C_3   0.758413 0.696881 0.184668 -0.238606
C82   C     C_3   0.702282 0.728781 0.088492 -0.468265
C83   C     C_3   0.865244 0.325597 0.291731 0.013775
C84   C     C_3   0.793311 0.353926 0.222685 -0.235639
C85   C     C_3   0.761140 0.360692 0.115074 -0.482899
C86   C     C_3   0.329151 0.226116 0.264528 0.018321
C87   C     C_3   0.258339 0.197116 0.184526 -0.238639
C88   C     C_3   0.202237 0.229110 0.088490 -0.468229
C89   C     C_2   0.997270 0.722407 0.437003 -0.148924
C90   C     C_3   0.365114 0.825446 0.291575 0.013864
C91   C     C_3   0.293269 0.853889 0.222592 -0.235599
C92   C     C_3   0.261036 0.860565 0.114928 -0.482735
H1    H     H_    0.740624 0.460863 0.545075 0.106099
H2    H     H_    0.695723 0.960907 0.436390 0.104599
H3    H     H_    0.195880 0.539238 0.436468 0.107921
H4    H     H_    0.195682 0.460898 0.454725 0.105294
H5    H     H_    0.011048 0.802706 0.908721 0.141684
H6    H     H_    0.007909 0.193185 0.908591 0.129560
H7    H     H_    0.511000 0.302751 0.908719 0.141728
H8    H     H_    0.507946 0.693230 0.908580 0.129378
H9    H     H_    0.944189 0.710762 0.920258 0.162670
H10   H     H_    0.922542 0.266037 0.921573 0.127057
H11   H     H_    0.444214 0.210749 0.920258 0.162682
H12   H     H_    0.759526 0.539122 0.563945 0.106705
H13   H     H_    0.422535 0.766015 0.921577 0.127050
H14   H     H_    0.992789 0.694147 0.389694 0.174641
H15   H     H_    0.016037 0.320857 0.434637 0.151955
H16   H     H_    0.492741 0.194190 0.389603 0.174604
H17   H     H_    0.515998 0.820840 0.434571 0.152158
H18   H     H_    0.059384 0.783863 0.540851 0.100756
H19   H     H_    0.049884 0.212212 0.522286 0.099185
H20   H     H_    0.559393 0.283860 0.540870 0.100736
H21   H     H_    0.549889 0.712208 0.522293 0.099212
H22   H     H_    0.993400 0.769327 0.564266 0.057093
H23   H     H_    0.240625 0.960863 0.545076 0.106105
H24   H     H_    0.991660 0.227072 0.560042 0.057270
H25   H     H_    0.493426 0.269287 0.564316 0.057019
H26   H     H_    0.491665 0.727079 0.560054 0.057374
H27   H     H_    0.755381 0.453249 0.393894 0.158340
H28   H     H_    0.743778 0.546777 0.382345 0.162021
H29   H     H_    0.255380 0.953249 0.393893 0.158356
H30   H     H_    0.243778 0.046777 0.382344 0.162047
H31   H     H_    0.127123 0.772867 0.981634 0.120055
H32   H     H_    0.123646 0.708980 0.018272 0.116969
H33   H     H_    0.206780 0.743258 0.096495 0.135573
H34   H     H_    0.259525 0.039122 0.563945 0.106718
H35   H     H_    0.038416 0.115060 0.992333 0.116348
H36   H     H_    0.970688 0.128031 0.994594 0.113730
H37   H     H_    0.046737 0.087999 0.089114 0.145832
H38   H     H_    0.627136 0.273213 0.981667 0.120040
H39   H     H_    0.623547 0.209216 0.017834 0.117064
H40   H     H_    0.706739 0.243439 0.096311 0.135621
H41   H     H_    0.538893 0.615142 0.992527 0.116065
H42   H     H_    0.470877 0.627901 0.994302 0.113747
H43   H     H_    0.546985 0.587960 0.089023 0.145858
H44   H     H_    0.981736 0.829197 0.095394 0.102276
H45   H     H_    0.860881 0.046586 0.605239 0.153642
H46   H     H_    0.995406 0.783975 0.183276 0.129391
H47   H     H_    0.908584 0.791428 0.055728 0.145664
H48   H     H_    0.059233 0.356479 0.158800 0.160775
H49   H     H_    0.979734 0.315745 0.090634 0.107582
H50   H     H_    0.982206 0.364198 0.024955 0.139709
H51   H     H_    0.481687 0.329186 0.095310 0.102300
H52   H     H_    0.495405 0.283985 0.183259 0.129346
H53   H     H_    0.408569 0.291397 0.055709 0.145686
H54   H     H_    0.559206 0.856478 0.158797 0.160432
H55   H     H_    0.479724 0.815728 0.090644 0.107644
H56   H     H_    0.860773 0.953110 0.616538 0.154468
H57   H     H_    0.482171 0.864189 0.024953 0.139723
H58   H     H_    0.852727 0.733304 0.233600 0.122989
H59   H     H_    0.817459 0.763087 0.279990 0.128618
H60   H     H_    0.768530 0.661078 0.164089 0.165866
H61   H     H_    0.736818 0.686506 0.217220 0.223605
H62   H     H_    0.689151 0.763754 0.106770 0.170055
H63   H     H_    0.652281 0.706107 0.031620 0.159860
H64   H     H_    0.722599 0.739790 0.054461 0.144363
H65   H     H_    0.855734 0.286782 0.259180 0.124032
H66   H     H_    0.902315 0.347298 0.292979 0.129164
H67   H     H_    0.360857 0.546589 0.616963 0.153085
H68   H     H_    0.755056 0.332177 0.218828 0.228315
H69   H     H_    0.801318 0.392165 0.255528 0.172287
H70   H     H_    0.796915 0.384841 0.116994 0.146254
H71   H     H_    0.707777 0.379631 0.066060 0.158052
H72   H     H_    0.753962 0.323083 0.081140 0.139029
H73   H     H_    0.352689 0.233559 0.233600 0.122970
H74   H     H_    0.317454 0.263239 0.280108 0.128591
H75   H     H_    0.268417 0.161357 0.163791 0.165896
H76   H     H_    0.236741 0.186663 0.217041 0.223599
H77   H     H_    0.189144 0.264037 0.106924 0.170127
H78   H     H_    0.360801 0.453115 0.605596 0.154659
H79   H     H_    0.152214 0.206471 0.031526 0.159944
H80   H     H_    0.222561 0.240201 0.054503 0.144341
H81   H     H_    0.355456 0.786592 0.259074 0.124045
H82   H     H_    0.402194 0.847008 0.292674 0.129127
H83   H     H_    0.254984 0.832264 0.218829 0.228299
H84   H     H_    0.301422 0.892163 0.255426 0.172259
H85   H     H_    0.296849 0.884595 0.116757 0.146202
H86   H     H_    0.207737 0.879596 0.065965 0.158056
H87   H     H_    0.253712 0.822920 0.080996 0.139120
H88   H     H_    0.695866 0.039232 0.455239 0.108301
O1    O     O_3   0.750030 0.750030 0.500000 -0.446564
O2    O     O_R   0.750010 0.364550 0.560050 -0.541600
O3    O     O_R   0.250010 0.135450 0.560050 -0.543205
O4    O     O_R   0.250010 0.864550 0.560050 -0.541601
O5    O     O_R   0.605390 0.780070 0.439910 -0.543930
O6    O     O_R   0.605390 0.219930 0.439910 -0.543123
O7    O     O_R   0.105390 0.280070 0.439910 -0.544157
O8    O     O_R   0.105390 0.719930 0.439910 -0.542874
O9    O     O_R   0.834580 0.719970 0.439940 -0.495036
O10   O     O_R   0.834580 0.280030 0.439940 -0.477339
O11   O     O_R   0.334580 0.219970 0.439940 -0.494966
O12   O     O_3   0.750030 0.249970 0.500000 -0.450424
O13   O     O_R   0.334580 0.780030 0.439940 -0.477400
O14   O     O_R   0.665460 0.720000 0.560050 -0.532976
O15   O     O_R   0.665460 0.280000 0.560050 -0.540872
O16   O     O_R   0.165460 0.220000 0.560050 -0.532982
O17   O     O_R   0.165460 0.780000 0.560050 -0.540856
O18   O     O_R   0.894670 0.780060 0.560110 -0.557323
O19   O     O_R   0.894670 0.219940 0.560110 -0.556349
O20   O     O_R   0.394670 0.280060 0.560110 -0.557512
O21   O     O_R   0.394670 0.719940 0.560110 -0.556164
O22   O     O_R   0.689950 0.864610 0.439940 -0.547952
O23   O     O_3   0.250030 0.250030 0.500000 -0.446546
O24   O     O_R   0.689950 0.135390 0.439940 -0.537838
O25   O     O_R   0.189950 0.364610 0.439940 -0.548056
O26   O     O_R   0.189950 0.635390 0.439940 -0.537883
O27   O     O_R   0.750020 0.635440 0.439910 -0.529874
O28   O     O_R   0.750020 0.364560 0.439910 -0.539958
O29   O     O_R   0.250020 0.135440 0.439910 -0.529868
O30   O     O_R   0.250020 0.864560 0.439910 -0.539957
O31   O     O_R   0.605400 0.780060 0.270840 -0.573510
O32   O     O_R   0.605400 0.219940 0.270840 -0.538487
O33   O     O_R   0.105400 0.280060 0.270840 -0.573337
O34   O     O_3   0.250030 0.749970 0.500000 -0.450423
O35   O     O_R   0.105400 0.719940 0.270840 -0.538794
O36   O     O_R   0.834560 0.720000 0.729150 -0.534919
O37   O     O_R   0.834560 0.280000 0.729150 -0.538439
O38   O     O_R   0.334560 0.220000 0.729150 -0.534939
O39   O     O_R   0.334560 0.780000 0.729150 -0.538387
O40   O     O_R   0.665490 0.719970 0.270840 -0.517455
O41   O     O_R   0.665490 0.280030 0.270840 -0.525531
O42   O     O_R   0.165490 0.219970 0.270840 -0.517437
O43   O     O_R   0.165490 0.780030 0.270840 -0.525535
O44   O     O_R   0.894650 0.780070 0.729170 -0.543592
O45   O     O_R   0.810120 0.864610 0.560110 -0.540025
O46   O     O_R   0.894650 0.219930 0.729170 -0.543306
O47   O     O_R   0.394650 0.280070 0.729170 -0.543444
O48   O     O_R   0.394650 0.719930 0.729170 -0.543464
O49   O     O_3   0.136804 0.770274 0.103542 -0.578386
O50   O     O_3   0.070429 0.164361 0.106644 -0.572235
O51   O     O_3   0.636805 0.270298 0.103547 -0.578375
O52   O     O_3   0.570460 0.664367 0.106655 -0.572206
O53   O     O_3   0.981514 0.751656 0.066997 -0.606283
O54   O     O_3   0.044948 0.301841 0.064383 -0.615401
O55   O     O_3   0.481516 0.251640 0.066998 -0.606238
O56   O     O_R   0.810120 0.135390 0.560110 -0.544025
O57   O     O_3   0.544936 0.801847 0.064383 -0.615379
O58   O     O_3   0.876768 0.696022 0.354137 -0.533517
O59   O     O_3   0.893844 0.322876 0.391126 -0.531427
O60   O     O_3   0.376695 0.196123 0.353991 -0.533515
O61   O     O_3   0.393806 0.822839 0.391033 -0.531412
O62   O     O_R   0.310120 0.364610 0.560110 -0.540002
O63   O     O_R   0.310120 0.635390 0.560110 -0.543984
O64   O     O_R   0.750010 0.635450 0.560050 -0.543216
Zn1   Zn    Zn3+2 0.835880 0.792950 0.585850 0.926670
Zn2   Zn    Zn3+2 0.750030 0.292900 0.414160 0.964081
Zn3   Zn    Zn3+2 0.250030 0.207100 0.414160 0.964697
Zn4   Zn    Zn3+2 0.250030 0.792900 0.414160 0.963950
Zn5   Zn    Zn3+2 0.750010 0.707110 0.585820 0.947831
Zn6   Zn    Zn3+2 0.750010 0.292890 0.585820 0.935339
Zn7   Zn    Zn3+2 0.250010 0.207110 0.585820 0.947752
Zn8   Zn    Zn3+2 0.250010 0.792890 0.585820 0.935470
Zn9   Zn    Zn3+2 0.835880 0.207050 0.585850 0.931540
Zn10  Zn    Zn3+2 0.335880 0.292950 0.585850 0.926632
Zn11  Zn    Zn3+2 0.335880 0.707050 0.585850 0.931571
Zn12  Zn    Zn3+2 0.664180 0.792950 0.414160 0.920093
Zn13  Zn    Zn3+2 0.664180 0.207050 0.414160 0.936680
Zn14  Zn    Zn3+2 0.164180 0.292950 0.414160 0.920000
Zn15  Zn    Zn3+2 0.164180 0.707050 0.414160 0.936625
Zn16  Zn    Zn3+2 0.750030 0.707100 0.414160 0.964572

loop_
_geom_bond_atom_site_label_1
_geom_bond_atom_site_label_2
_ccdc_geom_bond_type
C61   C70   S    
C58   C62   D    
C80   H59   S    
C32   H2    S    
C4    H17   S    
C73   H39   S    
O7    Zn14  S    
O41   Zn2   S    
C88   H80   S    
C77   H53   S    
O33   Zn14  S    
C70   C78   D    
C1    C8    S    
O11   Zn3   S    
C6    H19   S    
O32   Zn13  S    
C86   H74   S    
O30   Zn4   S    
O31   Zn12  S    
C4    C8    D    
O5    Zn12  S    
C81   C82   S    
C84   H68   S    
C67   H11   S    
C72   H37   S    
C50   O41   A    
O1    Zn16  S    
C35   H4    S    
C53   O44   A    
C80   H58   S    
C39   O13   A    
C90   H81   S    
C27   H45   S    
C49   C65   S    
C30   C35   D    
C72   H36   S    
C78   H13   S    
C50   C64   S    
O4    Zn8   S    
C66   H5    S    
C71   H31   S    
O40   Zn16  S    
C36   O18   A    
C81   H61   S    
C3    C7    D    
C10   C15   D    
C25   H23   S    
C76   O54   S    
C14   C36   S    
O1    Zn1   S    
C20   C25   D    
C6    C23   S    
O18   Zn1   S    
C80   O58   S    
C60   O51   S    
O15   Zn6   S    
C29   C33   D    
C2    H15   S    
C77   O55   S    
C61   O52   S    
O12   Zn2   S    
C7    H20   S    
O8    Zn15  S    
C42   O25   A    
C18   C19   S    
C17   C39   S    
C55   O47   A    
C40   O45   A    
C35   C42   S    
C15   C37   S    
C57   O48   A    
C58   C66   S    
O46   Zn9   S    
C87   H75   S    
C4    C13   S    
O36   Zn5   S    
C23   O16   A    
C86   O60   S    
C75   O53   S    
C9    O58   S    
C3    H16   S    
O56   Zn9   S    
C29   H67   S    
O29   Zn3   S    
O23   Zn14  S    
O26   Zn15  S    
C79   H57   S    
O23   Zn10  S    
C82   H64   S    
C76   H49   S    
C51   O33   A    
C37   O19   A    
C37   O10   A    
O34   Zn11  S    
C73   H40   S    
C50   O32   A    
C10   O59   S    
C88   H79   S    
C18   C22   D    
C74   H43   S    
C43   O26   A    
C85   H70   S    
C65   O57   S    
C2    C6    D    
C86   H73   S    
C33   H3    S    
C21   C26   D    
C70   H8    S    
C79   H54   S    
O28   Zn2   S    
O25   Zn14  S    
C76   H48   S    
O38   Zn7   S    
O45   Zn1   S    
C7    C12   S    
C54   C56   S    
C28   H56   S    
O10   Zn2   S    
O64   Zn5   S    
C72   H35   S    
C27   C31   D    
C36   O9    A    
C33   C43   S    
C71   H32   S    
C28   C32   D    
C51   C63   S    
C84   C85   S    
C64   O55   S    
C74   O52   S    
O37   Zn6   S    
C9    C89   S    
C91   C92   S    
C48   O4    A    
C75   H44   S    
O19   Zn9   S    
C79   H55   S    
C49   O40   A    
O17   Zn8   S    
C43   O63   A    
C11   O60   S    
C14   H22   S    
C42   O62   A    
C52   O35   A    
O22   Zn12  S    
C67   C69   D    
C89   H14   S    
C87   C88   S    
C46   O28   A    
C9    C14   D    
C77   H51   S    
C83   O59   S    
C29   C30   S    
C92   H87   S    
C59   C68   S    
O48   Zn11  S    
C11   C16   D    
C87   H76   S    
C83   H65   S    
C13   O61   S    
C12   O6    A    
C5    C34   S    
C49   O31   A    
C85   H71   S    
C71   O49   S    
O14   Zn5   S    
C91   H83   S    
O12   Zn13  S    
C41   O24   A    
C34   O8    A    
C25   C48   S    
C20   H29   S    
C44   O27   A    
C72   O50   S    
C8    H21   S    
O23   Zn7   S    
C82   H63   S    
C92   H86   S    
C47   O3    A    
C22   C46   S    
O3    Zn7   S    
C48   O30   A    
C19   H28   S    
O12   Zn9   S    
C53   O36   A    
O39   Zn8   S    
C45   H9    S    
O34   Zn8   S    
C24   C44   S    
C22   H1    S    
C30   H78   S    
O34   Zn15  S    
C83   C84   S    
O35   Zn15  S    
C79   O57   S    
C2    C10   S    
C69   H7    S    
C73   O51   S    
C44   O64   A    
C54   O37   A    
C21   H30   S    
C26   C47   S    
C73   H38   S    
C88   H77   S    
C31   C41   S    
O9    Zn16  S    
C54   O46   A    
C86   C87   S    
O63   Zn11  S    
C57   C78   S    
C40   O22   A    
C80   C81   S    
C75   H46   S    
O1    Zn12  S    
C55   C67   S    
C41   O56   A    
C1    O5    A    
O43   Zn4   S    
O21   Zn11  S    
C81   H60   S    
C57   O39   A    
C90   H82   S    
C59   C63   D    
C51   O42   A    
O1    Zn5   S    
C13   C17   D    
C31   H88   S    
C60   C64   D    
C56   C68   D    
C46   O2    A    
O42   Zn3   S    
C47   O29   A    
C19   C24   D    
O2    Zn6   S    
C77   H52   S    
C56   H10   S    
C58   O49   S    
C75   H47   S    
O47   Zn10  S    
C63   O54   S    
C23   O7    A    
C34   O17   A    
C90   C91   S    
C83   H66   S    
C60   C69   S    
O12   Zn6   S    
O27   Zn16  S    
C74   H42   S    
O16   Zn7   S    
C74   H41   S    
C12   O15   A    
O13   Zn4   S    
C91   H84   S    
C1    O14   A    
C38   O20   A    
C32   C40   S    
C39   O21   A    
C55   O38   A    
C68   H6    S    
O62   Zn10  S    
C3    C11   S    
C92   H85   S    
C45   C53   S    
C82   H62   S    
C61   C65   D    
O44   Zn1   S    
O23   Zn3   S    
C20   C21   S    
C52   O43   A    
C26   H34   S    
C38   O11   A    
C5    H18   S    
C90   O61   S    
O20   Zn10  S    
C45   C66   D    
C62   O53   S    
C85   H72   S    
C17   H26   S    
C15   H24   S    
C71   H33   S    
C52   C62   S    
O34   Zn4   S    
O6    Zn13  S    
O24   Zn13  S    
C24   H12   S    
C16   H25   S    
C59   O50   S    
C18   H27   S    
C5    C89   D    
C84   H69   S    
C16   C38   S    
C27   C28   S    
C76   H50   S    
