data_mof_unit_37036.cif
_audit_creation_date              2012-12-10T18:18:16-0500
_audit_creation_method            fapswitch 2.2
_symmetry_space_group_name_H-M    P1
_symmetry_Int_Tables_number       1
_space_group_crystal_system       triclinic
_cell_length_a                    14.010938
_cell_length_b                    15.015374
_cell_length_c                    15.500479
_cell_angle_alpha                 89.957934
_cell_angle_beta                  68.071428
_cell_angle_gamma                 90.017982
_cell_volume                      3025.04955779

loop_
_atom_site_label
_atom_site_type_symbol
_atom_type_description
_atom_site_fract_x
_atom_site_fract_y
_atom_site_fract_z
_atom_type_partial_charge
C1    C     C_R   0.500047 0.673550 0.499866 0.901482
C2    C     C_R   0.500127 0.769439 0.499705 -0.081075
C3    C     C_R   0.414686 0.184777 0.496261 -0.257610
C4    C     C_R   0.585339 0.815243 0.503686 -0.258312
C5    C     C_R   0.414105 0.092653 0.496100 0.117852
C6    C     C_R   0.585918 0.907369 0.503851 0.117847
C7    C     C_R   0.499965 0.046345 0.500081 0.061502
C8    C     C_R   0.500053 0.953677 0.499881 0.061593
C9    C     C_R   0.585738 0.092691 0.504256 0.118274
C10   C     C_R   0.414272 0.907331 0.495723 0.118291
C11   C     C_R   0.329258 0.046240 0.491955 -0.217305
C12   C     C_R   0.499955 0.326453 0.500129 0.900855
C13   C     C_R   0.670766 0.953784 0.507995 -0.217297
C14   C     C_R   0.329344 0.953708 0.491760 -0.217601
C15   C     C_R   0.670669 0.046316 0.508214 -0.217611
C16   C     C_R   0.436127 0.497998 0.676153 0.877927
C17   C     C_R   0.563877 0.498628 0.323791 0.875077
C18   C     C_R   0.174490 0.452633 0.566289 -0.071762
C19   C     C_R   0.825518 0.547357 0.433741 -0.073022
C20   C     C_R   0.229157 0.547312 0.433741 -0.066524
C21   C     C_R   0.770834 0.452571 0.566214 -0.061496
C22   C     C_R   0.129261 0.548235 0.431999 0.012765
C23   C     C_R   0.374398 0.438374 0.104533 -0.232391
C24   C     C_R   0.870723 0.451616 0.567990 0.015964
C25   C     C_R   0.050602 0.499908 0.499995 0.086291
C26   C     C_R   0.949389 0.499951 0.500008 0.085848
C27   C     C_R   0.073097 0.451593 0.568006 0.019217
C28   C     C_R   0.926898 0.548315 0.432020 0.017746
C29   C     C_R   0.106250 0.596160 0.364257 -0.213539
C30   C     C_R   0.893725 0.403702 0.635760 -0.213070
C31   C     C_R   0.005940 0.596223 0.364286 -0.211100
C32   C     C_R   0.994037 0.403687 0.635758 -0.210245
C33   C     C_R   0.397446 0.483991 0.776646 -0.061122
C34   C     C_R   0.619489 0.423128 0.899276 -0.227913
C35   C     C_R   0.602129 0.484565 0.223318 -0.062476
C36   C     C_R   0.260301 0.462199 0.926216 -0.202882
C37   C     C_R   0.736119 0.447389 0.076017 -0.201786
C38   C     C_R   0.292238 0.478363 0.830893 -0.200153
C39   C     C_R   0.706049 0.468372 0.170231 -0.198540
C40   C     C_R   0.469756 0.470570 0.817434 -0.263657
C41   C     C_R   0.529317 0.478963 0.182101 -0.259059
C42   C     C_R   0.439909 0.450792 0.911584 0.092828
C43   C     C_R   0.556417 0.452298 0.090085 0.093148
C44   C     C_R   0.333452 0.450329 0.967246 0.177258
C45   C     C_R   0.301847 0.440255 0.063183 -0.238795
C46   C     C_R   0.662054 0.440166 0.035335 0.177420
C47   C     C_R   0.513918 0.438426 0.952520 0.070788
C48   C     C_R   0.481139 0.442874 0.050197 0.067470
C49   C     C_R   0.692048 0.422350 0.940708 -0.236834
C50   C     C_R   0.585047 0.184815 0.504350 -0.258065
C51   C     C_R   0.414953 0.815205 0.495651 -0.258714
C52   C     C_R   0.499881 0.230576 0.500276 -0.078763
H1    H     H_    0.220778 0.437644 0.106798 0.148753
H2    H     H_    0.009755 0.366222 0.688730 0.138198
H3    H     H_    0.763472 0.471611 0.201376 0.154368
H4    H     H_    0.235146 0.487290 0.800010 0.153236
H5    H     H_    0.178702 0.460368 0.968028 0.133388
H6    H     H_    0.816946 0.436751 0.035057 0.133383
H7    H     H_    0.345030 0.431259 0.179242 0.152338
H8    H     H_    0.647628 0.409271 0.825652 0.137507
H9    H     H_    0.650807 0.220691 0.507656 0.162639
H10   H     H_    0.349180 0.779330 0.492373 0.163121
H11   H     H_    0.263088 0.081456 0.488872 0.147150
H12   H     H_    0.772238 0.410938 0.897921 0.144179
H13   H     H_    0.736940 0.918569 0.511070 0.147480
H14   H     H_    0.263232 0.918463 0.488544 0.147104
H15   H     H_    0.736775 0.081562 0.511440 0.146843
H16   H     H_    0.451012 0.497607 0.222575 0.155497
H17   H     H_    0.550038 0.479260 0.775218 0.159040
H18   H     H_    0.348878 0.220624 0.493066 0.163789
H19   H     H_    0.651156 0.779397 0.506861 0.164356
H20   H     H_    0.193484 0.415834 0.617822 0.128155
H21   H     H_    0.806537 0.584210 0.382236 0.129092
H22   H     H_    0.290483 0.584439 0.382319 0.132214
H23   H     H_    0.709512 0.415386 0.617583 0.127596
H24   H     H_    0.165794 0.633601 0.311281 0.142978
H25   H     H_    0.834184 0.366265 0.688751 0.135815
H26   H     H_    0.990203 0.633739 0.311356 0.141130
N1    N     N_R   0.249980 0.499930 0.499960 -0.099088
N2    N     N_R   0.750020 0.500070 0.500040 -0.098971
O1    O     O_R   0.419720 0.632140 0.499980 -0.622026
O2    O     O_R   0.580280 0.367860 0.500020 -0.623574
O3    O     O_R   0.580270 0.632160 0.499970 -0.620923
O4    O     O_R   0.419730 0.367840 0.500030 -0.622337
O5    O     O_R   0.373870 0.499980 0.632250 -0.618841
O6    O     O_R   0.626130 0.500020 0.367750 -0.619275
O7    O     O_R   0.534420 0.500000 0.632240 -0.623188
O8    O     O_R   0.465580 0.500000 0.367760 -0.623885
Zn1   Zn    Zn3+2 0.392800 0.499980 0.500010 0.941747
Zn2   Zn    Zn3+2 0.607200 0.500020 0.499990 0.942289

loop_
_geom_bond_atom_site_label_1
_geom_bond_atom_site_label_2
_ccdc_geom_bond_type
C23   C45   A    
C22   C29   A    
C17   O8    A    
C2    C4    A    
C7    C8    A    
C29   H24   S    
C13   H13   S    
C23   H7    S    
C46   C49   A    
C24   C26   A    
C5    C11   A    
C11   H11   S    
C11   C14   A    
C1    O1    A    
C12   O4    A    
C1    C2    S    
C30   H25   S    
C39   H3    S    
C18   N1    A    
C22   C25   A    
C16   O7    A    
C50   C52   A    
C43   C48   A    
C37   H6    S    
O1    Zn1   S    
C40   C42   A    
C45   H1    S    
C49   H12   S    
C34   H8    S    
C41   C43   A    
C51   H10   S    
C42   C44   A    
C10   C51   A    
C32   H2    S    
C12   C52   S    
C41   H16   S    
C18   H20   S    
C37   C39   A    
C33   C40   A    
C40   H17   S    
C18   C27   A    
C12   O2    A    
C17   O6    A    
C19   H21   S    
C3    H18   S    
C4    C6    A    
C36   H5    S    
O6    Zn2   S    
C5    C7    A    
O5    Zn1   S    
C6    C8    A    
C25   C26   A    
C35   C39   A    
C16   C33   S    
C47   C48   A    
C15   H15   S    
C14   H14   S    
C20   H22   S    
C19   C28   A    
C20   C22   A    
C13   C15   A    
C10   C14   A    
C16   O5    A    
C36   C44   A    
C1    O3    A    
O4    Zn1   S    
C21   C24   A    
C44   C45   A    
C31   H26   S    
C7    C9    A    
O3    Zn2   S    
C34   C49   A    
C23   C48   A    
C20   N1    A    
C27   C32   A    
C28   C31   A    
C9    C50   A    
C3    C5    A    
C3    C52   A    
C25   C27   A    
C21   H23   S    
C26   C28   A    
C33   C38   A    
O2    Zn2   S    
C36   C38   A    
C9    C15   A    
C29   C31   A    
C6    C13   A    
C30   C32   A    
C21   N2    A    
C42   C47   A    
N2    Zn2   S    
C19   N2    A    
C35   C41   A    
C43   C46   A    
C24   C30   A    
N1    Zn1   S    
C2    C51   A    
C38   H4    S    
O8    Zn1   S    
C8    C10   A    
O7    Zn2   S    
C50   H9    S    
C34   C47   A    
C17   C35   S    
C37   C46   A    
C4    H19   S    
