data_mof_unit_34707.cif
_audit_creation_date              2012-12-10T17:11:03-0500
_audit_creation_method            fapswitch 2.2
_symmetry_space_group_name_H-M    P1
_symmetry_Int_Tables_number       1
_space_group_crystal_system       triclinic
_cell_length_a                    11.710227
_cell_length_b                    13.009499
_cell_length_c                    13.371578
_cell_angle_alpha                 93.784291
_cell_angle_beta                  76.271784
_cell_angle_gamma                 101.503651
_cell_volume                      1938.76257452

loop_
_atom_site_label
_atom_site_type_symbol
_atom_type_description
_atom_site_fract_x
_atom_site_fract_y
_atom_site_fract_z
_atom_type_partial_charge
C1    C     C_R   0.525950 0.701105 0.493823 0.761755
C2    C     C_R   0.446204 0.506452 0.978191 0.085612
C3    C     C_R   0.470824 0.535833 0.874778 0.032520
C4    C     C_R   0.535359 0.537536 0.036173 0.044353
C5    C     C_R   0.632952 0.622114 0.001144 0.019915
C6    C     C_R   0.648994 0.660349 0.900402 -0.019348
C7    C     C_R   0.568748 0.616798 0.839511 -0.181339
C8    C     C_R   0.530993 0.485865 0.127572 -0.079036
C9    C     C_R   0.689091 0.621549 0.166074 -0.209864
C10   C     C_R   0.395372 0.484679 0.809904 -0.102133
C11   C     C_R   0.457003 0.182725 0.504606 -0.137885
C12   C     C_R   0.435796 0.494710 0.696563 0.862295
C13   C     C_R   0.548193 0.816253 0.484883 -0.139448
C14   C     C_R   0.629459 0.986039 0.550875 -0.242745
C15   C     C_R   0.636103 0.881420 0.529501 0.018145
C16   C     C_R   0.476238 0.863376 0.437562 -0.082997
C17   C     C_R   0.466843 0.969136 0.463383 0.112500
C18   C     C_R   0.543401 0.030747 0.521454 0.061306
C19   C     C_R   0.534849 0.136533 0.546125 -0.065318
C20   C     C_R   0.371201 0.117757 0.457218 -0.053212
C21   C     C_R   0.377281 0.012289 0.437992 -0.094866
C22   C     C_R   0.949147 0.610255 0.587007 -0.120549
C23   C     C_R   0.475606 0.298408 0.501853 0.880565
C24   C     C_R   0.829387 0.595320 0.580437 0.119817
C25   C     C_R   0.854660 0.454396 0.461568 0.038618
C26   C     C_R   0.976182 0.463122 0.466702 -0.010256
C27   C     C_R   0.023824 0.539982 0.533424 -0.020971
C28   C     C_R   0.143572 0.542761 0.543480 0.124856
C29   C     C_R   0.171492 0.410839 0.413332 0.026378
C30   C     C_R   0.051307 0.397853 0.406875 -0.131643
C31   C     C_R   0.563856 0.506570 0.304179 0.796273
C32   C     C_R   0.707050 0.666022 0.070241 -0.034551
C33   C     C_R   0.601729 0.532655 0.195082 -0.098556
C34   C     C_R   0.284853 0.418443 0.854657 -0.028182
C35   C     C_R   0.249171 0.411168 0.962460 -0.049986
C36   C     C_R   0.329561 0.453773 0.022849 -0.178069
Cu1   Cu    Cu3+1 0.386470 0.492430 0.492410 0.970101
Cu2   Cu    Cu3+1 0.613530 0.507570 0.507590 0.995556
H1    H     H_    0.739558 0.659884 0.221089 0.176293
H2    H     H_    0.695097 0.032292 0.588631 0.125203
H3    H     H_    0.308201 0.963100 0.405822 0.211334
H4    H     H_    0.229416 0.362493 0.365823 0.151672
H5    H     H_    0.772282 0.647324 0.622298 0.135465
H6    H     H_    0.815817 0.396410 0.411273 0.134386
H7    H     H_    0.298879 0.447434 0.105601 0.148621
H8    H     H_    0.582694 0.649203 0.764186 0.163270
N1    N     N_R   0.215880 0.481050 0.481000 -0.217117
N2    N     N_R   0.784100 0.518950 0.519000 -0.189840
O1    O     O_R   0.419710 0.645650 0.494620 -0.641991
O2    O     O_R   0.611450 0.658430 0.507430 -0.544637
O3    O     O_R   0.357340 0.490460 0.641450 -0.540441
O4    O     O_R   0.549080 0.503250 0.654260 -0.582157
O5    O     O_R   0.388550 0.341570 0.492570 -0.588911
O6    O     O_R   0.580290 0.354350 0.505380 -0.579411
O7    O     O_R   0.450920 0.496750 0.345740 -0.593226
O8    O     O_R   0.642660 0.509540 0.358550 -0.573712
C37   C     C_2   0.271227 0.154998 0.429244 0.396775
H9    H     H_    0.223677 0.209218 0.479291 0.111052
O9    O     O_2   0.237771 0.122005 0.351295 -0.501443
C38   C     C_2   0.743060 0.848139 0.547609 0.390670
H10   H     H_    0.773985 0.873916 0.616954 0.126117
O10   O     O_2   0.804455 0.801172 0.480581 -0.518095
C39   C     C_2   0.426780 0.806467 0.351208 0.340534
H11   H     H_    0.410350 0.721861 0.344251 0.113159
O11   O     O_2   0.412627 0.854226 0.280846 -0.504670
C40   C     C_2   0.185942 0.603099 0.629079 0.443434
H12   H     H_    0.246349 0.678081 0.616038 0.077609
O12   O     O_2   0.147116 0.571667 0.716966 -0.566389
C41   C     C_1   0.992911 0.704589 0.640571 0.233654
N3    N     N_1   0.027867 0.780607 0.682871 -0.241447
C42   C     C_1   0.007670 0.316296 0.339093 0.231264
N4    N     N_1   0.972535 0.250576 0.285193 -0.201696
C43   C     C_2   0.754385 0.737840 0.850534 0.358303
H13   H     H_    0.843030 0.732702 0.858440 0.106313
O13   O     O_2   0.743159 0.807284 0.798636 -0.555547
C44   C     C_1   0.791936 0.764019 0.053820 0.253368
N5    N     N_1   0.859836 0.842609 0.041671 -0.203691
C45   C     C_1   0.465707 0.379245 0.148340 0.228631
N6    N     N_1   0.414064 0.294266 0.165142 -0.207577
C46   C     C_2   0.207412 0.353112 0.791718 0.464703
H14   H     H_    0.110919 0.346263 0.814504 0.083683
O14   O     O_2   0.250069 0.301584 0.717673 -0.528887
C47   C     C_1   0.132641 0.354307 0.012837 0.246160
N7    N     N_1   0.039223 0.308826 0.052830 -0.220551
C48   C     C_2   0.602598 0.197804 0.618971 0.429748
H15   H     H_    0.697413 0.199341 0.609685 0.052982
O15   O     O_2   0.551856 0.247996 0.690264 -0.502575

loop_
_geom_bond_atom_site_label_1
_geom_bond_atom_site_label_2
_ccdc_geom_bond_type
C40   O12   D    
C39   O11   D    
C28   N1    A    
C29   H4    S    
C43   H13   S    
C14   C18   A    
C2    C4    A    
C35   C36   A    
C4    C8    A    
C30   C42   S    
C48   H15   S    
C11   C19   A    
C26   C27   A    
C29   C30   A    
C29   N1    A    
C34   C35   A    
C3    C7    A    
C5    C6    A    
Cu1   O3    S    
C37   O9    D    
Cu2   O4    S    
C9    H1    S    
C38   O10   D    
C18   C19   A    
C15   C38   S    
C9    C32   A    
C34   C46   S    
C47   N7    T    
C16   C17   A    
C31   C33   S    
C16   C39   S    
C31   O8    A    
Cu1   N1    S    
C1    O2    A    
C22   C41   S    
Cu2   N2    S    
C5    C32   A    
Cu1   O5    S    
C40   H12   S    
C9    C33   A    
C43   O13   D    
C25   H6    S    
C12   O4    A    
C23   O5    A    
C48   O15   D    
C11   C20   A    
C24   N2    A    
C7    H8    S    
C8    C45   S    
C44   N5    T    
C46   O14   D    
C35   C47   S    
C45   N6    T    
C4    C5    A    
C25   C26   A    
C17   C21   A    
C38   H10   S    
C28   C40   S    
Cu1   Cu2   S    
Cu1   O1    S    
C6    C43   S    
Cu2   O6    S    
C17   C18   A    
C36   H7    S    
C10   C34   A    
C25   N2    A    
C10   C12   S    
C21   H3    S    
C26   C30   A    
C22   C27   A    
C13   C15   A    
C22   C24   A    
C1    C13   S    
C12   O3    A    
C23   O6    A    
C2    C36   A    
C46   H14   S    
C19   C48   S    
C32   C44   S    
C6    C7    A    
Cu2   O2    S    
C2    C3    A    
C42   N4    T    
C3    C10   A    
C37   H9    S    
C11   C23   S    
C8    C33   A    
C41   N3    T    
C14   H2    S    
C39   H11   S    
Cu1   O7    S    
Cu2   O8    S    
C20   C21   A    
C13   C16   A    
C27   C28   A    
C24   H5    S    
C14   C15   A    
C31   O7    A    
C20   C37   S    
C1    O1    A    
