data_mof_unit_22883.cif
_audit_creation_date              2012-12-11T15:52:30-0500
_audit_creation_method            fapswitch 2.2
_symmetry_space_group_name_H-M    P1
_symmetry_Int_Tables_number       1
_space_group_crystal_system       triclinic
_cell_length_a                    8.273107
_cell_length_b                    19.052453
_cell_length_c                    18.956376
_cell_angle_alpha                 98.28577
_cell_angle_beta                  94.488241
_cell_angle_gamma                 91.925671
_cell_volume                      2944.65192619

loop_
_atom_site_label
_atom_site_type_symbol
_atom_type_description
_atom_site_fract_x
_atom_site_fract_y
_atom_site_fract_z
_atom_type_partial_charge
Ba1   Ba    Ba6+2 0.152000 0.534910 0.469330 1.655978
Ba2   Ba    Ba6+2 0.658180 0.465080 0.530610 1.674303
C1    C     C_3   0.323205 0.712882 0.205387 -0.292896
C2    C     C_R   0.986572 0.273560 0.474509 0.054503
C3    C     C_R   0.140117 0.186666 0.562003 -0.154150
C4    C     C_3   0.905331 0.730401 0.318543 0.294973
C5    C     C_R   0.207916 0.254183 0.557982 0.006018
C6    C     C_R   0.669092 0.811661 0.435642 -0.166479
C7    C     C_R   0.601935 0.744460 0.440955 0.000850
C8    C     C_R   0.857995 0.800131 0.536220 -0.147362
C9    C     C_R   0.823260 0.725862 0.524546 0.029454
C10   C     C_R   0.019263 0.153964 0.508894 0.002866
C11   C     C_R   0.119961 0.299761 0.520836 -0.248871
C12   C     C_3   0.370561 0.691071 0.278023 0.333968
C13   C     C_R   0.790880 0.844938 0.487726 0.005145
C14   C     C_R   0.689343 0.699382 0.478910 -0.234578
C15   C     C_R   0.235451 0.036352 0.543662 -0.083877
C16   C     C_3   0.939429 0.803774 0.297700 -0.181976
C17   C     C_R   0.333890 0.986214 0.568963 -0.067208
C18   C     C_R   0.283780 0.915561 0.554773 -0.052195
C19   C     C_R   0.131941 0.896843 0.519665 -0.077691
C20   C     C_R   0.014006 0.947183 0.511356 0.026933
C21   C     C_R   0.069091 0.020631 0.520379 0.039907
C22   C     C_R   0.848163 0.924231 0.491060 -0.003876
C23   C     C_3   0.516048 0.680882 0.633455 0.289197
C24   C     C_R   0.739978 0.978284 0.475099 0.038857
C25   C     C_R   0.795149 0.051805 0.483181 0.018794
C26   C     C_R   0.961101 0.074748 0.504387 -0.014675
C27   C     C_R   0.573572 0.962232 0.452468 -0.074226
C28   C     C_3   0.789347 0.381627 0.310235 0.316893
C29   C     C_R   0.474203 0.011769 0.426776 -0.064458
C30   C     C_R   0.524355 0.082396 0.439158 -0.065092
C31   C     C_R   0.677082 0.101920 0.472882 -0.080546
C32   C     C_R   0.607828 0.532172 0.301744 -0.296299
C33   C     C_R   0.462962 0.494323 0.276198 0.060518
C34   C     C_3   0.559732 0.759867 0.652379 -0.360732
C35   C     C_R   0.408459 0.488859 0.203775 -0.128293
C36   C     C_R   0.501067 0.519808 0.155976 -0.019646
C37   C     C_R   0.651369 0.555005 0.182153 -0.134426
C38   C     C_R   0.705058 0.560105 0.254714 0.004952
C39   C     C_R   0.468794 0.569387 0.040011 -0.080516
C40   C     C_3   0.772111 0.365544 0.228972 -0.386736
C41   C     C_R   0.414913 0.563066 0.967549 -0.062074
C42   C     C_R   0.335936 0.499889 0.931686 0.050933
C43   C     C_R   0.310119 0.443538 0.970427 -0.080758
C44   C     C_R   0.363797 0.449906 0.042997 -0.069822
C45   C     C_3   0.896641 0.272313 0.679049 0.345901
C46   C     C_R   0.443920 0.512931 0.078729 0.060234
C47   C     C_R   0.136125 0.456968 0.825162 -0.138685
C48   C     C_R   0.089160 0.451384 0.751753 0.044573
C49   C     C_R   0.335686 0.516778 0.734833 0.006251
C50   C     C_R   0.384468 0.521906 0.807608 -0.067502
C51   C     C_R   0.284747 0.492490 0.853856 -0.007676
C52   C     C_3   0.095968 0.687814 0.699984 0.262030
C53   C     C_R   0.189632 0.480946 0.707123 -0.271233
C54   C     C_3   0.132702 0.768862 0.712277 -0.241857
C55   C     C_3   0.299400 0.321899 0.372325 0.316477
C56   C     C_3   0.871181 0.198950 0.700236 -0.347220
C57   C     C_3   0.287417 0.241659 0.351716 -0.392756
C58   C     C_2   0.099272 0.659526 0.770430 0.874266
C59   C     C_2   0.999294 0.810324 0.745714 0.878218
C60   C     C_2   0.852704 0.810651 0.226681 0.904515
C61   C     C_3   0.420460 0.320317 0.724666 0.356026
C62   C     C_3   0.464469 0.306445 0.800622 -0.344816
C63   C     C_R   0.954594 0.199249 0.460452 -0.155706
H1    H     H_    0.321496 0.636062 0.278125 0.064440
H2    H     H_    0.260660 0.216088 0.398699 0.058086
H3    H     H_    0.404275 0.222535 0.332961 0.127484
H4    H     H_    0.505166 0.692361 0.285361 -0.030751
H5    H     H_    0.384138 0.679425 0.163501 0.061685
H6    H     H_    0.619726 0.654227 0.609463 0.033509
H7    H     H_    0.409302 0.673687 0.593582 0.063292
H8    H     H_    0.676362 0.767930 0.686015 0.164853
H9    H     H_    0.570480 0.783968 0.603062 0.059406
H10   H     H_    0.464704 0.787344 0.682118 0.118192
H11   H     H_    0.360486 0.769396 0.205488 0.155114
H12   H     H_    0.683684 0.320079 0.211241 0.125709
H13   H     H_    0.898699 0.845380 0.338837 -0.003588
H14   H     H_    0.816463 0.275162 0.629761 0.092598
H15   H     H_    0.025366 0.279720 0.668686 -0.058623
H16   H     H_    0.893041 0.157443 0.655028 0.074135
H17   H     H_    0.956505 0.192978 0.746992 0.113829
H18   H     H_    0.285991 0.318964 0.715707 -0.080934
H19   H     H_    0.470875 0.373918 0.719381 0.063702
H20   H     H_    0.413651 0.347605 0.839124 0.061860
H21   H     H_    0.598343 0.308173 0.811902 0.155516
H22   H     H_    0.967864 0.729281 0.372480 0.069010
H23   H     H_    0.728609 0.412264 0.205771 0.064706
H24   H     H_    0.413714 0.253480 0.807809 0.113202
H25   H     H_    0.872403 0.178301 0.414506 0.069294
H26   H     H_    0.185657 0.160468 0.605876 0.072280
H27   H     H_    0.621794 0.837257 0.391632 0.093632
H28   H     H_    0.943807 0.821481 0.580379 0.105123
H29   H     H_    0.161154 0.354780 0.524690 0.065090
H30   H     H_    0.646667 0.644743 0.476616 0.064542
H31   H     H_    0.298666 0.084983 0.538552 0.079144
H32   H     H_    0.457292 0.001051 0.590696 0.085496
H33   H     H_    0.367307 0.875192 0.565687 0.088579
H34   H     H_    0.191410 0.660703 0.670689 -0.017114
H35   H     H_    0.772699 0.721892 0.320574 -0.041292
H36   H     H_    0.107352 0.842562 0.498212 0.123326
H37   H     H_    0.511112 0.913697 0.458351 0.074388
H38   H     H_    0.350478 0.996571 0.405771 0.081507
H39   H     H_    0.440482 0.122423 0.427740 0.082519
H40   H     H_    0.700244 0.156860 0.491555 0.130304
H41   H     H_    0.499255 0.549202 0.827904 0.090602
H42   H     H_    0.528498 0.618894 0.065875 0.078131
H43   H     H_    0.294427 0.460205 0.184972 0.085646
H44   H     H_    0.251626 0.393859 0.944292 0.064718
H45   H     H_    0.155322 0.786544 0.660433 0.039745
H46   H     H_    0.072093 0.813113 0.295797 0.116691
H47   H     H_    0.345372 0.404802 0.070721 0.062397
H48   H     H_    0.055942 0.434945 0.859657 0.075889
H49   H     H_    0.729153 0.576001 0.146079 0.084879
H50   H     H_    0.151714 0.477657 0.650755 0.071935
H51   H     H_    0.650781 0.535337 0.357553 0.069715
H52   H     H_    0.669091 0.393367 0.329425 0.005817
H53   H     H_    0.874707 0.428428 0.326439 0.066303
H54   H     H_    0.891492 0.352162 0.208846 0.129016
H55   H     H_    0.980636 0.606023 0.836638 0.305625
H56   H     H_    0.245591 0.781629 0.748160 0.071641
H57   H     H_    0.860213 0.828597 0.828609 0.322184
H58   H     H_    0.392545 0.335115 0.418143 0.082039
H59   H     H_    0.744742 0.191282 0.714395 0.156170
H60   H     H_    0.434024 0.608047 0.939708 0.112543
H61   H     H_    0.638739 0.812202 0.168476 0.312982
H62   H     H_    0.180841 0.340415 0.388292 0.002448
H63   H     H_    0.190212 0.705977 0.192286 0.164750
H64   H     H_    0.188882 0.226269 0.308444 0.128532
O1    O     O_2   0.116570 0.673370 0.549300 -0.493591
O2    O     O_2   0.754136 0.449908 0.743922 -0.462776
O3    O     O_3   0.858638 0.323650 0.735205 -0.607268
O4    O     O_3   0.869340 0.584760 0.542960 -0.454242
O5    O     O_3   0.436600 0.464450 0.413780 -0.496099
O6    O     O_2   0.628980 0.533090 0.672420 -0.405908
O7    O     O_3   0.481128 0.653418 0.695631 -0.607847
O8    O     O_2   0.535148 0.240824 0.540380 -0.512944
O9    O     O_3   0.486536 0.268199 0.676443 -0.592689
O10   O     O_3   0.352540 0.630870 0.419750 -0.471750
O11   O     O_2   0.282986 0.756653 0.470849 -0.509728
O12   O     O_3   0.341168 0.352875 0.313248 -0.633795
O13   O     O_3   0.942717 0.670623 0.662914 -0.627197
O14   O     O_3   0.306158 0.738053 0.331715 -0.591740
O15   O     O_2   0.181320 0.466870 0.327560 -0.458263
O16   O     O_3   0.937730 0.595370 0.381630 -0.487268
O17   O     O_2   0.036072 0.545710 0.254009 -0.481076
O18   O     O_2   0.221793 0.668518 0.811755 -0.629565
O19   O     O_R   0.962785 0.622725 0.788326 -0.704744
O20   O     O_2   0.936881 0.856700 0.715968 -0.633446
O21   O     O_R   0.950436 0.797278 0.811735 -0.717845
O22   O     O_2   0.930403 0.819715 0.176210 -0.593153
O23   O     O_3   0.964151 0.678188 0.268215 -0.599900
O24   O     O_R   0.683237 0.807053 0.218747 -0.780097
O25   O     O_2   0.693730 0.326590 0.450680 -0.476104
O26   O     O_3   0.940960 0.415230 0.456980 -0.492371
O27   O     O_3   0.457750 0.369120 0.580200 -0.474232
O28   O     O_3   0.847922 0.321936 0.337174 -0.631351
O29   O     O_3   0.373690 0.535540 0.586160 -0.495415
O30   O     O_3   0.872560 0.404620 0.618320 -0.487937
P1    P     P_3+3 0.945400 0.662120 0.569160 0.986752
P2    P     P_3+3 0.355390 0.445380 0.336430 0.978483
P3    P     P_3+3 0.910203 0.594536 0.289031 0.953693
P4    P     P_3+3 0.864900 0.337880 0.430780 0.975042
P5    P     P_3+3 0.894496 0.408120 0.711974 0.981353
P6    P     P_3+3 0.387772 0.719526 0.414426 0.934521
P7    P     P_3+3 0.452904 0.561084 0.674751 0.994356
P8    P     P_3+3 0.419508 0.281291 0.589812 0.925870

loop_
_geom_bond_atom_site_label_1
_geom_bond_atom_site_label_2
_ccdc_geom_bond_type
C28   O28   S    
C47   H48   S    
O12   P2    S    
Ba2   O26   S    
C44   H47   S    
O15   P2    D    
Ba1   O26   S    
Ba1   O16   S    
C17   C18   A    
C45   H14   S    
C41   H60   S    
C17   H32   S    
C52   C58   S    
C43   C44   A    
C25   C31   A    
O17   P3    D    
C24   C25   A    
Ba2   O5    S    
O7    P7    S    
C10   C26   S    
C32   C38   A    
H57   O21   S    
Ba1   O29   S    
C33   C35   A    
C7    C14   A    
C22   C24   A    
C32   C33   A    
C8    C13   A    
C56   H17   S    
C36   C37   A    
C43   H44   S    
C40   H54   S    
C55   C57   S    
O16   P3    S    
C32   H51   S    
O1    P1    D    
Ba1   Ba2   S    
C54   H45   S    
C2    C11   A    
O10   P6    S    
C23   O7    S    
C40   H12   S    
O14   P6    S    
C57   H2    S    
C42   C51   S    
O6    P7    D    
Ba2   O30   S    
C30   H39   S    
C6    H27   S    
C58   O18   D    
C59   O21   S    
O28   P4    S    
C36   C46   S    
Ba1   O10   S    
C16   H13   S    
C4    O23   S    
Ba1   P2    S    
Ba2   O25   S    
C19   C20   A    
C39   C41   A    
C45   H15   S    
Ba1   O4    S    
C62   H21   S    
C15   H31   S    
C9    P1    S    
C44   C46   A    
C63   H25   S    
C4    C16   S    
C52   C54   S    
Ba2   O4    S    
C60   O22   D    
C48   P5    S    
C49   C50   A    
O25   P4    D    
C1    H5    S    
C31   H40   S    
C16   H46   S    
C3    C10   A    
Ba1   O1    S    
C8    C9    A    
C56   H16   S    
C37   C38   A    
C3    C5    A    
C1    H63   S    
C6    C7    A    
C28   H53   S    
C8    H28   S    
O26   P4    S    
C4    H22   S    
C61   H18   S    
O9    P8    S    
C4    H35   S    
C41   C42   A    
O3    P5    S    
C38   P3    S    
C35   C36   A    
C34   H10   S    
C57   H3    S    
C55   H58   S    
C9    C14   A    
C29   C30   A    
C15   C21   A    
O30   P5    S    
Ba2   O29   S    
C37   H49   S    
C12   H1    S    
C2    P4    S    
C23   H7    S    
C33   P2    S    
C21   C26   A    
C1    H11   S    
C3    H26   S    
C1    C12   S    
C34   H9    S    
C35   H43   S    
C23   H6    S    
C13   C22   S    
C52   O13   S    
H55   O19   S    
C6    C13   A    
C61   O9    S    
C20   C22   A    
C52   H34   S    
C40   H23   S    
C15   C17   A    
Ba1   O5    S    
C62   H20   S    
O8    P8    D    
C50   C51   A    
O29   P7    S    
C62   H24   S    
O11   P6    D    
C5    P8    S    
C12   O14   S    
C57   H64   S    
C14   H30   S    
Ba2   O27   S    
C39   H42   S    
C54   C59   S    
Ba1   P1    S    
C16   C60   S    
C42   C43   A    
Ba2   O6    S    
O13   P1    S    
Ba2   P4    S    
C55   H62   S    
C45   O3    S    
C60   O24   S    
C28   H52   S    
C10   C63   A    
C11   H29   S    
C56   H59   S    
C48   C53   A    
O27   P8    S    
O5    P2    S    
C55   O12   S    
C61   H19   S    
O4    P1    S    
C30   C31   A    
C7    P6    S    
C19   H36   S    
C27   C29   A    
Ba1   O15   S    
C54   H56   S    
C45   C56   S    
C2    C63   A    
C53   H50   S    
O2    P5    D    
C47   C51   A    
C12   H4    S    
C39   C46   A    
C27   H37   S    
C49   C53   A    
C34   H8    S    
C23   C34   S    
C50   H41   S    
C61   C62   S    
H61   O24   S    
C5    C11   A    
C18   H33   S    
C18   C19   A    
C24   C27   A    
C47   C48   A    
C25   C26   A    
C20   C21   A    
C28   C40   S    
C49   P7    S    
C58   O19   S    
C59   O20   D    
O23   P3    S    
C29   H38   S    
