data_mof_unit_63176.cif
_audit_creation_date              2012-10-26T20:11:37-0400
_audit_creation_method            fapswitch 2.2
_symmetry_space_group_name_H-M    P1
_symmetry_Int_Tables_number       1
_space_group_crystal_system       triclinic
_cell_length_a                    11.078619
_cell_length_b                    15.145502
_cell_length_c                    14.021511
_cell_angle_alpha                 90.440771
_cell_angle_beta                  103.220221
_cell_angle_gamma                 92.27051
_cell_volume                      2288.19894988

loop_
_atom_site_label
_atom_site_type_symbol
_atom_type_description
_atom_site_fract_x
_atom_site_fract_y
_atom_site_fract_z
_atom_type_partial_charge
Br1   Br    Br    0.957666 0.497964 0.701177 -0.327110
Br2   Br    Br    0.307246 0.361343 0.691805 -0.359453
Br3   Br    Br    0.305394 0.362784 0.232831 -0.298587
Br4   Br    Br    0.694607 0.637215 0.767169 -0.298598
Br5   Br    Br    0.042334 0.502032 0.298823 -0.327110
Br6   Br    Br    0.714354 0.256185 0.406844 -0.325951
Br7   Br    Br    0.285555 0.743774 0.593066 -0.325994
Br8   Br    Br    0.630880 0.050184 0.331545 -0.305903
Br9   Br    Br    0.368980 0.949765 0.668425 -0.305932
Br10  Br    Br    0.594155 0.689013 0.078167 -0.311012
Br11  Br    Br    0.405847 0.310986 0.921831 -0.311022
Br12  Br    Br    0.692746 0.638662 0.308196 -0.359408
C1    C     C_R   0.502577 0.330623 0.499838 0.571280
C2    C     C_R   0.581703 0.553879 0.806719 0.297549
C3    C     C_R   0.413704 0.449282 0.092581 -0.083357
C4    C     C_R   0.586298 0.550717 0.907419 -0.083360
C5    C     C_R   0.495779 0.504277 0.054019 -0.006285
C6    C     C_R   0.504223 0.495723 0.945981 -0.006283
C7    C     C_R   0.262793 0.500112 0.459569 0.579207
C8    C     C_R   0.737207 0.499888 0.540431 0.579194
C9    C     C_2   0.127270 0.500531 0.435302 0.159803
C10   C     C_2   0.872730 0.499470 0.564698 0.159794
C11   C     C_2   0.067517 0.500249 0.508526 -0.076810
C12   C     C_R   0.497422 0.669376 0.500162 0.571287
C13   C     C_2   0.932483 0.499756 0.491473 -0.076820
C14   C     C_R   0.400921 0.095747 0.518210 -0.082104
C15   C     C_R   0.599050 0.904264 0.481835 -0.082096
C16   C     C_R   0.406878 0.187153 0.524403 -0.112051
C17   C     C_R   0.593114 0.812858 0.475633 -0.112030
C18   C     C_R   0.502948 0.234719 0.496905 0.010430
C19   C     C_R   0.497028 0.765278 0.503092 0.010442
C20   C     C_R   0.585814 0.190689 0.452632 0.190778
C21   C     C_R   0.414119 0.809294 0.547333 0.190778
C22   C     C_R   0.574667 0.098238 0.441533 0.181823
C23   C     C_R   0.495356 0.048995 0.490852 0.019695
C24   C     C_R   0.425244 0.901744 0.558445 0.181843
C25   C     C_R   0.504580 0.951001 0.509161 0.019708
C26   C     C_R   0.561192 0.570736 0.120494 0.152190
C27   C     C_R   0.438808 0.429264 0.879506 0.152193
C28   C     C_R   0.572225 0.561611 0.222618 0.320701
C29   C     C_R   0.427773 0.438390 0.777382 0.320702
C30   C     C_R   0.418299 0.446120 0.193281 0.297554
Cu1   Cu    Cu3+1 0.500000 0.499990 0.596430 1.135332
Cu2   Cu    Cu3+1 0.500000 0.500010 0.403570 1.135340
H1    H     H_    0.879450 0.499584 0.416268 0.207347
H2    H     H_    0.120551 0.500425 0.583732 0.207354
H3    H     H_    0.334002 0.220820 0.547889 0.188097
H4    H     H_    0.666014 0.779201 0.452169 0.188079
H5    H     H_    0.339231 0.411710 0.045304 0.201919
H6    H     H_    0.660772 0.588288 0.954696 0.201918
H7    H     H_    0.318628 0.062912 0.531343 0.193891
H8    H     H_    0.681346 0.937115 0.468725 0.193868
N1    N     N_R   0.500000 0.500020 0.258690 -0.244897
N2    N     N_R   0.500000 0.499980 0.741310 -0.244893
O1    O     O_R   0.500010 0.371450 0.581440 -0.478369
O2    O     O_R   0.499990 0.628550 0.418560 -0.478355
O3    O     O_R   0.500010 0.371460 0.418560 -0.451133
O4    O     O_R   0.499990 0.628540 0.581440 -0.451139
O5    O     O_R   0.320690 0.500000 0.551510 -0.498567
O6    O     O_R   0.679310 0.500000 0.448490 -0.498575
O7    O     O_R   0.320690 0.500010 0.388630 -0.448444
O8    O     O_R   0.679310 0.499990 0.611370 -0.448443

loop_
_geom_bond_atom_site_label_1
_geom_bond_atom_site_label_2
_ccdc_geom_bond_type
Br12  C28   S    
Br9   C24   S    
C26   C28   A    
C6    C27   A    
C19   C21   A    
Br3   C30   S    
Cu1   O8    S    
Cu2   O7    S    
C12   O2    A    
C1    C18   S    
Cu1   N2    S    
C14   C16   A    
Cu1   O5    S    
Cu2   O3    S    
Br10  C26   S    
C7    O5    A    
C16   C18   A    
C5    C6    S    
C12   C19   S    
Br5   C9    S    
C12   O4    A    
C16   H3    S    
C11   H2    S    
Br8   C22   S    
C14   H7    S    
C3    H5    S    
C18   C20   A    
Br7   C21   S    
Br11  C27   S    
Cu2   O6    S    
Cu1   O1    S    
C24   C25   A    
C7    C9    S    
C15   C25   A    
C28   N1    A    
C5    C26   A    
C11   C13   S    
C9    C11   D    
Br4   C2    S    
Cu1   Cu2   S    
C29   N2    A    
C2    C4    A    
C30   N1    A    
C15   C17   A    
C8    C10   S    
C17   H4    S    
C7    O7    A    
C13   H1    S    
C14   C23   A    
Br1   C10   S    
C21   C24   A    
C1    O3    A    
C15   H8    S    
C23   C25   S    
C27   C29   A    
C22   C23   A    
C3    C5    A    
Cu2   O2    S    
Br6   C20   S    
Br2   C29   S    
Cu1   O4    S    
C2    N2    A    
C8    O6    A    
C17   C19   A    
Cu2   N1    S    
C4    C6    A    
C3    C30   A    
C4    H6    S    
C8    O8    A    
C1    O1    A    
C10   C13   D    
C20   C22   A    
