data_mof_unit_31335.cif
_audit_creation_date              2012-12-10T18:30:39-0500
_audit_creation_method            fapswitch 2.2
_symmetry_space_group_name_H-M    P1
_symmetry_Int_Tables_number       1
_space_group_crystal_system       triclinic
_cell_length_a                    18.673659
_cell_length_b                    18.739442
_cell_length_c                    42.771685
_cell_angle_alpha                 90.000252
_cell_angle_beta                  90.001376
_cell_angle_gamma                 90.004671
_cell_volume                      14967.2646157

loop_
_atom_site_label
_atom_site_type_symbol
_atom_type_description
_atom_site_fract_x
_atom_site_fract_y
_atom_site_fract_z
_atom_type_partial_charge
C1    C     C_R   0.000004 0.499997 0.665988 0.878356
C2    C     C_R   0.500001 0.000002 0.334174 0.881997
C3    C     C_R   0.000014 0.499995 0.334083 0.863864
C4    C     C_R   0.500000 0.000003 0.666055 0.943797
C5    C     C_R   0.499995 0.000003 0.165988 0.878435
C6    C     C_R   0.000006 0.499993 0.834173 0.881461
C7    C     C_R   0.499985 0.000005 0.834082 0.863832
C8    C     C_R   0.000002 0.499987 0.166057 0.943406
C9    C     C_R   0.000048 0.499884 0.869015 -0.335718
C10   C     C_R   0.500006 0.000030 0.131361 -0.352192
C11   C     C_R   0.000045 0.499793 0.131628 -0.308584
C12   C     C_R   0.499908 0.000044 0.868833 -0.362642
C13   C     C_R   0.500003 0.000015 0.369015 -0.336631
C14   C     C_R   0.999993 0.499968 0.631361 -0.351814
C15   C     C_R   0.500000 0.000015 0.631624 -0.303529
C16   C     C_R   0.000087 0.499955 0.368834 -0.362695
C17   C     C_R   0.500003 0.000048 0.532147 0.507687
C18   C     C_R   0.000047 0.499693 0.468616 0.504890
C19   C     C_R   0.500004 0.000048 0.469155 0.485453
C20   C     C_R   0.999925 0.499760 0.531567 0.504663
C21   C     C_R   0.000363 0.499195 0.032153 0.506620
C22   C     C_R   0.499934 0.000298 0.968616 0.505079
C23   C     C_R   0.000249 0.499331 0.969158 0.484891
C24   C     C_R   0.500060 0.000224 0.031568 0.505015
C25   C     C_R   0.143354 0.638985 0.748519 1.039588
C26   C     C_R   0.638008 0.855991 0.251731 0.985520
C27   C     C_R   0.856640 0.361023 0.748514 1.039378
C28   C     C_R   0.361999 0.144011 0.251732 0.985578
C29   C     C_R   0.856568 0.638828 0.251524 1.037138
C30   C     C_R   0.362210 0.855892 0.748157 0.998579
C31   C     C_R   0.143433 0.361170 0.251524 1.036564
C32   C     C_R   0.637787 0.144110 0.748158 0.998456
C33   C     C_R   0.643360 0.138977 0.248514 1.039440
C34   C     C_R   0.138001 0.355987 0.751732 0.985519
C35   C     C_R   0.356645 0.861015 0.248518 1.039565
C36   C     C_R   0.861998 0.644010 0.751734 0.985553
C37   C     C_R   0.356562 0.138822 0.751527 1.036711
C38   C     C_R   0.862212 0.355890 0.248158 0.998509
C39   C     C_R   0.643432 0.861170 0.751524 1.036988
C40   C     C_R   0.137789 0.644107 0.248157 0.998522
C41   C     C_3   0.151692 0.213207 0.755313 0.359007
C42   C     C_3   0.218132 0.844849 0.236294 0.366662
C43   C     C_3   0.848287 0.786778 0.755360 0.359142
C44   C     C_3   0.781895 0.155123 0.236327 0.366479
C45   C     C_3   0.848213 0.213128 0.244240 0.355620
C46   C     C_3   0.782248 0.845117 0.763298 0.377364
C47   C     C_3   0.151803 0.786856 0.244201 0.355218
C48   C     C_3   0.217716 0.154849 0.763254 0.377303
C49   C     C_3   0.651716 0.713222 0.255354 0.359071
C50   C     C_3   0.718102 0.344876 0.736329 0.366338
C51   C     C_3   0.348299 0.286787 0.255319 0.359226
C52   C     C_3   0.281868 0.655145 0.736302 0.366382
C53   C     C_3   0.348197 0.713139 0.744209 0.355125
C54   C     C_3   0.282270 0.345137 0.263260 0.377482
C55   C     C_3   0.651786 0.286871 0.744243 0.355476
C56   C     C_3   0.717753 0.654879 0.263294 0.377285
C57   C     C_3   0.235921 0.294765 0.723229 0.263783
C58   C     C_3   0.287436 0.769991 0.278657 0.281922
C59   C     C_3   0.764129 0.705274 0.723217 0.264006
C60   C     C_3   0.712524 0.230039 0.278645 0.281985
C61   C     C_3   0.765105 0.294361 0.276883 0.254814
C62   C     C_3   0.712411 0.770213 0.721329 0.266719
C63   C     C_3   0.234844 0.705673 0.276897 0.255036
C64   C     C_3   0.287631 0.229822 0.721339 0.266723
C65   C     C_3   0.735882 0.794726 0.223214 0.263974
C66   C     C_3   0.787486 0.269952 0.778643 0.282005
C67   C     C_3   0.264090 0.205237 0.223222 0.264471
C68   C     C_3   0.212559 0.730017 0.778657 0.281897
C69   C     C_3   0.265150 0.794334 0.776896 0.255161
C70   C     C_3   0.212366 0.270170 0.221333 0.266130
C71   C     C_3   0.734900 0.205633 0.776882 0.254857
C72   C     C_3   0.787583 0.729774 0.221325 0.266914
C73   C     C_3   0.240428 0.296328 0.783908 0.195582
C74   C     C_3   0.310100 0.746646 0.220699 0.170981
C75   C     C_3   0.759496 0.703604 0.783894 0.194996
C76   C     C_3   0.689953 0.253303 0.220670 0.170938
C77   C     C_3   0.759174 0.296948 0.216148 0.210868
C78   C     C_3   0.690264 0.747222 0.779432 0.178835
C79   C     C_3   0.240892 0.702990 0.216162 0.210704
C80   C     C_3   0.309673 0.252720 0.779461 0.179256
C81   C     C_3   0.740507 0.796389 0.283891 0.195022
C82   C     C_3   0.810038 0.246698 0.720666 0.170952
C83   C     C_3   0.259555 0.203654 0.283902 0.195517
C84   C     C_3   0.189903 0.753347 0.720696 0.170705
C85   C     C_3   0.259114 0.796996 0.716162 0.210583
C86   C     C_3   0.190311 0.247261 0.279451 0.179312
C87   C     C_3   0.740816 0.203052 0.716146 0.210851
C88   C     C_3   0.809739 0.752774 0.279430 0.178783
C89   C     C_3   0.189613 0.292436 0.753898 -0.458086
C90   C     C_3   0.294760 0.807104 0.246079 -0.465510
C91   C     C_3   0.810375 0.707551 0.753904 -0.457991
C92   C     C_3   0.705249 0.192883 0.246075 -0.465419
C93   C     C_3   0.810551 0.292451 0.245985 -0.463441
C94   C     C_3   0.705353 0.807386 0.753884 -0.455661
C95   C     C_3   0.189458 0.707536 0.245981 -0.463459
C96   C     C_3   0.294633 0.192599 0.753884 -0.455625
C97   C     C_3   0.689630 0.792448 0.253900 -0.457995
C98   C     C_3   0.794750 0.307115 0.746073 -0.465374
C99   C     C_3   0.310383 0.207558 0.253896 -0.458242
C100  C     C_3   0.205239 0.692895 0.746080 -0.465375
C101  C     C_3   0.310543 0.792461 0.745983 -0.463356
C102  C     C_3   0.205357 0.307389 0.253879 -0.455432
C103  C     C_3   0.689447 0.207547 0.745985 -0.463417
C104  C     C_3   0.794648 0.692609 0.253881 -0.455745
C105  C     C_R   0.064226 0.487117 0.885786 0.331550
C106  C     C_R   0.522144 0.938619 0.114737 0.366484
C107  C     C_R   0.935930 0.512503 0.885847 0.329587
C108  C     C_R   0.477934 0.061505 0.114767 0.368004
C109  C     C_R   0.949453 0.541216 0.115134 0.336922
C110  C     C_R   0.513044 0.936069 0.885567 0.340273
C111  C     C_R   0.050726 0.458170 0.115284 0.348336
C112  C     C_R   0.486679 0.064077 0.885512 0.351293
C113  C     C_R   0.564141 0.987267 0.385818 0.329732
C114  C     C_R   0.022068 0.438492 0.614768 0.367020
C115  C     C_R   0.435869 0.012779 0.385816 0.329692
C116  C     C_R   0.977855 0.561376 0.614735 0.366600
C117  C     C_R   0.449402 0.041595 0.615205 0.336378
C118  C     C_R   0.013302 0.435918 0.385512 0.351337
C119  C     C_R   0.550606 0.958456 0.615201 0.336500
C120  C     C_R   0.986957 0.563930 0.385568 0.340262
C121  C     C_R   0.062443 0.479181 0.918444 0.219793
C122  C     C_R   0.517178 0.936836 0.081973 0.307175
C123  C     C_R   0.937815 0.520010 0.918529 0.233195
C124  C     C_R   0.483041 0.063421 0.082013 0.299930
C125  C     C_R   0.953795 0.545986 0.082345 0.325760
C126  C     C_R   0.507837 0.935162 0.918345 0.304228
C127  C     C_R   0.046627 0.453026 0.082520 0.314629
C128  C     C_R   0.491792 0.065145 0.918271 0.300130
C129  C     C_R   0.562297 0.979553 0.418489 0.231810
C130  C     C_R   0.016961 0.436573 0.582015 0.299845
C131  C     C_R   0.437716 0.020521 0.418486 0.230912
C132  C     C_R   0.982813 0.563152 0.581972 0.307366
C133  C     C_R   0.453683 0.046607 0.582423 0.322078
C134  C     C_R   0.008183 0.434848 0.418271 0.300622
C135  C     C_R   0.546331 0.953468 0.582419 0.322831
C136  C     C_R   0.992156 0.564834 0.418346 0.304329
C137  C     C_R   0.000154 0.499475 0.934937 -0.303556
C138  C     C_R   0.500111 0.000159 0.065678 -0.344799
C139  C     C_R   0.000247 0.499377 0.066193 -0.343159
C140  C     C_R   0.499855 0.000208 0.934555 -0.345873
C141  C     C_R   0.500007 0.000043 0.434936 -0.303044
C142  C     C_R   0.999878 0.499828 0.565678 -0.344369
C143  C     C_R   0.500006 0.000042 0.566188 -0.335035
C144  C     C_R   0.000126 0.499785 0.434555 -0.345814
H1    H     H_    0.198477 0.291548 0.703085 0.112732
H2    H     H_    0.264467 0.810451 0.294416 0.142183
H3    H     H_    0.801606 0.708537 0.703087 0.112835
H4    H     H_    0.735481 0.189605 0.294420 0.142174
H5    H     H_    0.803021 0.289682 0.296769 0.130803
H6    H     H_    0.735989 0.810368 0.705660 0.140762
H7    H     H_    0.196895 0.710401 0.296768 0.130710
H8    H     H_    0.264066 0.189698 0.705650 0.140723
H9    H     H_    0.698405 0.791479 0.203083 0.112843
H10   H     H_    0.764538 0.310384 0.794421 0.142157
H11   H     H_    0.301542 0.208469 0.203083 0.112590
H12   H     H_    0.235525 0.689560 0.794418 0.142232
H13   H     H_    0.303094 0.789617 0.796769 0.130808
H14   H     H_    0.235919 0.310302 0.205644 0.140480
H15   H     H_    0.696989 0.210313 0.796769 0.130793
H16   H     H_    0.763986 0.689617 0.205663 0.140843
H17   H     H_    0.210671 0.262598 0.799217 0.197677
H18   H     H_    0.323235 0.774395 0.198639 0.194510
H19   H     H_    0.789235 0.737299 0.799226 0.197703
H20   H     H_    0.676859 0.225515 0.198613 0.194446
H21   H     H_    0.788790 0.263479 0.200686 0.197364
H22   H     H_    0.677549 0.775315 0.801445 0.170853
H23   H     H_    0.211290 0.736422 0.200679 0.197445
H24   H     H_    0.322339 0.224584 0.801467 0.170411
H25   H     H_    0.710770 0.762688 0.299220 0.197679
H26   H     H_    0.823126 0.274488 0.698610 0.194429
H27   H     H_    0.289310 0.237375 0.299216 0.197701
H28   H     H_    0.176769 0.725591 0.698637 0.194486
H29   H     H_    0.288713 0.763548 0.700684 0.197392
H30   H     H_    0.177636 0.275388 0.301458 0.170446
H31   H     H_    0.711193 0.236518 0.700685 0.197348
H32   H     H_    0.822456 0.724681 0.301442 0.170865
N1    N     N_R   0.050374 0.536818 0.985169 -0.075215
N2    N     N_R   0.561750 0.989278 0.015585 -0.076246
N3    N     N_R   0.950202 0.461745 0.985170 -0.076976
N4    N     N_R   0.438311 0.011231 0.015634 -0.075146
N5    N     N_R   0.949997 0.461986 0.016234 -0.068569
N6    N     N_R   0.561675 0.989216 0.984523 -0.078761
N7    N     N_R   0.050685 0.536454 0.016232 -0.074352
N8    N     N_R   0.438258 0.011368 0.984571 -0.084029
N9    N     N_R   0.550106 0.037565 0.485166 -0.076553
N10   N     N_R   0.061680 0.488785 0.515633 -0.074016
N11   N     N_R   0.449902 0.962532 0.485164 -0.076226
N12   N     N_R   0.938227 0.510680 0.515585 -0.076201
N13   N     N_R   0.449646 0.962833 0.516228 -0.069479
N14   N     N_R   0.061732 0.488651 0.484571 -0.083323
N15   N     N_R   0.550361 0.037264 0.516230 -0.069852
N16   N     N_R   0.938300 0.510745 0.484522 -0.078648
O1    O     O_3   1.000000 0.500000 0.750000 -0.587097
O2    O     O_3   0.500000 1.000000 0.250000 -0.587113
O3    O     O_3   0.000000 0.500000 0.250000 -0.582182
O4    O     O_3   0.500000 1.000000 0.750000 -0.582225
O5    O     O_R   0.000020 0.438710 0.680680 -0.587037
O6    O     O_R   0.438710 0.999980 0.319320 -0.593633
O7    O     O_R   0.999980 0.561290 0.680680 -0.587094
O8    O     O_R   0.561290 0.000020 0.319320 -0.593623
O9    O     O_R   0.999980 0.438710 0.319320 -0.594464
O10   O     O_R   0.561290 0.999980 0.680680 -0.614779
O11   O     O_R   0.000020 0.561290 0.319320 -0.593728
O12   O     O_R   0.438710 0.000020 0.680680 -0.614795
O13   O     O_R   0.500020 0.938710 0.180680 -0.587121
O14   O     O_R   0.938710 0.499980 0.819320 -0.593584
O15   O     O_R   0.499980 0.061290 0.180680 -0.586925
O16   O     O_R   0.061290 0.500020 0.819320 -0.593545
O17   O     O_R   0.499980 0.938710 0.819320 -0.593705
O18   O     O_R   0.061290 0.499980 0.180680 -0.615331
O19   O     O_R   0.500020 0.061290 0.819320 -0.594476
O20   O     O_R   0.938710 0.500020 0.180680 -0.614394
O21   O     O_R   0.086240 0.647480 0.731820 -0.575483
O22   O     O_R   0.647480 0.913760 0.268180 -0.562457
O23   O     O_R   0.913760 0.352520 0.731820 -0.575493
O24   O     O_R   0.352520 0.086240 0.268180 -0.562496
O25   O     O_R   0.913760 0.647480 0.268180 -0.584372
O26   O     O_R   0.352520 0.913760 0.731820 -0.563613
O27   O     O_R   0.086240 0.352520 0.268180 -0.584450
O28   O     O_R   0.647480 0.086240 0.731820 -0.563705
O29   O     O_R   0.586240 0.147480 0.231820 -0.575516
O30   O     O_R   0.147480 0.413760 0.768180 -0.562465
O31   O     O_R   0.413760 0.852520 0.231820 -0.575516
O32   O     O_R   0.852520 0.586240 0.768180 -0.562501
O33   O     O_R   0.413760 0.147480 0.768180 -0.584489
O34   O     O_R   0.852520 0.413760 0.231820 -0.563698
O35   O     O_R   0.586240 0.852520 0.768180 -0.584349
O36   O     O_R   0.147480 0.586240 0.231820 -0.563524
O37   O     O_R   0.852520 0.413810 0.768170 -0.602125
O38   O     O_R   0.413810 0.147480 0.231830 -0.595743
O39   O     O_R   0.147480 0.586190 0.768170 -0.602186
O40   O     O_R   0.586190 0.852520 0.231830 -0.595893
O41   O     O_R   0.147480 0.413810 0.231830 -0.598871
O42   O     O_R   0.586190 0.147480 0.768170 -0.593607
O43   O     O_R   0.852520 0.586190 0.231830 -0.598762
O44   O     O_R   0.413810 0.852520 0.768170 -0.593899
O45   O     O_R   0.352520 0.913810 0.268170 -0.602184
O46   O     O_R   0.913810 0.647480 0.731830 -0.595890
O47   O     O_R   0.647480 0.086190 0.268170 -0.602110
O48   O     O_R   0.086190 0.352520 0.731830 -0.595799
O49   O     O_R   0.647480 0.913810 0.731830 -0.598756
O50   O     O_R   0.086190 0.647480 0.268170 -0.593901
O51   O     O_R   0.352520 0.086190 0.731830 -0.598652
O52   O     O_R   0.913810 0.352520 0.268170 -0.593629
Zn1   Zn    Zn3+2 0.087550 0.500010 0.775970 1.104453
Zn2   Zn    Zn3+2 0.500010 0.912450 0.224030 1.128214
Zn3   Zn    Zn3+2 0.912450 0.499990 0.775970 1.104422
Zn4   Zn    Zn3+2 0.499990 0.087550 0.224030 1.128313
Zn5   Zn    Zn3+2 0.912450 0.500010 0.224030 1.103550
Zn6   Zn    Zn3+2 0.499990 0.912450 0.775970 1.119095
Zn7   Zn    Zn3+2 0.087550 0.499990 0.224030 1.103306
Zn8   Zn    Zn3+2 0.500010 0.087550 0.775970 1.119209
Zn9   Zn    Zn3+2 0.587550 0.000010 0.275970 1.104463
Zn10  Zn    Zn3+2 0.000010 0.412450 0.724030 1.128281
Zn11  Zn    Zn3+2 0.412450 0.999990 0.275970 1.104452
Zn12  Zn    Zn3+2 0.999990 0.587550 0.724030 1.128238
Zn13  Zn    Zn3+2 0.412450 0.000010 0.724030 1.103472
Zn14  Zn    Zn3+2 0.999990 0.412450 0.275970 1.119225
Zn15  Zn    Zn3+2 0.587550 0.999990 0.724030 1.103422
Zn16  Zn    Zn3+2 0.000010 0.587550 0.275970 1.119102
S1    S     S_3+6 0.100956 0.191554 0.717703 0.133133
O53   O     O_2   0.048536 0.247227 0.707755 -0.158694
O54   O     O_2   0.148086 0.180672 0.689722 -0.357139
O55   O     O_3   0.050027 0.118181 0.721518 -0.404014
H33   H     H_    0.044811 0.098491 0.700143 0.408257
S2    S     S_3+6 0.203594 0.930639 0.255782 0.148035
O56   O     O_2   0.130797 0.959050 0.247831 -0.181852
O57   O     O_2   0.213068 0.927254 0.290510 -0.269914
O58   O     O_3   0.260943 0.991658 0.242249 -0.500076
H34   H     H_    0.241819 0.036558 0.250525 0.449748
S3    S     S_3+6 0.899084 0.808501 0.717776 0.133140
O59   O     O_2   0.951496 0.752833 0.707819 -0.158691
O60   O     O_2   0.852003 0.819448 0.689783 -0.357381
O61   O     O_3   0.950025 0.881856 0.721642 -0.403242
H35   H     H_    0.955167 0.901673 0.700286 0.408339
S4    S     S_3+6 0.796403 0.069363 0.255844 0.148285
O62   O     O_2   0.869219 0.040948 0.247931 -0.181557
O63   O     O_2   0.786858 0.072804 0.290567 -0.270032
O64   O     O_3   0.739081 0.008324 0.242300 -0.499960
H36   H     H_    0.758272 0.963403 0.250524 0.449698
S5    S     S_3+6 0.899396 0.190688 0.281609 0.135964
O65   O     O_2   0.951540 0.246506 0.291662 -0.158890
O66   O     O_2   0.852590 0.178877 0.309624 -0.350167
O67   O     O_3   0.950607 0.117647 0.277355 -0.408370
H37   H     H_    0.957008 0.098080 0.298690 0.405016
S6    S     S_3+6 0.796738 0.930599 0.743504 0.151685
O68   O     O_2   0.869652 0.958998 0.751273 -0.177207
O69   O     O_2   0.787100 0.926621 0.708798 -0.277125
O70   O     O_3   0.739576 0.991986 0.756920 -0.491820
H38   H     H_    0.759495 0.037025 0.749166 0.450983
S7    S     S_3+6 0.100566 0.809358 0.281546 0.136558
O71   O     O_2   0.048424 0.753545 0.291602 -0.159010
O72   O     O_2   0.147325 0.821223 0.309572 -0.348694
O73   O     O_3   0.049350 0.882385 0.277248 -0.408179
H39   H     H_    0.042996 0.902052 0.298569 0.405606
S8    S     S_3+6 0.203264 0.069400 0.743422 0.152144
O74   O     O_2   0.130331 0.040977 0.751142 -0.176560
O75   O     O_2   0.212990 0.073443 0.708721 -0.276922
O76   O     O_3   0.260400 0.007995 0.756850 -0.491515
H40   H     H_    0.240401 0.962931 0.749165 0.450966
S9    S     S_3+6 0.600922 0.691507 0.217766 0.133089
O77   O     O_2   0.548492 0.747168 0.207818 -0.158651
O78   O     O_2   0.647999 0.680587 0.189771 -0.357317
O79   O     O_3   0.550007 0.618135 0.221622 -0.404006
H41   H     H_    0.544854 0.598340 0.200263 0.408212
S10   S     S_3+6 0.703599 0.430634 0.755848 0.148324
O80   O     O_2   0.630780 0.459050 0.747940 -0.181462
O81   O     O_2   0.713156 0.427190 0.790571 -0.270015
O82   O     O_3   0.760915 0.491675 0.742302 -0.499943
H42   H     H_    0.741725 0.536595 0.750528 0.449716
S11   S     S_3+6 0.399043 0.308455 0.217714 0.132894
O83   O     O_2   0.451460 0.252784 0.207764 -0.158657
O84   O     O_2   0.351917 0.319350 0.189732 -0.358399
O85   O     O_3   0.449974 0.381825 0.221538 -0.404063
H43   H     H_    0.455182 0.401531 0.200165 0.408138
S12   S     S_3+6 0.296408 0.569361 0.755794 0.147974
O86   O     O_2   0.369207 0.540953 0.747844 -0.181893
O87   O     O_2   0.286937 0.572751 0.790522 -0.269967
O88   O     O_3   0.239063 0.508335 0.742263 -0.500154
H44   H     H_    0.258191 0.463438 0.750540 0.449729
S13   S     S_3+6 0.399426 0.690651 0.781560 0.136600
O89   O     O_2   0.451568 0.746465 0.791617 -0.159013
O90   O     O_2   0.352659 0.678798 0.809583 -0.348605
O91   O     O_3   0.450640 0.617620 0.777271 -0.408216
H45   H     H_    0.456985 0.597960 0.798593 0.405661
S14   S     S_3+6 0.296726 0.430592 0.243438 0.151969
O92   O     O_2   0.369659 0.459000 0.251168 -0.176900
O93   O     O_2   0.287012 0.426562 0.208736 -0.277509
O94   O     O_3   0.239593 0.492001 0.256865 -0.491433
H46   H     H_    0.259596 0.537064 0.249181 0.450973
S15   S     S_3+6 0.600614 0.309307 0.781615 0.135991
O95   O     O_2   0.548468 0.253491 0.791666 -0.158895
O96   O     O_2   0.647428 0.321112 0.809628 -0.350068
O97   O     O_3   0.549405 0.382351 0.777366 -0.408529
H47   H     H_    0.542978 0.401891 0.798704 0.405036
S16   S     S_3+6 0.703256 0.569399 0.243499 0.151710
O98   O     O_2   0.630346 0.540998 0.251274 -0.177220
O99   O     O_2   0.712871 0.573380 0.208791 -0.277006
O100  O     O_3   0.760426 0.508012 0.256910 -0.491838
H48   H     H_    0.740493 0.462969 0.249167 0.450973
S17   S     S_3+6 0.080639 0.213827 0.785716 0.122256
O101  O     O_2   0.032033 0.276503 0.780688 -0.315477
O102  O     O_2   0.037274 0.146490 0.783344 -0.153512
O103  O     O_3   0.107470 0.221206 0.823023 -0.490576
H49   H     H_    0.063023 0.218894 0.835622 0.377623
S18   S     S_3+6 0.224973 0.878296 0.194785 0.055095
O104  O     O_2   0.160322 0.923008 0.187344 -0.193212
O105  O     O_2   0.289859 0.925445 0.192221 -0.347397
O106  O     O_3   0.234429 0.819826 0.165147 -0.519673
H50   H     H_    0.237038 0.849383 0.145979 0.410021
S19   S     S_3+6 0.919290 0.786103 0.785787 0.122090
O107  O     O_2   0.967917 0.723449 0.780748 -0.315507
O108  O     O_2   0.962647 0.853452 0.783460 -0.154381
O109  O     O_3   0.892392 0.778635 0.823081 -0.490428
H51   H     H_    0.936819 0.780889 0.835696 0.377771
S20   S     S_3+6 0.775118 0.121614 0.194825 0.055130
O110  O     O_2   0.839778 0.076884 0.187419 -0.193027
O111  O     O_2   0.710231 0.074469 0.192253 -0.347465
O112  O     O_3   0.765715 0.180036 0.165165 -0.519693
H52   H     H_    0.763142 0.150449 0.146005 0.410114
S21   S     S_3+6 0.918972 0.213998 0.213736 0.125460
O113  O     O_2   0.968180 0.276068 0.219107 -0.311838
O114  O     O_2   0.961810 0.146256 0.215642 -0.150612
O115  O     O_3   0.891801 0.222751 0.176534 -0.482423
H53   H     H_    0.936137 0.220847 0.163846 0.387448
S22   S     S_3+6 0.776241 0.879271 0.804687 0.033788
O116  O     O_2   0.841429 0.923468 0.811844 -0.188165
O117  O     O_2   0.711963 0.927171 0.807152 -0.376868
O118  O     O_3   0.766426 0.821399 0.834533 -0.558681
H54   H     H_    0.767075 0.851080 0.853696 0.390905
S23   S     S_3+6 0.081090 0.785938 0.213676 0.125434
O119  O     O_2   0.031864 0.723885 0.219055 -0.311831
O120  O     O_2   0.038256 0.853688 0.215543 -0.150672
O121  O     O_3   0.108320 0.777107 0.176486 -0.482658
H55   H     H_    0.064003 0.778979 0.163783 0.387358
S24   S     S_3+6 0.223640 0.120619 0.804632 0.033362
O122  O     O_2   0.158434 0.076413 0.811746 -0.188401
O123  O     O_2   0.287908 0.072709 0.807103 -0.377396
O124  O     O_3   0.233405 0.178434 0.834503 -0.558986
H56   H     H_    0.232694 0.148718 0.853655 0.390698
S25   S     S_3+6 0.580714 0.713892 0.285780 0.122269
O125  O     O_2   0.532102 0.776563 0.280750 -0.315571
O126  O     O_2   0.537340 0.646556 0.283442 -0.153673
O127  O     O_3   0.607614 0.721327 0.323075 -0.490446
H57   H     H_    0.563186 0.719081 0.335689 0.377810
S26   S     S_3+6 0.724866 0.378387 0.694827 0.055301
O128  O     O_2   0.660206 0.423122 0.687425 -0.192580
O129  O     O_2   0.789755 0.425529 0.692254 -0.347459
O130  O     O_3   0.734255 0.319967 0.665166 -0.519608
H58   H     H_    0.736829 0.349556 0.646007 0.410286
S27   S     S_3+6 0.419346 0.286161 0.285726 0.122293
O131  O     O_2   0.467961 0.223494 0.280695 -0.315467
O132  O     O_2   0.462704 0.353503 0.283364 -0.153468
O133  O     O_3   0.392506 0.278759 0.323031 -0.490503
H59   H     H_    0.436949 0.281073 0.335633 0.377756
S28   S     S_3+6 0.275030 0.621685 0.694794 0.055494
O134  O     O_2   0.339684 0.576974 0.687357 -0.192455
O135  O     O_2   0.210147 0.574532 0.692231 -0.347275
O136  O     O_3   0.265572 0.680144 0.665152 -0.519472
H60   H     H_    0.262966 0.650580 0.645986 0.410413
S29   S     S_3+6 0.418914 0.714046 0.713687 0.125519
O137  O     O_2   0.468130 0.776110 0.719060 -0.311939
O138  O     O_2   0.461756 0.646303 0.715565 -0.150517
O139  O     O_3   0.391686 0.722846 0.676495 -0.482328
H61   H     H_    0.436004 0.720972 0.663794 0.387600
S30   S     S_3+6 0.276332 0.379351 0.304640 0.033445
O140  O     O_2   0.341533 0.423558 0.311764 -0.188118
O141  O     O_2   0.212061 0.427257 0.307110 -0.377369
O142  O     O_3   0.266562 0.321524 0.334507 -0.559035
H62   H     H_    0.267271 0.351233 0.353661 0.390693
S31   S     S_3+6 0.581016 0.286007 0.713744 0.125601
O143  O     O_2   0.531803 0.223943 0.719118 -0.311880
O144  O     O_2   0.538186 0.353754 0.715651 -0.150012
O145  O     O_3   0.608173 0.277247 0.676540 -0.482421
H63   H     H_    0.563835 0.279177 0.663854 0.387536
S32   S     S_3+6 0.723764 0.620722 0.304682 0.033811
O146  O     O_2   0.658573 0.576531 0.311839 -0.188075
O147  O     O_2   0.788038 0.572815 0.307146 -0.376884
O148  O     O_3   0.733590 0.678593 0.334529 -0.558688
H64   H     H_    0.732940 0.648910 0.353691 0.390959
S33   S     S_3+6 0.240935 0.361323 0.815349 0.147554
O149  O     O_2   0.165687 0.374103 0.826467 -0.204637
O150  O     O_2   0.282523 0.330282 0.842243 -0.242039
O151  O     O_3   0.278294 0.439089 0.805562 -0.440597
H65   H     H_    0.306845 0.453705 0.824002 0.400974
S34   S     S_3+6 0.386994 0.688638 0.224560 0.207213
O152  O     O_2   0.418471 0.678032 0.192557 -0.200703
O153  O     O_2   0.441814 0.722245 0.244932 -0.126738
O154  O     O_3   0.368635 0.608115 0.239398 -0.419376
H66   H     H_    0.415133 0.589783 0.247094 0.427721
S35   S     S_3+6 0.758886 0.638571 0.815322 0.147804
O155  O     O_2   0.834101 0.625618 0.826444 -0.204352
O156  O     O_2   0.717363 0.669667 0.842222 -0.240419
O157  O     O_3   0.721344 0.560903 0.805519 -0.440586
H67   H     H_    0.692656 0.546390 0.823933 0.401097
S36   S     S_3+6 0.613060 0.311330 0.224474 0.207207
O158  O     O_2   0.581595 0.321802 0.192460 -0.200816
O159  O     O_2   0.558219 0.277825 0.244867 -0.126485
O160  O     O_3   0.631439 0.391913 0.239244 -0.419360
H68   H     H_    0.584904 0.410368 0.246839 0.427641
S37   S     S_3+6 0.757971 0.362164 0.184748 0.119330
O161  O     O_2   0.832993 0.376921 0.173751 -0.276691
O162  O     O_2   0.717400 0.330313 0.157748 -0.227598
O163  O     O_3   0.718130 0.438731 0.194406 -0.443023
H69   H     H_    0.700216 0.458561 0.174408 0.392536
S38   S     S_3+6 0.613138 0.689328 0.775963 0.192385
O164  O     O_2   0.580699 0.681501 0.807938 -0.225644
O165  O     O_2   0.559055 0.721365 0.754715 -0.121548
O166  O     O_3   0.631581 0.607473 0.762589 -0.425381
H70   H     H_    0.585144 0.588504 0.755128 0.427226
S39   S     S_3+6 0.242217 0.637724 0.184778 0.119231
O167  O     O_2   0.167239 0.622764 0.173775 -0.276790
O168  O     O_2   0.282709 0.669639 0.157771 -0.227923
O169  O     O_3   0.282266 0.561276 0.194455 -0.442889
H71   H     H_    0.300465 0.541588 0.174481 0.392747
S40   S     S_3+6 0.386799 0.310630 0.776050 0.191956
O170  O     O_2   0.419222 0.318318 0.808036 -0.228280
O171  O     O_2   0.440904 0.278712 0.754780 -0.120700
O172  O     O_3   0.368333 0.392535 0.762743 -0.425252
H72   H     H_    0.414913 0.411833 0.755625 0.427032
S41   S     S_3+6 0.741104 0.861410 0.315321 0.147835
O173  O     O_2   0.665882 0.874314 0.326445 -0.204335
O174  O     O_2   0.782651 0.830328 0.342219 -0.240398
O175  O     O_3   0.778595 0.939103 0.305521 -0.440557
H73   H     H_    0.807339 0.953594 0.323923 0.401067
S42   S     S_3+6 0.886933 0.188670 0.724467 0.207212
O176  O     O_2   0.918381 0.178189 0.692451 -0.200859
O177  O     O_2   0.941784 0.222180 0.744854 -0.126448
O178  O     O_3   0.868562 0.108092 0.739244 -0.419307
H74   H     H_    0.915117 0.089604 0.746800 0.427656
S43   S     S_3+6 0.259023 0.138647 0.315337 0.147325
O179  O     O_2   0.334263 0.125829 0.326459 -0.204286
O180  O     O_2   0.217448 0.169695 0.342234 -0.242716
O181  O     O_3   0.221626 0.060905 0.305540 -0.440693
H75   H     H_    0.192883 0.046396 0.323939 0.400861
S44   S     S_3+6 0.113016 0.811368 0.724548 0.207326
O182  O     O_2   0.081518 0.821943 0.692547 -0.199769
O183  O     O_2   0.058197 0.777774 0.744927 -0.127434
O184  O     O_3   0.131407 0.891911 0.739363 -0.419544
H76   H     H_    0.085186 0.909741 0.747584 0.427834
S45   S     S_3+6 0.257831 0.862233 0.684768 0.119589
O185  O     O_2   0.332825 0.877114 0.673768 -0.276695
O186  O     O_2   0.217311 0.830330 0.657765 -0.227486
O187  O     O_3   0.217853 0.938726 0.694431 -0.442432
H77   H     H_    0.199765 0.958460 0.674446 0.392825
S46   S     S_3+6 0.113187 0.189351 0.276027 0.191850
O188  O     O_2   0.080776 0.181610 0.308012 -0.228355
O189  O     O_2   0.059075 0.221309 0.254772 -0.120927
O190  O     O_3   0.131646 0.107466 0.262693 -0.425324
H78   H     H_    0.085111 0.088278 0.255460 0.427075
S47   S     S_3+6 0.742022 0.137828 0.684747 0.119332
O191  O     O_2   0.667002 0.123052 0.673749 -0.276822
O192  O     O_2   0.782582 0.169682 0.657746 -0.227578
O193  O     O_3   0.781879 0.061270 0.694407 -0.443039
H79   H     H_    0.799804 0.041445 0.674412 0.392534
S48   S     S_3+6 0.886863 0.810668 0.275961 0.192304
O194  O     O_2   0.919328 0.818458 0.307933 -0.225700
O195  O     O_2   0.940926 0.778652 0.254698 -0.121543
O196  O     O_3   0.868409 0.892540 0.262609 -0.425523
H80   H     H_    0.914823 0.911482 0.255108 0.427215
O197  O     O_3   0.275548 0.359065 0.721811 -0.532072
C145  C     C_3   0.270533 0.391920 0.692176 -0.092531
H81   H     H_    0.216697 0.416069 0.689226 0.129550
H82   H     H_    0.282033 0.354079 0.672813 0.125356
H83   H     H_    0.310771 0.435285 0.690919 0.260372
O198  O     O_3   0.355093 0.746392 0.290021 -0.493175
C146  C     C_3   0.371555 0.775915 0.319521 -0.193753
H84   H     H_    0.328130 0.766012 0.336786 0.129925
H85   H     H_    0.382186 0.833958 0.317348 0.145859
H86   H     H_    0.420972 0.750226 0.328466 0.210649
O199  O     O_3   0.724516 0.640969 0.721764 -0.532351
C147  C     C_3   0.729667 0.608108 0.692135 -0.093898
H87   H     H_    0.783516 0.583957 0.689238 0.129789
H88   H     H_    0.718253 0.645946 0.672760 0.125360
H89   H     H_    0.689436 0.564742 0.690844 0.260292
O200  O     O_3   0.644847 0.253637 0.289986 -0.493044
C148  C     C_3   0.628351 0.224139 0.319487 -0.193996
H90   H     H_    0.671761 0.234046 0.336761 0.129430
H91   H     H_    0.617712 0.166096 0.317320 0.145883
H92   H     H_    0.578932 0.249845 0.328419 0.210654
O201  O     O_3   0.726977 0.359482 0.279137 -0.539721
C149  C     C_3   0.733793 0.390753 0.309060 -0.071808
H93   H     H_    0.789278 0.410661 0.312673 0.141336
H94   H     H_    0.718826 0.352889 0.327950 0.139022
H95   H     H_    0.696879 0.436918 0.310517 0.252713
O202  O     O_3   0.644565 0.747672 0.709759 -0.515606
C150  C     C_3   0.629655 0.776496 0.679963 -0.101504
H96   H     H_    0.673114 0.764507 0.662971 0.140121
H97   H     H_    0.621021 0.834961 0.681631 0.182298
H98   H     H_    0.579581 0.752108 0.671010 0.214303
O203  O     O_3   0.272946 0.640543 0.279189 -0.539674
C151  C     C_3   0.266018 0.609298 0.309111 -0.072765
H99   H     H_    0.210507 0.589431 0.312695 0.141014
H100  H     H_    0.280957 0.647167 0.328004 0.139203
H101  H     H_    0.302893 0.563106 0.310596 0.252680
O204  O     O_3   0.355499 0.252365 0.709793 -0.515431
C152  C     C_3   0.370466 0.223539 0.680003 -0.101407
H102  H     H_    0.327033 0.235511 0.662995 0.140243
H103  H     H_    0.379115 0.165078 0.681675 0.182219
H104  H     H_    0.420545 0.247942 0.671065 0.214237
O205  O     O_3   0.775514 0.859020 0.221766 -0.532336
C153  C     C_3   0.770356 0.891902 0.192143 -0.094312
H105  H     H_    0.716507 0.916057 0.189250 0.129892
H106  H     H_    0.781763 0.854078 0.172763 0.125302
H107  H     H_    0.810589 0.935267 0.190857 0.260237
O206  O     O_3   0.855166 0.246346 0.789978 -0.492972
C154  C     C_3   0.871691 0.275851 0.819475 -0.194202
H108  H     H_    0.828286 0.265976 0.836753 0.129349
H109  H     H_    0.882361 0.333886 0.817300 0.145919
H110  H     H_    0.921101 0.250125 0.828406 0.210578
O207  O     O_3   0.224480 0.140927 0.221793 -0.531645
C155  C     C_3   0.229503 0.108096 0.192153 -0.094942
H111  H     H_    0.283342 0.083952 0.189204 0.130108
H112  H     H_    0.218006 0.145952 0.172795 0.122913
H113  H     H_    0.189269 0.064729 0.190887 0.260268
O208  O     O_3   0.144901 0.753620 0.790017 -0.493557
C156  C     C_3   0.128425 0.724091 0.819513 -0.194166
H114  H     H_    0.171849 0.733979 0.836782 0.129967
H115  H     H_    0.117781 0.666052 0.817334 0.145993
H116  H     H_    0.079012 0.749788 0.828457 0.210637
O209  O     O_3   0.227045 0.859463 0.779180 -0.540293
C157  C     C_3   0.233946 0.890710 0.809103 -0.073985
H117  H     H_    0.289450 0.910589 0.812694 0.141405
H118  H     H_    0.219001 0.852840 0.827993 0.139413
H119  H     H_    0.197060 0.936894 0.810582 0.252581
O210  O     O_3   0.144506 0.247603 0.209787 -0.516087
C158  C     C_3   0.129514 0.276433 0.180000 -0.098402
H120  H     H_    0.172974 0.264556 0.162993 0.137531
H121  H     H_    0.120763 0.334874 0.181691 0.182844
H122  H     H_    0.079480 0.251961 0.171048 0.214470
O211  O     O_3   0.773024 0.140510 0.779134 -0.539660
C159  C     C_3   0.766231 0.109251 0.809060 -0.071809
H123  H     H_    0.710748 0.089342 0.812681 0.141335
H124  H     H_    0.781209 0.147123 0.827946 0.138952
H125  H     H_    0.803148 0.063088 0.810517 0.252695
O212  O     O_3   0.855430 0.752281 0.209743 -0.515512
C160  C     C_3   0.870279 0.723476 0.179938 -0.102198
H126  H     H_    0.826814 0.735532 0.162957 0.140008
H127  H     H_    0.878851 0.664997 0.181586 0.182189
H128  H     H_    0.920369 0.747823 0.170981 0.214148
O213  O     O_3   0.128170 0.477548 0.870074 -0.511291
C161  C     C_3   0.165856 0.542854 0.870068 -0.005373
H129  H     H_    0.185504 0.556336 0.893849 0.177866
H130  H     H_    0.132630 0.587416 0.860855 0.071459
H131  H     H_    0.213191 0.537482 0.854583 0.208049
O214  O     O_3   0.546307 0.879067 0.130665 -0.502164
C162  C     C_3   0.621234 0.884576 0.134075 -0.120290
H132  H     H_    0.640201 0.839067 0.148449 0.189121
H133  H     H_    0.636732 0.934667 0.146316 0.104388
H134  H     H_    0.648657 0.881488 0.111035 0.193085
O215  O     O_3   0.871983 0.522413 0.870176 -0.510811
C163  C     C_3   0.834076 0.457235 0.870079 -0.005509
H135  H     H_    0.814460 0.443597 0.893847 0.177540
H136  H     H_    0.867121 0.412651 0.860764 0.071279
H137  H     H_    0.786707 0.462911 0.854634 0.208116
O216  O     O_3   0.453715 0.121004 0.130717 -0.501540
C164  C     C_3   0.378766 0.115525 0.134039 -0.126276
H138  H     H_    0.359736 0.161006 0.148416 0.188869
H139  H     H_    0.363173 0.065409 0.146238 0.105866
H140  H     H_    0.351479 0.118694 0.110970 0.190229
O217  O     O_3   0.900396 0.582010 0.131524 -0.602025
C165  C     C_3   0.833442 0.546844 0.131217 -0.086468
H141  H     H_    0.797151 0.574281 0.147868 0.190772
H142  H     H_    0.837748 0.490235 0.138740 0.195857
H143  H     H_    0.808231 0.549235 0.107745 0.209040
O218  O     O_3   0.528073 0.873451 0.869761 -0.523139
C166  C     C_3   0.603072 0.866864 0.867021 -0.035356
H144  H     H_    0.628510 0.858578 0.890242 0.179788
H145  H     H_    0.627154 0.914153 0.855335 0.134760
H146  H     H_    0.615094 0.819429 0.852425 0.223786
O219  O     O_3   0.099647 0.417532 0.131816 -0.590786
C167  C     C_3   0.166644 0.452618 0.131541 -0.085449
H147  H     H_    0.162275 0.509631 0.138469 0.192672
H148  H     H_    0.192512 0.448886 0.108248 0.204664
H149  H     H_    0.202404 0.425999 0.148658 0.191542
O220  O     O_3   0.471694 0.126646 0.869671 -0.511439
C168  C     C_3   0.396718 0.133128 0.866785 -0.034550
H150  H     H_    0.371059 0.141593 0.889942 0.173386
H151  H     H_    0.372781 0.085719 0.855136 0.132515
H152  H     H_    0.384789 0.180431 0.852093 0.223857
O221  O     O_3   0.628076 0.977459 0.370129 -0.510527
C169  C     C_3   0.665950 0.042657 0.370084 -0.005496
H153  H     H_    0.685535 0.056221 0.393866 0.177433
H154  H     H_    0.632889 0.087255 0.360793 0.071480
H155  H     H_    0.713337 0.037060 0.354645 0.208000
O222  O     O_3   0.046302 0.379002 0.630720 -0.502570
C170  C     C_3   0.121244 0.384515 0.634055 -0.119876
H156  H     H_    0.140284 0.339033 0.648429 0.189265
H157  H     H_    0.136806 0.434630 0.646263 0.104560
H158  H     H_    0.148547 0.381378 0.610990 0.192906
O223  O     O_3   0.371930 0.022565 0.370125 -0.510933
C171  C     C_3   0.334063 0.957363 0.370094 -0.004250
H159  H     H_    0.314448 0.943844 0.393876 0.178279
H160  H     H_    0.367140 0.912748 0.360828 0.071304
H161  H     H_    0.286697 0.962924 0.354639 0.207993
O224  O     O_3   0.953696 0.620930 0.630662 -0.502241
C172  C     C_3   0.878768 0.615433 0.634065 -0.120195
H162  H     H_    0.859806 0.660932 0.648447 0.189094
H163  H     H_    0.863251 0.565330 0.646294 0.104401
H164  H     H_    0.851357 0.618552 0.611025 0.193228
O225  O     O_3   0.400395 0.082298 0.631665 -0.602372
C173  C     C_3   0.333411 0.047190 0.631317 -0.086273
H165  H     H_    0.297153 0.074539 0.648009 0.191178
H166  H     H_    0.337675 0.990524 0.638762 0.195697
H167  H     H_    0.308187 0.049771 0.607851 0.209285
O226  O     O_3   0.028283 0.373348 0.369671 -0.511404
C174  C     C_3   0.103259 0.366856 0.366791 -0.034893
H168  H     H_    0.128907 0.358376 0.389950 0.173249
H169  H     H_    0.127208 0.414266 0.355149 0.132666
H170  H     H_    0.115184 0.319557 0.352096 0.223796
O227  O     O_3   0.599625 0.917755 0.631656 -0.602150
C175  C     C_3   0.666598 0.952886 0.631316 -0.087185
H171  H     H_    0.702864 0.925538 0.648005 0.190997
H172  H     H_    0.662315 0.009546 0.638768 0.195729
H173  H     H_    0.691824 0.950327 0.607850 0.209116
O228  O     O_3   0.971945 0.626553 0.369762 -0.523162
C176  C     C_3   0.896949 0.633156 0.367016 -0.035288
H174  H     H_    0.872861 0.585877 0.355324 0.134788
H175  H     H_    0.884940 0.680601 0.352424 0.223774
H176  H     H_    0.871505 0.641435 0.390236 0.179815
S49   S     S_3+6 0.137783 0.441137 0.938002 0.109782
O229  O     O_2   0.183153 0.500052 0.951246 -0.213308
O230  O     O_2   0.113527 0.393727 0.964314 -0.232346
O231  O     O_3   0.188171 0.392449 0.913336 -0.416945
H177  H     H_    0.156739 0.352730 0.906597 0.380814
S50   S     S_3+6 0.532317 0.855014 0.061628 0.093764
O232  O     O_2   0.524300 0.791850 0.083010 -0.174275
O233  O     O_2   0.479673 0.847635 0.035236 -0.240414
O234  O     O_3   0.615863 0.855838 0.046977 -0.539985
H178  H     H_    0.619008 0.812411 0.033846 0.398126
S51   S     S_3+6 0.862611 0.557923 0.938237 0.094369
O235  O     O_2   0.817360 0.498931 0.951492 -0.223422
O236  O     O_2   0.887088 0.605188 0.964560 -0.260004
O237  O     O_3   0.812006 0.606748 0.913707 -0.418683
H179  H     H_    0.843321 0.646603 0.907019 0.381916
S52   S     S_3+6 0.468240 0.145375 0.061729 0.103528
O238  O     O_2   0.476053 0.208440 0.083179 -0.173628
O239  O     O_2   0.521285 0.152780 0.035490 -0.229951
O240  O     O_3   0.384886 0.144744 0.046862 -0.537061
H180  H     H_    0.382995 0.186479 0.032674 0.415063
S53   S     S_3+6 0.902048 0.610507 0.061530 0.079852
O241  O     O_2   0.872143 0.666544 0.083024 -0.238244
O242  O     O_2   0.948011 0.646572 0.037388 -0.245276
O243  O     O_3   0.834216 0.568333 0.043443 -0.516196
H181  H     H_    0.812368 0.604832 0.029674 0.419864
S54   S     S_3+6 0.511374 0.852484 0.939045 0.094361
O244  O     O_2   0.454901 0.851712 0.964090 -0.240898
O245  O     O_2   0.499177 0.789938 0.917696 -0.178470
O246  O     O_3   0.592459 0.844621 0.955790 -0.535514
H182  H     H_    0.588011 0.803662 0.970299 0.404438
S55   S     S_3+6 0.098612 0.388182 0.062051 0.086840
O247  O     O_2   0.053366 0.352315 0.037603 -0.236515
O248  O     O_2   0.160185 0.425283 0.046298 -0.244518
O249  O     O_3   0.130580 0.325105 0.086321 -0.508511
H183  H     H_    0.163175 0.295875 0.073293 0.393633
S56   S     S_3+6 0.487938 0.148041 0.938757 0.092390
O250  O     O_2   0.414898 0.155843 0.953117 -0.273215
O251  O     O_2   0.543312 0.148983 0.964257 -0.232614
O252  O     O_3   0.503236 0.217643 0.914826 -0.451027
H184  H     H_    0.494960 0.260506 0.927887 0.403511
S57   S     S_3+6 0.637513 0.941479 0.438130 0.094568
O253  O     O_2   0.682861 0.000369 0.451410 -0.223326
O254  O     O_2   0.613062 0.894126 0.464427 -0.260198
O255  O     O_3   0.687999 0.892711 0.413533 -0.418402
H185  H     H_    0.656610 0.852943 0.406811 0.381915
S58   S     S_3+6 0.031794 0.354630 0.561731 0.104240
O256  O     O_2   0.023999 0.291569 0.583185 -0.173976
O257  O     O_2   0.978763 0.347198 0.535486 -0.230340
O258  O     O_3   0.115148 0.355294 0.546869 -0.531752
H186  H     H_    0.117413 0.312914 0.533063 0.414567
S59   S     S_3+6 0.362502 0.058611 0.438121 0.095849
O259  O     O_2   0.317151 0.999734 0.451408 -0.221401
O260  O     O_2   0.386957 0.105981 0.464411 -0.259104
O261  O     O_3   0.312019 0.107364 0.413515 -0.418459
H187  H     H_    0.343415 0.147119 0.406785 0.382029
S60   S     S_3+6 0.967682 0.644965 0.561623 0.093726
O262  O     O_2   0.975690 0.708133 0.583003 -0.174411
O263  O     O_2   0.020349 0.652335 0.535238 -0.240395
O264  O     O_3   0.884146 0.644136 0.546961 -0.539872
H188  H     H_    0.881021 0.687545 0.533819 0.398077
S61   S     S_3+6 0.401992 0.111351 0.561717 0.080921
O265  O     O_2   0.372192 0.167267 0.583299 -0.236947
O266  O     O_2   0.447976 0.147530 0.537615 -0.244850
O267  O     O_3   0.334080 0.069403 0.543586 -0.515665
H189  H     H_    0.312360 0.105991 0.529824 0.421038
S62   S     S_3+6 0.012027 0.351953 0.438757 0.091761
O268  O     O_2   0.085053 0.344160 0.453134 -0.274015
O269  O     O_2   0.956626 0.351006 0.464245 -0.232627
O270  O     O_3   0.996762 0.282347 0.414824 -0.451487
H190  H     H_    0.005017 0.239486 0.427888 0.402799
S63   S     S_3+6 0.598031 0.888742 0.561706 0.079877
O271  O     O_2   0.627841 0.832820 0.583282 -0.237964
O272  O     O_2   0.552051 0.852570 0.537599 -0.245026
O273  O     O_3   0.665936 0.930710 0.543580 -0.516771
H191  H     H_    0.687671 0.894128 0.529820 0.419710
S64   S     S_3+6 0.988623 0.647508 0.439049 0.094240
O274  O     O_2   0.045109 0.648279 0.464090 -0.240874
O275  O     O_2   0.000805 0.710060 0.417701 -0.178761
O276  O     O_3   0.907548 0.655363 0.455800 -0.535427
H192  H     H_    0.911998 0.696324 0.470308 0.404347

loop_
_geom_bond_atom_site_label_1
_geom_bond_atom_site_label_2
_ccdc_geom_bond_type
C28   O24   A    
S27   O133  S    
S58   O257  D    
O172  H72   S    
O234  H178  S    
C57   H1    S    
S31   O144  D    
C133  S61   S    
S7    O71   D    
C128  S56   S    
C158  H120  S    
C47   S7    S    
S64   O274  D    
S44   O183  D    
C32   O42   A    
S9    O77   D    
C17   N15   A    
C152  H104  S    
C18   N16   A    
C127  C139  A    
C64   H8    S    
C156  H114  S    
O67   H37   S    
S28   O135  D    
C153  H105  S    
C156  H116  S    
S58   O258  S    
C82   C87   S    
C3    O11   A    
O2    Zn11  S    
C159  H124  S    
O61   H35   S    
O166  H70   S    
O249  H183  S    
C73   H17   S    
C117  O225  S    
S38   O166  S    
C88   C104  S    
C27   O37   A    
C155  H113  S    
O203  C151  S    
S24   O123  D    
O91   H45   S    
C76   S36   S    
C83   H27   S    
C161  H129  S    
C81   H25   S    
C42   S2    S    
C48   C96   S    
C36   O32   A    
C23   N3    A    
C56   S16   S    
S24   O124  S    
C38   O34   A    
S55   O249  S    
C60   O200  S    
C60   C92   S    
S29   O138  D    
C117  C133  A    
C19   C141  S    
O2    Zn4   S    
O22   Zn9   S    
C132  C142  A    
S47   O192  D    
C108  C124  A    
S35   O157  S    
C105  O213  S    
O220  C168  S    
C52   S28   S    
O45   Zn11  S    
O157  H67   S    
O31   Zn2   S    
S21   O115  S    
C145  H82   S    
C132  S60   S    
C70   H14   S    
C110  O218  S    
O124  H56   S    
O28   Zn15  S    
O52   Zn14  S    
O216  C164  S    
C66   O206  S    
S50   O234  S    
C33   C92   S    
O44   Zn6   S    
C148  H91   S    
O228  C176  S    
S37   O163  S    
O85   H43   S    
O178  H74   S    
C70   O210  S    
S48   O196  S    
C37   C96   S    
C71   O211  S    
S12   O86   D    
C86   H30   S    
N10   N14   A    
S26   O129  D    
C39   C94   S    
C16   C118  A    
C5    O15   A    
S49   O230  D    
C31   O41   A    
O12   Zn13  S    
O32   Zn3   S    
C165  H142  S    
S51   O235  D    
C136  S64   S    
S60   O264  S    
C160  H128  S    
C135  S63   S    
C147  H87   S    
S14   O94   S    
C70   C102  S    
S10   O80   D    
S51   O237  S    
C59   C91   S    
O204  C152  S    
C47   S23   S    
N2    N6    A    
C87   C103  S    
C36   C91   S    
S8    O74   D    
C44   S4    S    
C26   O40   A    
O24   Zn11  S    
C74   C79   S    
C24   N2    A    
C172  H162  S    
S30   O141  D    
S26   O130  S    
C21   C139  S    
C40   C95   S    
C88   S48   S    
S64   O276  S    
C50   S26   S    
C38   O52   A    
S36   O158  D    
C165  H143  S    
S9    O79   S    
C174  H169  S    
C18   N14   A    
S38   O165  D    
C62   H6    S    
S6    O70   S    
O26   Zn13  S    
C51   S27   S    
C175  H172  S    
S16   O98   D    
O227  C175  S    
C69   C101  S    
C168  H150  S    
C114  C130  A    
O48   Zn10  S    
O2    Zn9   S    
C26   O22   A    
C17   N13   A    
S32   O146  D    
C74   C90   S    
C25   O21   A    
C173  H165  S    
O270  H190  S    
C127  S55   S    
S49   O229  D    
O212  C160  S    
S6    O69   D    
O181  H75   S    
C148  H90   S    
C78   C94   S    
C41   S1    S    
S56   O251  D    
O40   Zn2   S    
S23   O120  D    
S46   O188  D    
S54   O245  D    
C23   N1    A    
C81   C88   S    
C146  H85   S    
O133  H59   S    
C20   N10   A    
S55   O247  D    
C83   C86   S    
C151  H99   S    
S45   O185  D    
S42   O176  D    
O2    Zn2   S    
C158  H122  S    
O4    Zn6   S    
O112  H52   S    
S59   O260  D    
N3    N5    A    
C60   H4    S    
C79   H23   S    
O142  H62   S    
O221  C169  S    
C61   H5    S    
C80   H24   S    
S3    O59   D    
C123  S51   S    
C59   H3    S    
O34   Zn5   S    
C41   C89   S    
C25   C100  S    
O106  H50   S    
C63   C95   S    
C10   C108  A    
O148  H64   S    
C35   O45   A    
C45   C93   S    
S45   O187  S    
C6    C9    S    
C12   C110  A    
S29   O137  D    
C166  H146  S    
C22   N8    A    
S35   O156  D    
O154  H66   S    
C61   O201  S    
C62   O202  S    
S12   O88   S    
S12   O87   D    
S7    O72   D    
S43   O180  D    
S1    O53   D    
O30   Zn1   S    
S62   O269  D    
C58   O198  S    
S63   O272  D    
C77   H21   S    
C170  H156  S    
C147  H89   S    
O115  H53   S    
S46   O190  S    
C75   H19   S    
C121  C137  A    
S57   O254  D    
O121  H55   S    
C29   O43   A    
C65   H9    S    
C166  H144  S    
C169  H153  S    
S8    O76   S    
S40   O170  D    
C116  C132  A    
C24   N4    A    
C172  H164  S    
C83   S43   S    
O169  H71   S    
C106  O214  S    
C49   S25   S    
C6    O16   A    
C48   S8    S    
S36   O160  S    
C75   C91   S    
O17   Zn6   S    
C30   O26   A    
S39   O169  S    
C19   N11   A    
S23   O121  S    
C135  C143  A    
S20   O112  S    
O197  C145  S    
S53   O242  D    
C106  C122  A    
O213  C161  S    
S16   O100  S    
C8    O18   A    
C167  H148  S    
O187  H77   S    
C114  O222  S    
C171  H160  S    
O70   H38   S    
C157  H118  S    
S17   O102  D    
C7    C12   S    
C168  H152  S    
C50   C98   S    
S32   O148  S    
C154  H110  S    
O139  H61   S    
C64   C96   S    
S49   O231  S    
C74   H18   S    
O97   H47   S    
O175  H73   S    
C55   S15   S    
C160  H127  S    
C49   C97   S    
C52   C100  S    
C29   C104  S    
C129  S57   S    
O163  H69   S    
C42   C90   S    
C40   O36   A    
O4    Zn15  S    
C68   C100  S    
C62   C94   S    
O205  C153  S    
C20   N12   A    
C162  H133  S    
C122  S50   S    
S18   O105  D    
S35   O155  D    
C46   C94   S    
C151  H101  S    
S13   O91   S    
O4    Zn8   S    
S48   O195  D    
S61   O265  D    
O267  H189  S    
S22   O118  S    
C32   O28   A    
S2    O57   D    
C110  C126  A    
C28   C99   S    
O151  H65   S    
C108  O216  S    
S60   O263  D    
O5    Zn10  S    
O246  H182  S    
S33   O151  S    
S11   O84   D    
S48   O194  D    
C10   C106  A    
C109  O217  S    
O199  C147  S    
C80   S40   S    
C12   C112  A    
S29   O139  S    
C34   O48   A    
C52   C53   S    
S18   O106  S    
C172  H163  S    
S41   O175  S    
S27   O132  D    
S43   O179  D    
C71   C103  S    
O210  C158  S    
O79   H41   S    
C116  O224  S    
C153  H107  S    
S50   O233  D    
C1    O5    A    
O47   Zn9   S    
C163  H135  S    
C84   H28   S    
S2    O58   S    
C118  O226  S    
S1    O55   S    
C7    O19   A    
C171  H161  S    
C175  H173  S    
S5    O66   D    
C65   C72   S    
C87   H31   S    
C123  C137  A    
C134  S62   S    
N12   N16   A    
C67   C70   S    
C43   S19   S    
C66   C98   S    
O200  C148  S    
C49   S9    S    
O217  C165  S    
C34   C89   S    
C22   N6    A    
S63   O273  S    
C153  H106  S    
S28   O134  D    
S40   O172  S    
C38   C93   S    
C37   O33   A    
C15   C119  A    
O273  H191  S    
C130  C142  A    
S15   O97   S    
C169  H154  S    
C6    O14   A    
C149  H93   S    
C26   C97   S    
C134  C144  A    
S39   O167  D    
O37   Zn3   S    
N4    N8    A    
O211  C159  S    
S4    O62   D    
C57   O197  S    
O209  C157  S    
O218  C166  S    
O222  C170  S    
C161  H130  S    
C1    C14   S    
S37   O162  D    
C30   O44   A    
C8    O20   A    
C3    C16   S    
C39   O49   A    
C33   O29   A    
S3    O61   S    
C31   O27   A    
C37   O51   A    
C150  H98   S    
C82   C98   S    
O184  H76   S    
C107  C123  A    
C111  O219  S    
C176  H174  S    
C79   S39   S    
C174  H168  S    
O243  H181  S    
S21   O114  D    
C43   C46   S    
S33   O149  D    
C57   C89   S    
O208  C156  S    
C124  C138  A    
S52   O238  D    
O118  H54   S    
O73   H39   S    
C61   C93   S    
O231  H177  S    
C164  H140  S    
C129  C141  A    
S34   O152  D    
S23   O119  D    
C22   C140  S    
S61   O267  S    
S5    O65   D    
C81   S41   S    
O206  C154  S    
S53   O241  D    
S22   O116  D    
C120  O228  S    
C176  H175  S    
S19   O107  D    
C53   C101  S    
C68   C69   S    
C170  H157  S    
C147  H88   S    
C46   S6    S    
S10   O81   D    
O64   H36   S    
S51   O236  D    
O19   Zn8   S    
C41   S17   S    
C50   S10   S    
C39   O35   A    
C67   C99   S    
S8    O75   D    
S58   O256  D    
S59   O259  D    
C56   S32   S    
C83   C99   S    
O58   H34   S    
O15   Zn4   S    
S31   O145  S    
C27   O23   A    
C1    O7    A    
C64   O204  S    
C163  H137  S    
C113  O221  S    
S44   O182  D    
C7    O17   A    
C5    O13   A    
S36   O159  D    
N9    N15   A    
C51   S11   S    
S9    O78   D    
C36   O46   A    
C78   H22   S    
S10   O82   S    
C74   S34   S    
O261  H187  S    
C11   C111  A    
O264  H188  S    
C157  H119  S    
C31   C102  S    
S27   O131  D    
C84   C85   S    
C122  C138  A    
S16   O99   D    
O13   Zn2   S    
C67   O207  S    
O240  H180  S    
C66   H10   S    
O10   Zn15  S    
C146  H86   S    
C72   C104  S    
C69   O209  S    
N1    N7    A    
C149  H95   S    
C119  C135  A    
C15   C117  A    
S64   O275  D    
C159  H123  S    
C120  C136  A    
C84   C100  S    
C131  S59   S    
C162  H132  S    
C66   C71   S    
C79   C95   S    
C4    O10   A    
O100  H48   S    
C112  O220  S    
S4    O64   S    
C32   C103  S    
C48   S24   S    
O27   Zn14  S    
C175  H171  S    
S46   O189  D    
C58   C90   S    
S54   O246  S    
C56   C104  S    
S50   O232  D    
C72   O212  S    
C151  H100  S    
O33   Zn8   S    
C115  O223  S    
C78   S38   S    
C158  H121  S    
O145  H63   S    
C3    O9    A    
S47   O193  S    
C173  H167  S    
C9    C107  A    
S63   O271  D    
C176  H176  S    
C87   S47   S    
O11   Zn16  S    
O41   Zn7   S    
C65   O205  S    
O237  H179  S    
C167  H149  S    
C150  H97   S    
C145  H81   S    
C25   O39   A    
C52   S12   S    
C54   C102  S    
S52   O240  S    
C88   H32   S    
C148  H92   S    
O223  C171  S    
C166  H145  S    
S24   O122  D    
O29   Zn4   S    
S42   O178  S    
C53   S13   S    
C164  H139  S    
S19   O109  S    
S13   O89   D    
C17   C143  S    
O1    Zn10  S    
C18   C144  S    
S26   O128  D    
O198  C146  S    
C73   C89   S    
O252  H184  S    
C136  C144  A    
S15   O95   D    
C14   C114  A    
C152  H103  S    
C19   N9    A    
C165  H141  S    
C30   C101  S    
C77   C93   S    
C81   C97   S    
C154  H108  S    
C45   S21   S    
O23   Zn10  S    
C128  C140  A    
S57   O253  D    
C112  C128  A    
O88   H44   S    
C35   C90   S    
S40   O171  D    
S21   O113  D    
S31   O143  D    
S25   O126  D    
O1    Zn1   S    
S30   O140  D    
C60   C61   S    
O21   Zn12  S    
C82   S42   S    
C9    C105  A    
S44   O184  S    
O136  H60   S    
S32   O147  D    
C42   S18   S    
C145  H83   S    
O6    Zn11  S    
C174  H170  S    
S11   O83   D    
C82   H26   S    
C27   C98   S    
S38   O164  D    
C11   C109  A    
O94   H46   S    
C173  H166  S    
O3    Zn16  S    
C54   S14   S    
S28   O136  S    
O160  H68   S    
O127  H57   S    
S18   O104  D    
C146  H84   S    
C115  C131  A    
O82   H42   S    
C125  C139  A    
C21   N5    A    
C168  H151  S    
C164  H138  S    
C126  C140  A    
O25   Zn16  S    
C113  C129  A    
C159  H125  S    
C2    O8    A    
C63   O203  S    
C154  H109  S    
S25   O125  D    
C46   S22   S    
S6    O68   D    
C14   C116  A    
O7    Zn12  S    
C4    O12   A    
C85   S45   S    
O196  H80   S    
C55   C103  S    
C77   S37   S    
S56   O250  D    
O51   Zn13  S    
C2    C13   S    
S54   O244  D    
C167  H147  S    
O38   Zn4   S    
C53   S29   S    
S61   O266  D    
O16   Zn1   S    
C107  O215  S    
C41   C48   S    
O276  H192  S    
S13   O90   D    
S30   O142  S    
O3    Zn7   S    
S59   O261  S    
C85   H29   S    
S47   O191  D    
C67   H11   S    
C80   C96   S    
C125  S53   S    
O201  C149  S    
C40   O50   A    
C86   C102  S    
O8    Zn9   S    
C170  H158  S    
C29   O25   A    
S33   O150  D    
C68   H12   S    
C44   S20   S    
S39   O168  D    
C161  H131  S    
C162  H134  S    
C157  H117  S    
C156  H115  S    
S41   O174  D    
C51   C99   S    
C133  C143  A    
C45   S5    S    
O214  C162  S    
O1    Zn12  S    
C20   C142  S    
S7    O73   S    
C76   C77   S    
C163  H136  S    
S2    O56   D    
S43   O181  S    
O42   Zn8   S    
O207  C155  S    
S1    O54   D    
O76   H40   S    
S62   O268  D    
O55   H33   S    
C24   C138  S    
C152  H102  S    
C59   O199  S    
C43   C91   S    
S14   O92   D    
O46   Zn12  S    
S20   O111  D    
S57   O255  S    
C43   S3    S    
S41   O173  D    
S19   O108  D    
C33   O47   A    
C35   O31   A    
O9    Zn14  S    
S25   O127  S    
C68   O208  S    
C69   H13   S    
O219  C167  S    
O39   Zn1   S    
C63   H7    S    
O1    Zn3   S    
C105  C121  A    
C54   S30   S    
C13   C115  A    
O103  H49   S    
C55   S31   S    
S15   O96   D    
C169  H155  S    
C149  H94   S    
C76   C92   S    
O35   Zn6   S    
C109  C125  A    
C155  H111  S    
S4    O63   D    
C44   C92   S    
O109  H51   S    
O4    Zn13  S    
C111  C127  A    
S53   O243  S    
C76   H20   S    
O3    Zn14  S    
O43   Zn5   S    
O18   Zn7   S    
C85   C101  S    
C171  H159  S    
C57   C64   S    
O225  C173  S    
O190  H78   S    
S17   O103  S    
C58   C63   S    
S3    O60   D    
O193  H79   S    
C59   C62   S    
O49   Zn15  S    
C16   C120  A    
C2    O6    A    
O50   Zn16  S    
C23   C137  S    
C44   C45   S    
C130  S58   S    
S62   O270  S    
C118  C134  A    
S14   O93   D    
C58   H2    S    
O226  C174  S    
C49   C56   S    
C71   H15   S    
C150  H96   S    
S42   O177  D    
C50   C55   S    
C72   H16   S    
S56   O252  S    
C21   N7    A    
C51   C54   S    
C119  O227  S    
O255  H185  S    
O36   Zn7   S    
C4    C15   S    
S52   O239  D    
O14   Zn3   S    
C65   C97   S    
C5    C10   S    
C126  S54   S    
S37   O161  D    
O130  H58   S    
S34   O153  D    
C8    C11   S    
C84   S44   S    
O3    Zn5   S    
C155  H112  S    
S20   O110  D    
S45   O186  D    
C73   C80   S    
C121  S49   S    
C28   O38   A    
C42   C47   S    
O258  H186  S    
C75   C78   S    
S22   O117  D    
N11   N13   A    
C131  C141  A    
C75   S35   S    
O215  C163  S    
C86   S46   S    
S60   O262  D    
C73   S33   S    
C160  H126  S    
S11   O85   S    
S5    O67   S    
C47   C95   S    
O202  C150  S    
S55   O248  D    
O20   Zn5   S    
C13   C113  A    
C34   O30   A    
S17   O101  D    
O224  C172  S    
C124  S52   S    
S34   O154  S    
