data_mof_unit_21854.cif
_audit_creation_date              2012-12-10T18:33:44-0500
_audit_creation_method            fapswitch 2.2
_symmetry_space_group_name_H-M    P1
_symmetry_Int_Tables_number       1
_space_group_crystal_system       triclinic
_cell_length_a                    10.501194
_cell_length_b                    15.001559
_cell_length_c                    15.23062
_cell_angle_alpha                 82.130543
_cell_angle_beta                  89.728483
_cell_angle_gamma                 104.733742
_cell_volume                      2296.636589

loop_
_atom_site_label
_atom_site_type_symbol
_atom_type_description
_atom_site_fract_x
_atom_site_fract_y
_atom_site_fract_z
_atom_type_partial_charge
C1    C     C_R   0.482277 0.441276 0.663409 0.874793
C2    C     C_R   0.624075 0.483282 0.046564 0.041970
C3    C     C_R   0.607822 0.387334 0.079187 0.076405
C4    C     C_R   0.704464 0.607115 0.922431 0.091406
C5    C     C_R   0.577589 0.321434 0.020786 -0.270472
C6    C     C_R   0.720550 0.673132 0.980412 -0.205953
C7    C     C_R   0.703849 0.843561 0.633816 -0.296572
C8    C     C_R   0.307621 0.158945 0.359112 -0.296271
C9    C     C_R   0.669409 0.754508 0.611185 0.011709
C10   C     C_R   0.339314 0.247498 0.382937 -0.004452
C11   C     C_R   0.511888 0.793408 0.512471 -0.008805
C12   C     C_R   0.524664 0.558723 0.336834 0.858579
C13   C     C_R   0.484251 0.205743 0.490491 -0.018790
C14   C     C_R   0.544456 0.886219 0.530477 -0.033590
C15   C     C_R   0.457854 0.114375 0.468932 -0.039945
C16   C     C_R   0.742704 0.501021 0.500215 0.860562
C17   C     C_R   0.257264 0.498978 0.499801 0.866044
C18   C     C_R   0.641236 0.910399 0.594215 0.156338
C19   C     C_R   0.366352 0.091382 0.401802 0.175037
C20   C     C_R   0.484764 0.954758 0.487440 0.054487
C21   C     C_R   0.518975 0.046166 0.511254 0.044799
C22   C     C_R   0.614196 0.066977 0.575812 -0.246019
C23   C     C_R   0.547176 0.470833 0.813153 -0.280074
C24   C     C_R   0.393491 0.934974 0.420370 -0.278564
C25   C     C_R   0.675152 0.000750 0.616822 0.109273
C26   C     C_R   0.335219 0.001756 0.378002 0.094896
C27   C     C_3   0.931349 0.431427 0.561427 -0.173568
C28   C     C_3   0.068514 0.568585 0.438615 -0.174349
C29   C     C_3   0.047020 0.512259 0.580577 -0.171188
C30   C     C_3   0.952842 0.487753 0.419461 -0.169987
C31   C     C_3   0.121463 0.497679 0.499494 0.019270
C32   C     C_3   0.878434 0.502328 0.500545 0.021189
C33   C     C_3   0.008436 0.416822 0.480336 -0.133850
C34   C     C_R   0.562716 0.528402 0.186373 -0.219388
C35   C     C_3   0.991425 0.583185 0.519705 -0.133509
C36   C     C_R   0.493526 0.405069 0.757584 -0.146312
C37   C     C_R   0.568943 0.594747 0.243471 -0.171723
C38   C     C_R   0.503059 0.282079 0.877592 -0.233859
C39   C     C_R   0.676475 0.715151 0.123275 -0.233716
C40   C     C_R   0.468800 0.308672 0.790962 -0.024497
C41   C     C_R   0.628475 0.689956 0.211495 -0.002973
C42   C     C_2   0.643632 0.765334 0.266643 0.917727
C43   C     C_2   0.401394 0.233417 0.740754 0.914462
C44   C     C_R   0.586752 0.444777 0.898113 0.088233
C45   C     C_R   0.623599 0.551898 0.101756 0.099709
C46   C     C_R   0.557492 0.349038 0.931874 0.132402
C47   C     C_R   0.673609 0.647105 0.068341 0.092906
C48   C     C_R   0.640306 0.512043 0.953936 -0.012961
H1    H     H_    0.089951 0.521848 0.646178 0.143576
H2    H     H_    0.365630 0.868277 0.397458 0.148344
H3    H     H_    0.870755 0.375903 0.611554 0.139028
H4    H     H_    0.129034 0.624149 0.388497 0.139070
H5    H     H_    0.019354 0.349070 0.464309 0.151989
H6    H     H_    0.980427 0.650915 0.535748 0.152660
H7    H     H_    0.562552 0.248240 0.046310 0.152405
H8    H     H_    0.767699 0.745463 0.955850 0.156942
H9    H     H_    0.506117 0.457860 0.207789 0.184492
H10   H     H_    0.554383 0.543286 0.790459 0.174320
H11   H     H_    0.481285 0.208718 0.904300 0.166781
H12   H     H_    0.909779 0.478182 0.353884 0.146699
H13   H     H_    0.718374 0.788062 0.097833 0.150848
H14   H     H_    0.592519 0.881192 0.289194 0.338045
H15   H     H_    0.394579 0.107474 0.705588 0.343546
H16   H     H_    0.711167 0.325762 0.169164 0.195814
H17   H     H_    0.549568 0.306182 0.197051 0.185137
H18   H     H_    0.784469 0.581167 0.807412 0.194630
H19   H     H_    0.714583 0.673506 0.796561 0.169630
H20   H     H_    0.797882 0.097035 0.683628 0.198655
H21   H     H_    0.728256 0.993713 0.744141 0.190704
H22   H     H_    0.166551 0.921700 0.337549 0.202268
H23   H     H_    0.549842 0.230169 0.540960 0.133002
H24   H     H_    0.291986 0.955606 0.260249 0.202836
H25   H     H_    0.438190 0.767216 0.467193 0.127356
H26   H     H_    0.295050 0.300192 0.350222 0.133327
H27   H     H_    0.718706 0.702996 0.639787 0.126504
H28   H     H_    0.779709 0.859572 0.681351 0.169721
H29   H     H_    0.237950 0.144053 0.307538 0.176047
H30   H     H_    0.644933 0.134865 0.595859 0.149849
N1    N     N_R   0.574200 0.731700 0.552740 -0.089535
N2    N     N_R   0.425800 0.268300 0.447260 -0.092667
N3    N     N_3   0.632886 0.357076 0.169406 -0.463886
N4    N     N_3   0.770526 0.637201 0.836665 -0.465336
N5    N     N_3   0.771996 0.025227 0.681996 -0.452342
N6    N     N_3   0.243747 0.977772 0.310049 -0.469402
O1    O     O_R   0.462600 0.383110 0.605620 -0.584189
O2    O     O_R   0.573444 0.832750 0.247355 -0.821526
O3    O     O_2   0.301584 0.238631 0.701563 -0.611558
O4    O     O_R   0.448883 0.154257 0.741843 -0.829926
O5    O     O_R   0.537400 0.616890 0.394380 -0.583280
O6    O     O_R   0.510210 0.531900 0.639510 -0.626200
O7    O     O_R   0.489790 0.468100 0.360490 -0.620289
O8    O     O_R   0.662240 0.425610 0.483080 -0.625918
O9    O     O_R   0.337760 0.574390 0.516920 -0.626581
O10   O     O_R   0.709860 0.574400 0.516970 -0.611893
O11   O     O_R   0.290140 0.425600 0.483030 -0.611340
O12   O     O_2   0.720999 0.770559 0.326638 -0.612358
Zn1   Zn    Zn3+2 0.468210 0.400660 0.477370 0.966229
Zn2   Zn    Zn3+2 0.531790 0.599340 0.522630 0.966966

loop_
_geom_bond_atom_site_label_1
_geom_bond_atom_site_label_2
_ccdc_geom_bond_type
C23   H10   S    
C30   C32   S    
C1    O6    A    
N2    Zn1   S    
C27   C29   S    
C34   C37   A    
C10   H26   S    
C41   C42   S    
C14   C18   A    
N1    Zn2   S    
C39   C41   A    
C29   H1    S    
C27   C33   S    
C15   C19   A    
H14   O2    S    
C42   O12   D    
C43   O4    S    
C24   C26   A    
H15   O4    S    
C11   C14   A    
O10   Zn2   S    
C9    N1    A    
C12   C37   S    
C19   C26   A    
C12   O7    A    
C40   C43   S    
C20   C24   A    
C28   C35   S    
C44   C46   A    
C22   C25   A    
C30   H12   S    
C3    N3    S    
C34   H9    S    
C31   C33   S    
C42   O2    S    
H22   N6    S    
C13   N2    A    
C21   C22   A    
C35   H6    S    
C33   H5    S    
C18   C25   A    
C27   H3    S    
O8    Zn1   S    
C45   C47   A    
C2    C45   A    
C24   H2    S    
C39   H13   S    
C8    C19   A    
C6    C47   A    
C32   C35   S    
C14   C20   A    
C12   O5    A    
C36   C40   A    
C22   H30   S    
C4    C6    A    
C11   H25   S    
C10   N2    A    
C13   H23   S    
C2    C48   A    
C23   C44   A    
H21   N5    S    
H18   N4    S    
H17   N3    S    
C7    C18   A    
C34   C45   A    
O7    Zn1   S    
H24   N6    S    
C11   N1    A    
C17   O11   A    
C16   O8    A    
C13   C15   A    
C8    H29   S    
C17   C31   S    
C1    O1    A    
C17   O9    A    
C39   C47   A    
C4    C48   A    
C7    C9    A    
C26   N6    S    
C30   C33   S    
C27   C32   S    
H20   N5    S    
C5    H7    S    
C28   C31   S    
C6    H8    S    
C3    C5    A    
O11   Zn1   S    
C7    H28   S    
C16   C32   S    
C5    C46   A    
C29   C35   S    
C16   O10   A    
O5    Zn2   S    
C43   O3    D    
C28   C30   S    
C2    C3    A    
C29   C31   S    
C38   C40   A    
C28   H4    S    
C37   C41   A    
H16   N3    S    
C38   C46   A    
O1    Zn1   S    
C38   H11   S    
C15   C21   A    
C4    N4    S    
C20   C21   A    
H19   N4    S    
C8    C10   A    
C23   C36   A    
C25   N5    S    
C9    H27   S    
O9    Zn2   S    
O6    Zn2   S    
C44   C48   A    
C1    C36   S    
