data_mof_unit_15987.cif
_audit_creation_date              2012-10-26T20:59:36-0400
_audit_creation_method            fapswitch 2.2
_symmetry_space_group_name_H-M    P1
_symmetry_Int_Tables_number       1
_space_group_crystal_system       triclinic
_cell_length_a                    15.972132
_cell_length_b                    14.779732
_cell_length_c                    15.052372
_cell_angle_alpha                 89.815715
_cell_angle_beta                  91.375172
_cell_angle_gamma                 90.323261
_cell_volume                      3552.22376725

loop_
_atom_site_label
_atom_site_type_symbol
_atom_type_description
_atom_site_fract_x
_atom_site_fract_y
_atom_site_fract_z
_atom_type_partial_charge
C1    C     C_R   0.340931 0.499767 0.500180 0.541054
C2    C     C_R   0.086817 0.499391 0.486579 0.021309
C3    C     C_1   0.821948 0.500409 0.480572 -0.084336
C4    C     C_1   0.176916 0.498991 0.492768 -0.085258
C5    C     C_1   0.251948 0.499257 0.497018 -0.060327
C6    C     C_1   0.747296 0.500474 0.487223 -0.051998
C7    C     C_R   0.545971 0.951521 0.567248 0.003929
C8    C     C_R   0.451202 0.047818 0.435765 0.002575
C9    C     C_R   0.449135 0.950832 0.437831 0.003538
C10   C     C_R   0.540540 0.048474 0.570823 0.002119
C11   C     C_R   0.498720 0.902808 0.501647 -0.011481
C12   C     C_R   0.658792 0.500233 0.495524 0.538156
C13   C     C_R   0.496906 0.096796 0.502323 -0.014259
C14   C     C_1   0.499402 0.802426 0.500893 0.099694
C15   C     C_1   0.498672 0.197451 0.500748 0.098970
C16   C     C_R   0.497625 0.500237 0.328724 0.534908
C17   C     C_R   0.504499 0.499924 0.671510 0.539873
C18   C     C_R   0.583390 0.497079 0.817484 -0.010939
C19   C     C_R   0.420236 0.515047 0.183171 -0.001403
C20   C     C_R   0.507102 0.499321 0.768250 -0.008237
C21   C     C_R   0.495225 0.501353 0.232517 -0.003628
C22   C     C_R   0.430975 0.502830 0.810743 -0.146577
C23   C     C_R   0.353636 0.545194 0.036995 0.254411
C24   C     C_R   0.570927 0.489435 0.191099 -0.148920
C25   C     C_R   0.427833 0.506175 0.903424 -0.001382
C26   C     C_R   0.575436 0.487596 0.098585 -0.023594
C27   C     C_R   0.503383 0.498517 0.953915 -0.029090
C28   C     C_R   0.500845 0.500235 0.047244 -0.025117
C29   C     C_R   0.580689 0.486070 0.911190 0.017723
C30   C     C_R   0.424116 0.519156 0.089179 0.054191
C31   C     C_R   0.350855 0.518264 0.946647 0.013263
C32   C     C_R   0.652330 0.471269 0.056598 0.007347
C33   C     C_3   0.663773 0.527155 0.773299 -0.218764
C34   C     C_R   0.652576 0.462753 0.963350 0.255605
C35   C     C_3   0.706790 0.450560 0.723963 -0.268036
C36   C     C_3   0.798428 0.473805 0.707718 -0.448766
C37   C     C_3   0.336299 0.514291 0.229950 -0.237650
C38   C     C_3   0.285178 0.429199 0.205410 -0.307126
C39   C     C_3   0.205669 0.422185 0.259138 -0.464242
C40   C     C_3   0.268156 0.490866 0.900954 -0.270406
C41   C     C_3   0.266665 0.389994 0.875737 -0.302787
C42   C     C_3   0.182805 0.363351 0.832252 -0.459483
C43   C     C_3   0.734874 0.462003 0.109344 -0.242874
C44   C     C_3   0.767428 0.554414 0.141732 -0.298828
C45   C     C_R   0.955953 0.583745 0.484197 0.008492
C46   C     C_3   0.848177 0.544473 0.197183 -0.464181
C47   C     C_3   0.230367 0.630175 0.050251 -0.023975
C48   C     C_3   0.196448 0.708857 0.103291 -0.387181
C49   C     C_3   0.718488 0.331235 0.931077 -0.026667
C50   C     C_3   0.801971 0.291419 0.904729 -0.394103
C51   C     C_3   0.095235 0.671158 0.481507 -0.249772
C52   C     C_3   0.124503 0.700648 0.574906 -0.291845
C53   C     C_3   0.178065 0.786355 0.571092 -0.454299
C54   C     C_3   0.905570 0.333126 0.438698 -0.244908
C55   C     C_3   0.882092 0.273723 0.518195 -0.294379
C56   C     C_R   0.042679 0.416245 0.479877 0.009018
C57   C     C_3   0.848602 0.181858 0.487463 -0.463822
C58   C     C_3   0.907482 0.672015 0.491046 -0.249878
C59   C     C_3   0.879714 0.705661 0.398495 -0.294676
C60   C     C_3   0.836389 0.797073 0.403238 -0.460188
C61   C     C_3   0.090857 0.327336 0.488390 -0.249518
C62   C     C_3   0.118750 0.309590 0.585347 -0.291108
C63   C     C_3   0.159498 0.216956 0.595809 -0.458155
C64   C     C_3   0.578646 0.101687 0.648602 -0.247123
C65   C     C_3   0.670891 0.124565 0.633610 -0.292925
C66   C     C_3   0.708541 0.177268 0.711867 -0.463706
C67   C     C_R   0.044602 0.583267 0.484512 0.007895
C68   C     C_3   0.392725 0.896853 0.373777 -0.254769
C69   C     C_3   0.441397 0.863211 0.293719 -0.299894
C70   C     C_3   0.386978 0.801931 0.234403 -0.427901
C71   C     C_3   0.402474 0.100387 0.364541 -0.250853
C72   C     C_3   0.316645 0.128175 0.398743 -0.293674
C73   C     C_3   0.266112 0.179766 0.328178 -0.459979
C74   C     C_3   0.601193 0.898027 0.632952 -0.249937
C75   C     C_3   0.679399 0.861020 0.588300 -0.293710
C76   C     C_3   0.735983 0.810959 0.654958 -0.457393
C77   C     C_R   0.954422 0.417786 0.466884 0.006667
C78   C     C_R   0.911864 0.500809 0.475570 0.016854
Cu1   Cu    Cu3+1 0.500000 0.589220 0.500000 0.948423
Cu2   Cu    Cu3+1 0.500000 0.410780 0.500000 0.947346
H1    H     H_    0.374560 0.508465 0.769847 0.110955
H2    H     H_    0.222239 0.413147 0.330488 0.160626
H3    H     H_    0.167097 0.484009 0.250142 0.151261
H4    H     H_    0.168253 0.362600 0.236721 0.135344
H5    H     H_    0.267071 0.429660 0.133820 0.153486
H6    H     H_    0.324044 0.368285 0.218296 0.159265
H7    H     H_    0.344543 0.515606 0.303219 0.143431
H8    H     H_    0.300338 0.576062 0.214088 0.178290
H9    H     H_    0.130996 0.374491 0.878847 0.145318
H10   H     H_    0.171230 0.403926 0.771002 0.148671
H11   H     H_    0.183675 0.290602 0.814227 0.138708
H12   H     H_    0.625860 0.479770 0.233330 0.110849
H13   H     H_    0.316875 0.373692 0.828886 0.169197
H14   H     H_    0.276898 0.348314 0.936642 0.153190
H15   H     H_    0.214830 0.498728 0.945306 0.122313
H16   H     H_    0.255665 0.534316 0.841832 0.134109
H17   H     H_    0.836090 0.505675 0.258969 0.154047
H18   H     H_    0.896542 0.509159 0.158628 0.148031
H19   H     H_    0.872663 0.612489 0.215457 0.136042
H20   H     H_    0.780084 0.598071 0.083216 0.167749
H21   H     H_    0.720218 0.588955 0.182389 0.163412
H22   H     H_    0.727800 0.413755 0.165386 0.116092
H23   H     H_    0.803339 0.538474 0.670382 0.149051
H24   H     H_    0.784696 0.432465 0.068589 0.184304
H25   H     H_    0.199382 0.567383 0.074346 0.116226
H26   H     H_    0.214644 0.644086 0.979246 0.137997
H27   H     H_    0.225786 0.773266 0.081494 0.156367
H28   H     H_    0.127585 0.713460 0.092433 0.090870
H29   H     H_    0.209920 0.698947 0.175346 0.135791
H30   H     H_    0.667964 0.303606 0.886597 0.126298
H31   H     H_    0.706279 0.308166 0.000175 0.119467
H32   H     H_    0.852751 0.316792 0.949940 0.145290
H33   H     H_    0.799210 0.216487 0.909592 0.092213
H34   H     H_    0.833528 0.480408 0.771992 0.173733
H35   H     H_    0.816622 0.310541 0.835472 0.150342
H36   H     H_    0.234799 0.774305 0.531577 0.158300
H37   H     H_    0.141564 0.842692 0.540594 0.141329
H38   H     H_    0.198158 0.806251 0.639437 0.141888
H39   H     H_    0.069409 0.713616 0.616600 0.148947
H40   H     H_    0.162076 0.646197 0.607294 0.170897
H41   H     H_    0.150375 0.662408 0.438739 0.143338
H42   H     H_    0.059514 0.726400 0.448480 0.131996
H43   H     H_    0.790366 0.190425 0.446535 0.153614
H44   H     H_    0.896102 0.146392 0.447854 0.143777
H45   H     H_    0.827508 0.419169 0.668973 0.133793
H46   H     H_    0.834532 0.139326 0.546164 0.136489
H47   H     H_    0.937117 0.262525 0.563018 0.160783
H48   H     H_    0.833098 0.307979 0.556676 0.163978
H49   H     H_    0.847220 0.351380 0.401315 0.143154
H50   H     H_    0.941367 0.294558 0.389282 0.122359
H51   H     H_    0.778553 0.790791 0.442032 0.155868
H52   H     H_    0.878704 0.848199 0.434759 0.144166
H53   H     H_    0.819009 0.820376 0.335098 0.138529
H54   H     H_    0.934853 0.712216 0.355242 0.150272
H55   H     H_    0.835407 0.656107 0.367623 0.171523
H56   H     H_    0.703777 0.386862 0.761746 0.187643
H57   H     H_    0.851825 0.662407 0.532952 0.141887
H58   H     H_    0.944593 0.724980 0.526266 0.132320
H59   H     H_    0.114620 0.162603 0.575857 0.143763
H60   H     H_    0.215746 0.213090 0.554255 0.155424
H61   H     H_    0.178970 0.206081 0.666295 0.137486
H62   H     H_    0.164546 0.361788 0.608071 0.170493
H63   H     H_    0.063988 0.312818 0.629328 0.150984
H64   H     H_    0.054031 0.268198 0.465058 0.138332
H65   H     H_    0.146374 0.329432 0.445414 0.138266
H66   H     H_    0.671592 0.239284 0.723079 0.148511
H67   H     H_    0.673695 0.437840 0.660083 0.173497
H68   H     H_    0.708554 0.134999 0.773011 0.144608
H69   H     H_    0.774035 0.197095 0.697651 0.136523
H70   H     H_    0.707522 0.061851 0.624959 0.157792
H71   H     H_    0.675985 0.166301 0.572397 0.171775
H72   H     H_    0.544005 0.165648 0.658625 0.148871
H73   H     H_    0.570056 0.065801 0.712513 0.123151
H74   H     H_    0.366421 0.741291 0.272071 0.163675
H75   H     H_    0.331057 0.839179 0.209123 0.141764
H76   H     H_    0.423510 0.779087 0.176855 0.175281
H77   H     H_    0.463163 0.921945 0.254032 0.149916
H78   H     H_    0.650099 0.583128 0.725698 0.124782
H79   H     H_    0.497372 0.824545 0.316623 0.175718
H80   H     H_    0.364850 0.838297 0.409223 0.142465
H81   H     H_    0.337525 0.936146 0.350534 0.132183
H82   H     H_    0.299607 0.242848 0.310211 0.160540
H83   H     H_    0.256174 0.137507 0.267918 0.144392
H84   H     H_    0.204134 0.197879 0.354621 0.133170
H85   H     H_    0.280539 0.067298 0.418867 0.151192
H86   H     H_    0.325426 0.172194 0.457910 0.169103
H87   H     H_    0.438158 0.161619 0.344572 0.147658
H88   H     H_    0.395090 0.061201 0.302160 0.133569
H89   H     H_    0.707405 0.557945 0.823405 0.178138
H90   H     H_    0.756366 0.856872 0.709706 0.144245
H91   H     H_    0.702355 0.751834 0.683059 0.154593
H92   H     H_    0.792495 0.786492 0.621177 0.134152
H93   H     H_    0.661324 0.813454 0.534307 0.173202
H94   H     H_    0.715416 0.917498 0.558472 0.149618
H95   H     H_    0.622772 0.938148 0.690828 0.137951
H96   H     H_    0.564284 0.841293 0.661235 0.146883
N1    N     N_1   0.500000 0.276710 0.500000 -0.202372
N2    N     N_1   0.500000 0.723290 0.500000 -0.203831
O1    O     O_R   0.380310 0.575320 0.500020 -0.493291
O2    O     O_3   0.722259 0.426842 0.923762 -0.582844
O3    O     O_R   0.619690 0.424680 0.499980 -0.500203
O4    O     O_R   0.619690 0.575320 0.499980 -0.492507
O5    O     O_R   0.380310 0.424680 0.500020 -0.489836
O6    O     O_R   0.499980 0.575350 0.370250 -0.496598
O7    O     O_R   0.500020 0.424650 0.629750 -0.498159
O8    O     O_R   0.500020 0.575350 0.629750 -0.493792
O9    O     O_R   0.499980 0.424650 0.370250 -0.494834
O10   O     O_3   0.317867 0.626566 0.063200 -0.567919

loop_
_geom_bond_atom_site_label_1
_geom_bond_atom_site_label_2
_ccdc_geom_bond_type
C25   C31   A    
C7    C10   A    
C46   H19   S    
C26   C32   A    
C16   C21   S    
Cu1   O8    S    
C75   H93   S    
C44   H20   S    
C41   C42   S    
C37   H8    S    
C34   O2    S    
C35   C36   S    
C62   H63   S    
C43   C44   S    
C3    C6    T    
C33   H89   S    
C60   H52   S    
C1    O5    A    
C41   H14   S    
C48   H28   S    
C77   C78   A    
Cu1   O6    S    
C7    C11   A    
C62   C63   S    
C38   H6    S    
C36   H23   S    
C1    C5    S    
C19   C21   A    
C24   C26   A    
C39   H4    S    
C50   H35   S    
C73   H84   S    
C6    C12   S    
C23   O10   S    
C11   C14   S    
C53   H37   S    
C48   H27   S    
C27   C29   A    
C17   C20   S    
C31   C40   S    
C42   H11   S    
C63   H60   S    
Cu2   O5    S    
C59   H55   S    
C65   H70   S    
C76   H92   S    
C61   H65   S    
C43   H24   S    
C19   C37   S    
C69   H79   S    
Cu2   O9    S    
C12   O4    A    
C47   C48   S    
C17   O7    A    
C8    C9    A    
C47   H25   S    
C22   C25   A    
C45   C67   A    
C69   H77   S    
Cu2   O7    S    
C45   C78   A    
C43   H22   S    
C66   H68   S    
C53   H36   S    
C49   H31   S    
C49   O2    S    
C58   H58   S    
C48   H29   S    
C46   H18   S    
C36   H34   S    
C59   C60   S    
C71   H87   S    
C75   H94   S    
C61   C62   S    
C72   H86   S    
C62   H62   S    
C24   H12   S    
C60   H51   S    
C50   H33   S    
C44   C46   S    
C7    C74   S    
C54   H50   S    
C41   H13   S    
C45   C58   S    
C36   H45   S    
C74   C75   S    
C38   H5    S    
C70   H75   S    
C22   H1    S    
C66   H69   S    
C2    C67   A    
C57   H46   S    
C53   H38   S    
C68   C69   S    
C35   H67   S    
C23   C31   A    
C58   C59   S    
C68   H81   S    
C64   H73   S    
C10   C13   A    
C56   C77   A    
C51   C52   S    
C42   H10   S    
C32   C34   A    
C65   H71   S    
C76   H91   S    
C2    C4    S    
C75   C76   S    
C23   C30   A    
C74   H96   S    
C37   C38   S    
C57   H43   S    
C61   H64   S    
C12   O3    A    
C13   C15   S    
C17   O8    A    
C47   H26   S    
C50   H32   S    
C63   H61   S    
Cu1   N2    S    
C19   C30   A    
C18   C29   A    
C51   C67   S    
Cu2   O3    S    
C76   H90   S    
C9    C11   A    
C14   N2    T    
C52   H40   S    
C58   H57   S    
C40   C41   S    
C46   H17   S    
C64   H72   S    
C49   C50   S    
C71   H88   S    
C15   N1    T    
C51   H41   S    
Cu1   O1    S    
C40   H15   S    
C33   H78   S    
C54   H49   S    
C54   C55   S    
C8    C71   S    
C70   H74   S    
C63   H59   S    
C37   H7    S    
C10   C64   S    
C39   H2    S    
C20   C22   A    
C4    C5    T    
C16   O9    A    
C35   H56   S    
C55   H47   S    
C44   H21   S    
C16   O6    A    
C25   C27   A    
C59   H54   S    
C26   C28   A    
C72   H85   S    
C42   H9    S    
Cu2   N1    S    
C54   C77   S    
C73   H82   S    
C55   C57   S    
C40   H16   S    
C9    C68   S    
C39   H3    S    
C74   H95   S    
C73   H83   S    
Cu1   O4    S    
C2    C56   A    
C64   C65   S    
C57   H44   S    
C1    O1    A    
C38   C39   S    
C72   C73   S    
C29   C34   A    
C28   C30   A    
C33   C35   S    
C32   C43   S    
C18   C20   A    
C8    C13   A    
C69   C70   S    
C18   C33   S    
C66   H66   S    
Cu1   Cu2   S    
C52   H39   S    
C71   C72   S    
C55   H48   S    
C65   C66   S    
C21   C24   A    
C27   C28   A    
C51   H42   S    
C56   C61   S    
C70   H76   S    
C47   O10   S    
C68   H80   S    
C3    C78   S    
C60   H53   S    
C52   C53   S    
C49   H30   S    
