data_mof_unit_51149.cif
_audit_creation_date              2013-03-05T16:34:52-0500
_audit_creation_method            fapswitch 2.2
_symmetry_space_group_name_H-M    P1
_symmetry_Int_Tables_number       1
_space_group_crystal_system       triclinic
_cell_length_a                    15.058597
_cell_length_b                    9.260729
_cell_length_c                    7.785436
_cell_angle_alpha                 89.997675
_cell_angle_beta                  90.001667
_cell_angle_gamma                 89.999244
_cell_volume                      1085.70696684

loop_
_atom_site_label
_atom_site_type_symbol
_atom_site_description
_atom_site_fract_x
_atom_site_fract_y
_atom_site_fract_z
_atom_type_partial_charge
O1    O     O_R   0.500000 0.288390 0.642760 -0.571448
O2    O     O_R   0.500000 0.711610 0.357240 -0.571453
O3    O     O_R   0.500000 0.711610 0.642760 -0.571447
O4    O     O_R   0.500000 0.288390 0.357240 -0.571457
C1    C     C_R   0.500000 0.219760 0.500002 0.880674
C2    C     C_R   0.500000 0.780240 0.499998 0.880678
O5    O     O_R   0.370260 0.500000 0.642800 -0.565812
O6    O     O_R   0.629740 0.500000 0.357200 -0.565827
O7    O     O_R   0.629740 0.500000 0.642800 -0.565779
O8    O     O_R   0.370260 0.500000 0.357200 -0.565794
C3    C     C_R   0.328682 0.500006 0.499997 0.887558
C4    C     C_R   0.671318 0.499998 0.500002 0.887563
Cu1   Cu    Cu3+1 0.500000 0.500000 0.669080 1.103099
Cu2   Cu    Cu3+1 0.500000 0.500000 0.330920 1.103086
N1    N     N_1   0.500000 0.500000 0.076820 -0.023764
N2    N     N_1   0.500000 0.500000 0.923180 -0.023762
C5    C     C_R   0.813063 0.631539 0.507250 0.244107
C6    C     C_R   0.186927 0.368502 0.507297 0.244076
C7    C     C_R   0.813076 0.368492 0.492784 0.244102
C8    C     C_R   0.186933 0.631543 0.492656 0.244087
C9    C     C_R   0.767523 0.500010 0.500007 -0.200211
C10   C     C_R   0.232478 0.500018 0.499990 -0.200169
C11   C     C_R   0.906358 0.367962 0.505276 -0.064497
C12   C     C_R   0.093648 0.632102 0.505153 -0.064517
C13   C     C_R   0.906347 0.632100 0.494682 -0.064513
C14   C     C_R   0.093646 0.367964 0.494800 -0.064506
C15   C     C_R   0.953057 0.500033 0.499964 -0.091035
C16   C     C_R   0.046941 0.500035 0.499974 -0.091008
C17   C     C_R   0.954669 0.239293 0.518781 0.408764
C18   C     C_R   0.045343 0.760787 0.518530 0.408661
C19   C     C_R   0.954656 0.760781 0.481223 0.408555
C20   C     C_R   0.045345 0.239286 0.481396 0.408780
C21   C     C_1   0.499999 0.065030 0.500003 -0.049468
C22   C     C_1   0.500000 0.934970 0.499997 -0.049463
Cl1   Cl    Cl    0.915645 0.105344 0.660613 -0.376944
Cl2   Cl    Cl    0.084415 0.894865 0.660080 -0.377080
Cl3   Cl    Cl    0.915501 0.895084 0.339974 -0.376974
Cl4   Cl    Cl    0.084354 0.105372 0.339532 -0.377088
Br1   Br    Br    0.746348 0.804804 0.559784 -0.327447
Br2   Br    Br    0.253621 0.195167 0.559605 -0.327440
Br3   Br    Br    0.746379 0.195146 0.440564 -0.327390
Br4   Br    Br    0.253645 0.804834 0.440233 -0.327497

loop_
_geom_bond_atom_site_label_1
_geom_bond_atom_site_label_2
_geom_bond_distance
_ccdc_geom_bond_type
C13   C19   1.400113 A    
C8    Br4   1.936801 S    
C14   C20   1.399995 A    
C11   C15   1.411445 A    
C13   C15   1.411461 A    
C12   C16   1.411435 A    
C17   Cl1   1.761633 S    
C3    C10   1.448703 S    
C14   C16   1.411437 A    
O3    Cu1   1.970339 S    
C18   Cl2   1.761378 S    
O6    C4    1.275937 A    
O3    C2    1.280329 A    
C5    C13   1.408135 A    
C21   C22   1.204448 T    
C6    C10   1.398968 A    
Cu1   Cu2   2.632724 S    
O5    C3    1.275938 A    
O2    C2    1.280345 A    
O1    C1    1.280345 A    
C11   C17   1.400039 A    
C7    C9    1.398964 A    
C8    C10   1.398994 A    
C17   C20   1.396136 A    
C20   Cl4   1.761531 S    
C1    C21   1.432911 S    
C19   Cl3   1.761736 S    
O4    Cu2   1.970340 S    
C18   C19   1.396148 A    
O2    Cu2   1.970355 S    
O7    C4    1.275937 A    
C12   C18   1.400053 A    
O1    Cu1   1.970356 S    
O8    C3    1.275936 A    
N1    N2    1.196155 T    
C2    C22   1.432911 S    
O5    Cu1   1.964382 S    
C5    Br1   1.936815 S    
Cu1   N2    1.978279 S    
C15   C16   1.413766 A    
O7    Cu1   1.964393 S    
C7    C11   1.408060 A    
C6    Br2   1.936782 S    
O6    Cu2   1.964381 S    
Cu2   N1    1.978279 S    
C4    C9    1.448711 S    
C8    C12   1.408114 A    
C5    C9    1.398987 A    
C7    Br3   1.936790 S    
O8    Cu2   1.964394 S    
O4    C1    1.280329 A    
C6    C14   1.408051 A    
