data_mof_unit_10842.cif
_audit_creation_date              2012-12-11T14:14:06-0500
_audit_creation_method            fapswitch 2.2
_symmetry_space_group_name_H-M    P1
_symmetry_Int_Tables_number       1
_space_group_crystal_system       triclinic
_cell_length_a                    17.027833
_cell_length_b                    7.246689
_cell_length_c                    16.983445
_cell_angle_alpha                 89.99617
_cell_angle_beta                  99.43237
_cell_angle_gamma                 90.003453
_cell_volume                      2067.34500746

loop_
_atom_site_label
_atom_site_type_symbol
_atom_type_description
_atom_site_fract_x
_atom_site_fract_y
_atom_site_fract_z
_atom_type_partial_charge
O1    O     O_R   0.414560 0.494370 0.416770 -0.542341
O2    O     O_R   0.585440 0.994370 0.583230 -0.542341
O3    O     O_R   0.578370 0.819590 0.429320 -0.545789
O4    O     O_R   0.421630 0.319590 0.570680 -0.545758
C1    C     C_R   0.603874 0.655363 0.413362 0.765143
C2    C     C_R   0.396132 0.155345 0.586645 0.765033
O5    O     O_R   0.414740 0.823790 0.407360 -0.532296
O6    O     O_R   0.585260 0.323790 0.592640 -0.532343
O7    O     O_R   0.420650 0.998510 0.561120 -0.531524
O8    O     O_R   0.579350 0.498510 0.438880 -0.531628
C3    C     C_R   0.388291 0.655485 0.384671 0.737584
C4    C     C_R   0.611720 0.155488 0.615315 0.737437
O9    O     O_3   0.502130 0.662240 0.550470 -0.379642
O10   O     O_3   0.497870 0.162240 0.449530 -0.379673
V1    V     V_3+5 0.499600 0.935390 0.490640 1.418721
V2    V     V_3+5 0.500400 0.435390 0.509360 1.418628
C5    C     C_2   0.768694 0.258600 0.803500 0.179025
C6    C     C_2   0.231425 0.758436 0.196354 0.179010
C7    C     C_2   0.823321 0.120440 0.815407 -0.337832
C8    C     C_2   0.176709 0.620441 0.184563 -0.337790
H1    H     H_    0.824144 0.017353 0.769089 0.103611
H2    H     H_    0.175830 0.517540 0.230951 0.103625
C9    C     C_2   0.716808 0.284256 0.724414 0.159535
C10   C     C_2   0.283344 0.784257 0.275414 0.159657
C11   C     C_2   0.673153 0.141774 0.688343 -0.347149
C12   C     C_2   0.326867 0.641739 0.311629 -0.347216
H3    H     H_    0.680383 0.006603 0.716367 0.114942
H4    H     H_    0.319535 0.506464 0.283716 0.114986
C13   C     C_R   0.333277 0.146119 0.637520 -0.082447
C14   C     C_R   0.666731 0.646222 0.362488 -0.082382
C15   C     C_R   0.164583 0.122617 0.861264 -0.032776
C16   C     C_R   0.835411 0.622509 0.138732 -0.032609
C17   C     C_R   0.303370 0.177164 0.851811 -0.159904
C18   C     C_R   0.696488 0.675322 0.148097 -0.159809
C19   C     C_R   0.242425 0.163238 0.897026 -0.232164
C20   C     C_R   0.757449 0.661642 0.102890 -0.232322
C21   C     C_R   0.146875 0.096995 0.777387 0.132913
C22   C     C_R   0.853214 0.598059 0.222671 0.132921
C23   C     C_R   0.209327 0.113222 0.730725 0.067977
C24   C     C_R   0.790735 0.613950 0.269318 0.067961
C25   C     C_R   0.288539 0.152889 0.768279 0.106964
C26   C     C_R   0.711414 0.652217 0.231693 0.106974
C27   C     C_R   0.351052 0.167560 0.721729 0.052275
C28   C     C_R   0.648887 0.666667 0.278235 0.052301
C29   C     C_R   0.254395 0.111877 0.600831 0.240292
C30   C     C_R   0.745693 0.613165 0.399229 0.240119
C31   C     C_R   0.194088 0.092699 0.647145 -0.247659
C32   C     C_R   0.806043 0.594382 0.352942 -0.247582
H5    H     H_    0.362206 0.208318 0.883564 0.135458
H6    H     H_    0.637558 0.705304 0.116284 0.135447
H7    H     H_    0.134653 0.064842 0.616022 0.141190
H8    H     H_    0.865551 0.567510 0.384107 0.141203
H9    H     H_    0.256309 0.183741 0.961031 0.119543
H10   H     H_    0.743485 0.681175 0.038831 0.119467
O11   O     O_R   0.920750 0.773600 0.061260 -0.532671
O12   O     O_R   0.079250 0.273600 0.938740 -0.532717
O13   O     O_R   0.085340 0.439850 0.092570 -0.545681
O14   O     O_R   0.914660 0.939850 0.907430 -0.545729
C33   C     C_R   0.112797 0.608686 0.113937 0.744332
C34   C     C_R   0.887208 0.108690 0.886055 0.744365
O15   O     O_R   0.921720 0.444130 0.070790 -0.537314
O16   O     O_R   0.078280 0.944130 0.929210 -0.537321
O17   O     O_R   0.914480 0.269530 0.916840 -0.528703
O18   O     O_R   0.085520 0.769530 0.083160 -0.528694
C35   C     C_R   0.896891 0.612609 0.086636 0.692267
C36   C     C_R   0.103103 0.112628 0.913358 0.692203
O19   O     O_3   0.997840 0.601520 0.949550 -0.377020
O20   O     O_3   0.002160 0.101520 0.050450 -0.376978
V3    V     V_3+5 0.000400 0.328340 0.009360 1.410322
V4    V     V_3+5 0.999600 0.828340 0.990640 1.410236
C37   C     C_3   0.759156 0.396184 0.868419 -0.723073
H11   H     H_    0.701955 0.472019 0.853536 0.191862
H12   H     H_    0.758368 0.324095 0.926013 0.192492
H13   H     H_    0.807968 0.499377 0.875075 0.214981
C38   C     C_3   0.241020 0.895685 0.131316 -0.723097
H14   H     H_    0.298274 0.971350 0.146110 0.191912
H15   H     H_    0.241727 0.823329 0.073773 0.192499
H16   H     H_    0.192276 0.999043 0.124602 0.214921
C39   C     C_3   0.062203 0.056544 0.737500 -0.807948
H17   H     H_    0.019107 0.049111 0.779645 0.197774
H18   H     H_    0.041144 0.167346 0.693975 0.204080
H19   H     H_    0.060160 0.921759 0.706147 0.208714
C40   C     C_3   0.938000 0.559107 0.262620 -0.807919
H20   H     H_    0.981086 0.551720 0.220462 0.197527
H21   H     H_    0.958784 0.670653 0.305859 0.204252
H22   H     H_    0.940411 0.424702 0.294313 0.208579
C41   C     C_3   0.714282 0.475418 0.688388 -0.702035
H23   H     H_    0.762079 0.564394 0.720759 0.185469
H24   H     H_    0.724088 0.467056 0.625528 0.224344
H25   H     H_    0.656395 0.542805 0.691805 0.214401
C42   C     C_3   0.286055 0.975614 0.311250 -0.702208
H26   H     H_    0.238360 0.064709 0.278779 0.185452
H27   H     H_    0.276214 0.967666 0.374106 0.224509
H28   H     H_    0.344022 0.042596 0.307795 0.214350
C43   C     C_3   0.435942 0.203728 0.762243 -0.790535
H29   H     H_    0.455408 0.092652 0.806152 0.205009
H30   H     H_    0.479674 0.207599 0.720688 0.195345
H31   H     H_    0.439148 0.339000 0.793295 0.209816
C44   C     C_3   0.563915 0.701639 0.237677 -0.790567
H32   H     H_    0.560440 0.836474 0.206252 0.209767
H33   H     H_    0.544627 0.589836 0.194081 0.205082
H34   H     H_    0.520212 0.705748 0.279259 0.195176
N1    N     N_2   0.234897 0.098199 0.516242 -0.534043
H35   H     H_    0.190950 0.002622 0.497225 0.252646
C45   C     C_3   0.218706 0.274102 0.476491 -0.566357
H36   H     H_    0.165742 0.339937 0.495194 0.193182
H37   H     H_    0.206492 0.253103 0.410886 0.192620
H38   H     H_    0.270709 0.367749 0.490602 0.212437
N2    N     N_2   0.765206 0.600052 0.483834 -0.534286
H39   H     H_    0.809320 0.504956 0.502965 0.252605
C46   C     C_3   0.781067 0.776242 0.523411 -0.565886
H40   H     H_    0.834021 0.842322 0.504785 0.193057
H41   H     H_    0.793123 0.755605 0.589044 0.192690
H42   H     H_    0.728964 0.869504 0.509062 0.212538

loop_
_geom_bond_atom_site_label_1
_geom_bond_atom_site_label_2
_ccdc_geom_bond_type
C15   C36   S    
C41   H23   S    
C6    C38   S    
C22   C40   S    
C19   H9    S    
C43   H29   S    
O1    C3    A    
O2    C4    A    
C2    O7    A    
C39   H19   S    
C43   H31   S    
C23   C25   A    
O5    C3    A    
C45   H37   S    
C33   O18   A    
C5    C9    S    
C34   O17   A    
C6    C10   S    
C16   C20   A    
C7    H1    S    
C10   C12   D    
N2    C46   S    
C28   C44   S    
O13   C33   A    
C17   H5    S    
O16   V4    S    
C29   N1    S    
C17   C19   A    
C41   H25   S    
N1    C45   S    
C40   H20   S    
O20   V3    S    
C18   C26   A    
C44   H34   S    
C27   C43   S    
C16   C22   A    
C18   C20   A    
C24   C26   A    
O6    V2    S    
C9    C41   S    
C13   C27   A    
C25   C27   A    
C14   C28   A    
C26   C28   A    
C1    O8    A    
O11   C35   A    
C29   C31   A    
C45   H38   S    
C30   C32   A    
C18   H6    S    
O16   C36   A    
O17   V3    S    
O4    C2    A    
C42   H26   S    
C37   H12   S    
O14   V4    S    
C31   H7    S    
C3    C12   S    
C15   C21   A    
C13   C29   A    
O4    V2    S    
C38   H14   S    
C42   H27   S    
C21   C39   S    
C44   H32   S    
O6    C4    A    
C2    C13   S    
C46   H41   S    
O1    V2    S    
C8    C33   S    
O2    V1    S    
C38   H15   S    
C44   H33   S    
C8    H2    S    
C5    C37   S    
O18   V4    S    
C41   H24   S    
C15   C19   A    
O9    V2    S    
C10   C42   S    
O3    V1    S    
C23   C31   A    
C1    C14   S    
O15   V3    S    
C24   C32   A    
C46   H40   S    
C40   H21   S    
C14   C30   A    
O3    C1    A    
C37   H13   S    
C43   H30   S    
C7    C34   S    
C11   H3    S    
C45   H36   S    
C12   H4    S    
C4    C11   S    
O19   V4    S    
C17   C25   A    
O7    V1    S    
C37   H11   S    
C21   C23   A    
O8    V2    S    
N2    H39   S    
C42   H28   S    
C22   C24   A    
O12   C36   A    
O5    V1    S    
C5    C7    D    
C46   H42   S    
C6    C8    D    
C9    C11   D    
C39   H18   S    
C38   H16   S    
O11   V4    S    
C20   H10   S    
C39   H17   S    
O15   C35   A    
C32   H8    S    
C40   H22   S    
O12   V3    S    
C30   N2    S    
N1    H35   S    
O10   V1    S    
O13   V3    S    
O14   C34   A    
C16   C35   S    
