data_mof_unit_45683.cif
_audit_creation_date              2012-12-10T18:57:09-0500
_audit_creation_method            fapswitch 2.2
_symmetry_space_group_name_H-M    P1
_symmetry_Int_Tables_number       1
_space_group_crystal_system       triclinic
_cell_length_a                    10.705757
_cell_length_b                    9.83205
_cell_length_c                    10.672839
_cell_angle_alpha                 90.198953
_cell_angle_beta                  90.112986
_cell_angle_gamma                 90.035948
_cell_volume                      1123.40892044

loop_
_atom_site_label
_atom_site_type_symbol
_atom_type_description
_atom_site_fract_x
_atom_site_fract_y
_atom_site_fract_z
_atom_type_partial_charge
C1    C     C_R   0.259889 0.499911 0.500221 0.847781
C2    C     C_R   0.493317 0.619711 0.936545 0.071460
C3    C     C_R   0.522833 0.500792 0.128102 -0.310331
C4    C     C_R   0.526224 0.503311 0.870821 -0.296376
C5    C     C_R   0.576792 0.389243 0.064074 0.400790
C6    C     C_R   0.584805 0.394562 0.933262 0.394417
C7    C     C_3   0.378441 0.705364 0.928459 -0.481034
C8    C     C_3   0.378717 0.706171 0.070459 -0.390119
C9    C     C_R   0.063821 0.380093 0.470372 -0.206171
C10   C     C_R   0.935876 0.380084 0.470595 -0.193565
C11   C     C_R   0.872532 0.499792 0.501240 -0.019154
C12   C     C_R   0.740112 0.499953 0.500374 0.855200
C13   C     C_R   0.127462 0.499750 0.501046 -0.000373
C14   C     C_R   0.936160 0.619233 0.532628 -0.202383
C15   C     C_R   0.064131 0.619163 0.532649 -0.213835
C16   C     C_3   0.545607 0.167003 0.116317 -0.210636
C17   C     C_3   0.764332 0.326638 0.840951 -0.282223
C18   C     C_3   0.671453 0.906416 0.773228 -0.315675
C19   C     C_3   0.217097 0.905217 0.344765 -0.373926
C20   C     C_R   0.580233 0.072678 0.575117 -0.203125
C21   C     C_R   0.419247 0.072044 0.425457 -0.245358
C22   C     C_R   0.579243 0.927349 0.577622 0.494750
C23   C     C_R   0.417152 0.926648 0.426265 0.506306
C24   C     C_R   0.504371 0.499687 0.259846 0.948564
C25   C     C_R   0.505395 0.500389 0.739806 0.938968
C26   C     C_R   0.493244 0.619257 0.063792 0.061093
H1    H     H_    0.397421 0.806902 0.887252 0.200565
H2    H     H_    0.357819 0.128793 0.364574 0.152258
H3    H     H_    0.551780 0.121651 0.021107 0.180138
H4    H     H_    0.446833 0.193471 0.138259 0.130774
H5    H     H_    0.575235 0.087795 0.183897 0.174252
H6    H     H_    0.819210 0.342257 0.928549 0.174136
H7    H     H_    0.768211 0.419430 0.781586 0.147117
H8    H     H_    0.809171 0.242998 0.787555 0.169852
H9    H     H_    0.579948 0.941784 0.810704 0.155391
H10   H     H_    0.741448 0.989705 0.776487 0.169520
H11   H     H_    0.705215 0.824639 0.836118 0.190524
H12   H     H_    0.297378 0.652562 0.112230 0.198884
H13   H     H_    0.211179 0.989116 0.275618 0.155952
H14   H     H_    0.184157 0.939402 0.438726 0.154091
H15   H     H_    0.152575 0.823901 0.312582 0.204045
H16   H     H_    0.297608 0.649903 0.887093 0.193489
H17   H     H_    0.399001 0.808320 0.110502 0.228659
H18   H     H_    0.112542 0.287374 0.445172 0.150015
H19   H     H_    0.886916 0.287339 0.445609 0.166083
H20   H     H_    0.887422 0.711913 0.557795 0.191520
H21   H     H_    0.113140 0.711718 0.558051 0.159271
H22   H     H_    0.645529 0.129726 0.631969 0.183097
N1    N     N_R   0.500000 0.857200 0.500000 -0.155001
N2    N     N_R   0.500000 0.142810 0.500000 -0.108129
O1    O     O_R   0.316770 0.614620 0.499990 -0.590052
O2    O     O_3   0.640157 0.289078 0.867814 -0.601741
O3    O     O_3   0.661954 0.852962 0.650612 -0.586039
O4    O     O_3   0.339215 0.851338 0.348409 -0.581014
O5    O     O_R   0.683230 0.614620 0.500010 -0.589019
O6    O     O_R   0.316800 0.385290 0.500000 -0.638633
O7    O     O_R   0.683200 0.385290 0.500000 -0.623279
O8    O     O_R   0.500000 0.614690 0.316780 -0.583224
O9    O     O_R   0.500000 0.614690 0.683220 -0.592172
O10   O     O_R   0.500020 0.385360 0.316780 -0.587499
O11   O     O_R   0.499980 0.385360 0.683220 -0.578940
O12   O     O_3   0.626278 0.280001 0.129101 -0.579477
Zn1   Zn    Zn3+2 0.500000 0.653120 0.500000 1.020374
Zn2   Zn    Zn3+2 0.500000 0.346880 0.500000 0.969165

loop_
_geom_bond_atom_site_label_1
_geom_bond_atom_site_label_2
_ccdc_geom_bond_type
O11   Zn2   S    
C2    C4    A    
C11   C12   S    
O6    Zn2   S    
N1    Zn1   S    
C17   H8    S    
C8    C26   S    
C9    C10   A    
O9    Zn1   S    
C2    C7    S    
C8    H17   S    
C15   H21   S    
O10   Zn2   S    
C10   H19   S    
C21   C23   A    
C4    C25   S    
C7    H1    S    
C7    C8    S    
C2    C26   A    
C25   O11   A    
C16   H5    S    
C17   H7    S    
C1    O1    A    
C3    C24   S    
C20   H22   S    
C8    H12   S    
O7    Zn2   S    
C22   N1    A    
N2    Zn2   S    
C19   H13   S    
C19   O4    S    
C24   O8    A    
C21   N2    A    
C21   H2    S    
C20   C22   A    
C5    O12   S    
C22   O3    S    
C10   C11   A    
C13   C15   A    
C5    C6    A    
C11   C14   A    
C23   N1    A    
C12   O5    A    
C1    C13   S    
C19   H14   S    
C12   O7    A    
C16   H4    S    
O1    Zn1   S    
C18   H9    S    
C17   O2    S    
C23   O4    S    
C14   H20   S    
C4    C6    A    
C16   O12   S    
C7    H16   S    
O8    Zn1   S    
C17   H6    S    
C9    C13   A    
C14   C15   A    
C9    H18   S    
C20   N2    A    
C24   O10   A    
C25   O9    A    
C18   O3    S    
C6    O2    S    
C16   H3    S    
C18   H10   S    
C1    O6    A    
C3    C26   A    
C19   H15   S    
C18   H11   S    
C3    C5    A    
O5    Zn1   S    
