data_mof_unit_32764.cif
_audit_creation_date              2012-12-10T17:18:13-0500
_audit_creation_method            fapswitch 2.2
_symmetry_space_group_name_H-M    P1
_symmetry_Int_Tables_number       1
_space_group_crystal_system       triclinic
_cell_length_a                    10.263359
_cell_length_b                    10.781657
_cell_length_c                    14.909679
_cell_angle_alpha                 91.387193
_cell_angle_beta                  81.436616
_cell_angle_gamma                 95.550738
_cell_volume                      1623.72219523

loop_
_atom_site_label
_atom_site_type_symbol
_atom_type_description
_atom_site_fract_x
_atom_site_fract_y
_atom_site_fract_z
_atom_type_partial_charge
C1    C     C_R   0.555725 0.732439 0.497141 0.930016
C2    C     C_2   0.074501 0.500817 0.484767 0.223620
C3    C     C_R   0.500922 0.502752 0.672302 0.873277
C4    C     C_R   0.499057 0.497346 0.327691 0.879113
C5    C     C_R   0.510800 0.382267 0.183656 0.055786
C6    C     C_R   0.487619 0.617754 0.816391 0.053609
C7    C     C_R   0.497277 0.493704 0.232543 -0.107872
C8    C     C_R   0.502311 0.506494 0.767452 -0.125417
C9    C     C_R   0.481371 0.603847 0.192188 -0.276761
C10   C     C_R   0.517245 0.396316 0.808065 -0.236724
C11   C     C_R   0.482617 0.608411 0.099376 0.079973
C12   C     C_R   0.444357 0.267710 0.508745 0.928804
C13   C     C_R   0.514587 0.391896 0.900996 0.115097
C14   C     C_R   0.497492 0.497680 0.047172 -0.044602
C15   C     C_R   0.499504 0.502334 0.953182 -0.064585
C16   C     C_R   0.510225 0.382575 0.089210 0.107729
C17   C     C_R   0.486698 0.617162 0.910987 0.085458
C18   C     C_R   0.470442 0.722099 0.058151 0.026020
C19   C     C_R   0.525159 0.278033 0.941609 0.028923
C20   C     C_R   0.473006 0.726756 0.964488 0.115113
C21   C     C_R   0.522325 0.272460 0.035739 0.058868
C22   C     C_2   0.587051 0.865139 0.504961 -0.389692
C23   C     C_2   0.413358 0.135724 0.523063 -0.374009
C24   C     C_2   0.488704 0.934721 0.534869 -0.145322
C25   C     C_2   0.512134 0.067518 0.532139 -0.144639
C26   C     C_2   0.931428 0.522540 0.497773 0.226932
H1    H     H_    0.613626 0.108452 0.530254 0.180461
H2    H     H_    0.528466 0.313405 0.765955 0.175942
H3    H     H_    0.538668 0.855751 0.142918 0.193422
H4    H     H_    0.370414 0.823607 0.157798 0.192117
H5    H     H_    0.624130 0.129139 0.894576 0.185242
H6    H     H_    0.455530 0.103515 0.906885 0.188087
H7    H     H_    0.374135 0.878376 0.953409 0.191784
H8    H     H_    0.541761 0.906504 0.939152 0.186408
H9    H     H_    0.451531 0.092343 0.062684 0.193373
H10   H     H_    0.619686 0.119614 0.049216 0.183371
H11   H     H_    0.168721 0.502264 0.355213 0.206154
H12   H     H_    0.387396 0.894388 0.554616 0.186003
H13   H     H_    0.186034 0.371980 0.416369 0.229280
H14   H     H_    0.814778 0.625029 0.587510 0.230756
H15   H     H_    0.880946 0.697973 0.487085 0.196586
H16   H     H_    0.130727 0.537681 0.670023 0.207916
H17   H     H_    0.152210 0.683532 0.629993 0.192058
H18   H     H_    0.818992 0.268948 0.487656 0.193862
H19   H     H_    0.839908 0.307238 0.377618 0.199430
H20   H     H_    0.312175 0.094147 0.524803 0.151445
H21   H     H_    0.688035 0.906060 0.485177 0.149436
H22   H     H_    0.441530 0.253817 0.281305 0.170319
H23   H     H_    0.609359 0.281027 0.260429 0.199635
H24   H     H_    0.558211 0.746578 0.719236 0.175099
H25   H     H_    0.390360 0.719192 0.738838 0.196552
H26   H     H_    0.470510 0.686232 0.234699 0.145523
N1    N     N_2   0.842700 0.448880 0.462930 -0.103738
N2    N     N_3   0.897735 0.639340 0.538004 -0.461083
N3    N     N_3   0.104016 0.595050 0.621666 -0.399971
N4    N     N_3   0.874289 0.328812 0.439177 -0.400633
N5    N     N_2   0.157300 0.551120 0.537070 -0.106636
N6    N     N_3   0.523082 0.269882 0.230496 -0.429822
N7    N     N_3   0.475990 0.730284 0.769495 -0.430173
N8    N     N_3   0.455985 0.835436 0.109937 -0.492055
N9    N     N_3   0.536997 0.167435 0.886384 -0.474737
N10   N     N_3   0.462997 0.844365 0.924310 -0.429132
N11   N     N_3   0.530676 0.154684 0.076533 -0.430712
N12   N     N_3   0.122610 0.436835 0.403012 -0.457274
O1    O     O_R   0.431060 0.692470 0.507460 -0.609643
O2    O     O_R   0.568940 0.307530 0.492540 -0.624027
O3    O     O_R   0.651120 0.659650 0.483670 -0.637248
O4    O     O_R   0.348880 0.340350 0.516330 -0.626125
O5    O     O_R   0.389960 0.516440 0.644050 -0.625383
O6    O     O_R   0.610040 0.483560 0.355950 -0.608418
O7    O     O_R   0.610030 0.483620 0.620260 -0.627029
O8    O     O_R   0.389970 0.516380 0.379740 -0.639407
Zn1   Zn    Zn3+2 0.353060 0.521920 0.515880 0.915976
Zn2   Zn    Zn3+2 0.646940 0.478080 0.484120 0.918293

loop_
_geom_bond_atom_site_label_1
_geom_bond_atom_site_label_2
_ccdc_geom_bond_type
O6    Zn2   S    
O7    Zn2   S    
C3    O7    A    
C5    C7    A    
C11   C18   A    
H22   N6    S    
C16   C21   A    
C14   C16   A    
H16   N3    S    
C25   H1    S    
H10   N11   S    
C12   O4    A    
H18   N4    S    
C24   H12   S    
N1    Zn2   S    
H3    N8    S    
C4    O8    A    
H11   N12   S    
C4    O6    A    
C22   H21   S    
C2    N5    D    
C1    C22   S    
C2    C26   S    
C23   H20   S    
O5    Zn1   S    
H13   N12   S    
C9    C11   A    
C12   C23   S    
C9    H26   S    
C12   O2    A    
C5    N6    S    
C19   N9    S    
C4    C7    S    
C6    C8    A    
H24   N7    S    
C26   N2    S    
C6    N7    S    
H17   N3    S    
C1    O3    A    
C2    N12   S    
H6    N9    S    
C18   C20   A    
C23   C25   D    
C13   C15   A    
C20   N10   S    
C11   C14   A    
C22   C24   D    
H15   N2    S    
C21   N11   S    
H25   N7    S    
C15   C17   A    
C13   C19   A    
C10   H2    S    
O2    Zn2   S    
C26   N1    D    
H8    N10   S    
C17   C20   A    
O1    Zn1   S    
C24   C25   S    
H19   N4    S    
C7    C9    A    
C3    C8    S    
N1    N4    S    
C18   N8    S    
O3    Zn2   S    
C6    C17   A    
H5    N9    S    
C14   C15   A    
O8    Zn1   S    
C5    C16   A    
H9    N11   S    
C3    O5    A    
O4    Zn1   S    
N3    N5    S    
N5    Zn1   S    
C1    O1    A    
C8    C10   A    
H23   N6    S    
H14   N2    S    
H7    N10   S    
C19   C21   A    
C10   C13   A    
H4    N8    S    
