data_mof_unit_26041.cif
_audit_creation_date              2012-10-26T19:03:01-0400
_audit_creation_method            fapswitch 2.2
_symmetry_space_group_name_H-M    P1
_symmetry_Int_Tables_number       1
_space_group_crystal_system       triclinic
_cell_length_a                    14.977085
_cell_length_b                    11.043079
_cell_length_c                    9.868186
_cell_angle_alpha                 111.601704
_cell_angle_beta                  98.28689
_cell_angle_gamma                 91.331871
_cell_volume                      1496.48061584

loop_
_atom_site_label
_atom_site_type_symbol
_atom_type_description
_atom_site_fract_x
_atom_site_fract_y
_atom_site_fract_z
_atom_type_partial_charge
C1    C     C_R   0.492202 0.253714 0.439937 0.541109
C2    C     C_2   0.495759 0.484544 0.917156 0.114070
C3    C     C_R   0.329104 0.499671 0.500914 0.529185
C4    C     C_R   0.670888 0.500119 0.498992 0.543279
C5    C     C_R   0.822010 0.615139 0.573587 -0.143422
C6    C     C_R   0.177980 0.384574 0.425825 -0.133467
C7    C     C_R   0.766976 0.499848 0.496995 -0.005223
C8    C     C_R   0.232989 0.499893 0.502592 0.003243
C9    C     C_R   0.803312 0.383752 0.421272 -0.136036
C10   C     C_R   0.196517 0.616227 0.577055 -0.129251
C11   C     C_R   0.897077 0.380434 0.422813 0.029729
C12   C     C_R   0.508031 0.746290 0.560415 0.545204
C13   C     C_R   0.102707 0.619605 0.574823 0.031440
C14   C     C_R   0.952973 0.499077 0.498188 0.036258
C15   C     C_R   0.046857 0.500878 0.499775 0.035694
C16   C     C_R   0.914873 0.616175 0.572814 -0.001116
C17   C     C_R   0.085006 0.383710 0.425542 0.002137
C18   C     C_R   0.936660 0.262738 0.351771 0.021295
C19   C     C_R   0.063029 0.737446 0.644892 0.021777
C20   C     C_3   0.882641 0.130744 0.278854 -0.280904
C21   C     C_3   0.860000 0.078795 0.394669 -0.433117
C22   C     C_3   0.116807 0.869678 0.715844 -0.278523
C23   C     C_R   0.030289 0.266767 0.352951 -0.122129
C24   C     C_3   0.139093 0.919961 0.598540 -0.442262
C25   C     C_3   0.522502 0.000600 0.843821 -0.022007
C26   C     C_3   0.580936 0.097947 0.982252 -0.363377
C27   C     C_3   0.361656 0.013636 0.226403 -0.021373
C28   C     C_3   0.332885 0.913790 0.070222 -0.361827
C29   C     C_3   0.663249 0.693508 0.934038 0.059163
C30   C     C_3   0.717983 0.796324 0.071904 -0.411284
C31   C     C_3   0.355328 0.277012 0.057381 0.058403
C32   C     C_3   0.283944 0.203409 0.923577 -0.425256
C33   C     C_R   0.969500 0.733275 0.644546 -0.123516
C34   C     C_2   0.482624 0.113152 0.405529 0.221433
C35   C     C_2   0.518490 0.886971 0.596385 0.215767
C36   C     C_2   0.503246 0.069676 0.515288 -0.119862
C37   C     C_2   0.490122 0.931571 0.490075 -0.116081
C38   C     C_2   0.511279 0.504971 0.080277 0.112385
Cu1   Cu    Cu3+1 0.515770 0.521810 0.644910 0.951928
Cu2   Cu    Cu3+1 0.484230 0.478190 0.355090 0.956987
H1    H     H_    0.792006 0.704218 0.631754 0.103507
H2    H     H_    0.571114 0.564946 0.150408 0.133988
H3    H     H_    0.923283 0.068780 0.462464 0.152006
H4    H     H_    0.817685 0.145065 0.468580 0.160385
H5    H     H_    0.822181 0.981241 0.339248 0.139597
H6    H     H_    0.820158 0.136164 0.206381 0.133586
H7    H     H_    0.922066 0.058134 0.205160 0.133509
H8    H     H_    0.176193 0.018149 0.652686 0.132251
H9    H     H_    0.181979 0.853627 0.525879 0.149919
H10   H     H_    0.075700 0.928165 0.529687 0.154061
H11   H     H_    0.077445 0.942798 0.789050 0.134406
H12   H     H_    0.208060 0.295394 0.368181 0.079599
H13   H     H_    0.179447 0.865106 0.788294 0.129653
H14   H     H_    0.503863 0.913279 0.867502 0.186532
H15   H     H_    0.459916 0.046366 0.818817 0.102385
H16   H     H_    0.591769 0.192809 0.969553 0.140255
H17   H     H_    0.547444 0.113618 0.079855 0.157897
H18   H     H_    0.647640 0.059998 0.001467 0.155870
H19   H     H_    0.334647 0.108061 0.232505 0.110601
H20   H     H_    0.331025 0.978599 0.303192 0.115523
H21   H     H_    0.358311 0.817935 0.061518 0.189017
H22   H     H_    0.257875 0.901835 0.042592 0.085128
H23   H     H_    0.757388 0.296961 0.364141 0.110374
H24   H     H_    0.360640 0.946990 0.990168 0.134065
H25   H     H_    0.658753 0.731486 0.844001 0.191059
H26   H     H_    0.700241 0.603239 0.905582 0.139696
H27   H     H_    0.726156 0.760153 0.163809 0.152058
H28   H     H_    0.785988 0.817785 0.049613 0.091156
H29   H     H_    0.682974 0.887790 0.105394 0.168645
H30   H     H_    0.326372 0.286532 0.157421 0.171480
H31   H     H_    0.414771 0.217959 0.050812 0.137117
H32   H     H_    0.311385 0.189288 0.820517 0.138287
H33   H     H_    0.264033 0.106363 0.924566 0.085409
H34   H     H_    0.242396 0.703107 0.633858 0.104969
H35   H     H_    0.222996 0.259081 0.925761 0.168367
H36   H     H_    0.061155 0.177393 0.298918 0.096903
H37   H     H_    0.938614 0.822675 0.698388 0.103696
H38   H     H_    0.454668 0.865071 0.383379 0.160385
H39   H     H_    0.527796 0.137931 0.627306 0.155265
H40   H     H_    0.450725 0.401643 0.840899 0.126427
N1    N     N_2   0.460520 0.445420 0.137370 -0.081375
N2    N     N_2   0.539480 0.554580 0.862630 -0.078351
O1    O     O_R   0.508410 0.332340 0.577400 -0.549417
O2    O     O_3   0.457091 0.026982 0.260518 -0.566440
O3    O     O_3   0.576375 0.671560 0.963056 -0.492972
O4    O     O_3   0.377381 0.401179 0.056653 -0.489505
O5    O     O_R   0.491590 0.667660 0.422600 -0.520182
O6    O     O_R   0.481780 0.295500 0.332650 -0.509646
O7    O     O_R   0.518220 0.704500 0.667350 -0.486907
O8    O     O_R   0.383570 0.518390 0.622380 -0.501545
O9    O     O_R   0.616430 0.481610 0.377620 -0.517413
O10   O     O_R   0.356940 0.481550 0.377630 -0.485538
O11   O     O_R   0.643060 0.518450 0.622370 -0.522907
O12   O     O_3   0.572709 0.967627 0.726596 -0.573285

loop_
_geom_bond_atom_site_label_1
_geom_bond_atom_site_label_2
_ccdc_geom_bond_type
C11   C18   A    
C23   H36   S    
C32   H35   S    
C32   H32   S    
C17   C23   A    
C3    O8    A    
Cu2   O5    S    
C27   O2    S    
C35   C37   D    
C38   H2    S    
C27   H20   S    
C11   C14   A    
C18   C20   S    
C7    C9    A    
C22   C24   S    
Cu1   O11   S    
C5    C16   A    
C21   H3    S    
C31   H30   S    
Cu1   O8    S    
C29   O3    S    
C30   H27   S    
C4    O9    A    
C28   H21   S    
C1    O6    A    
C31   H31   S    
C25   O12   S    
C31   O4    S    
C34   O2    S    
C4    C7    S    
C1    C34   S    
C22   H13   S    
C21   H5    S    
C24   H10   S    
C13   C19   A    
C18   C23   A    
C24   H8    S    
C12   O7    A    
C19   C22   S    
C25   H14   S    
C3    C8    S    
C19   C33   A    
C32   H33   S    
C5    C7    A    
C6    C8    A    
C25   C26   S    
C36   H39   S    
C4    O11   A    
C3    O10   A    
C29   C30   S    
C16   C33   A    
C21   H4    S    
C26   H18   S    
C2    C38   S    
C31   C32   S    
N1    O4    S    
Cu2   O10   S    
C12   C35   S    
C9    C11   A    
C29   H25   S    
C28   H24   S    
C13   C15   A    
C38   N1    D    
C14   C16   A    
C2    N2    D    
Cu1   Cu2   S    
C30   H29   S    
C35   O12   S    
C24   H9    S    
C15   C17   A    
C6    C17   A    
C5    H1    S    
C36   C37   S    
C12   O5    A    
C9    H23   S    
Cu2   N1    S    
C25   H15   S    
Cu1   N2    S    
C10   C13   A    
C26   H16   S    
C1    O1    A    
N2    O3    S    
C37   H38   S    
Cu2   O6    S    
Cu1   O1    S    
C27   H19   S    
C10   H34   S    
C33   H37   S    
C34   C36   D    
Cu2   O9    S    
C26   H17   S    
C30   H28   S    
C20   H7    S    
C2    H40   S    
C29   H26   S    
C20   C21   S    
C8    C10   A    
C27   C28   S    
C14   C15   A    
C6    H12   S    
Cu1   O7    S    
C20   H6    S    
C22   H11   S    
C28   H22   S    
