data_mof_unit_27025.cif
_audit_creation_date              2012-10-26T20:32:58-0400
_audit_creation_method            fapswitch 2.2
_symmetry_space_group_name_H-M    P1
_symmetry_Int_Tables_number       1
_space_group_crystal_system       triclinic
_cell_length_a                    27.715434
_cell_length_b                    10.830546
_cell_length_c                    9.577256
_cell_angle_alpha                 90.066765
_cell_angle_beta                  90.885476
_cell_angle_gamma                 90.692762
_cell_volume                      2874.28032762

loop_
_atom_site_label
_atom_site_type_symbol
_atom_type_description
_atom_site_fract_x
_atom_site_fract_y
_atom_site_fract_z
_atom_type_partial_charge
C1    C     C_R   0.499061 0.262437 0.499708 0.543615
C2    C     C_R   0.972620 0.508052 0.349994 0.007311
C3    C     C_R   0.975514 0.577161 0.594766 0.023289
C4    C     C_R   0.407596 0.498793 0.498816 0.550735
C5    C     C_R   0.948582 0.541555 0.473368 0.034134
C6    C     C_R   0.944741 0.485689 0.228034 -0.119937
C7    C     C_R   0.894251 0.484573 0.227930 -0.007222
C8    C     C_R   0.869672 0.508578 0.354183 0.033141
C9    C     C_R   0.897237 0.539053 0.475901 -0.038927
C10   C     C_R   0.873456 0.566794 0.601249 0.024877
C11   C     C_R   0.823036 0.561791 0.605093 0.395257
C12   C     C_R   0.275515 0.425478 0.559701 -0.030559
C13   C     C_R   0.818594 0.504799 0.364598 0.396047
C14   C     C_R   0.722148 0.411698 0.520205 -0.060585
C15   C     C_R   0.671953 0.405215 0.523988 -0.154886
C16   C     C_R   0.499390 0.737492 0.499769 0.547556
C17   C     C_R   0.667840 0.626623 0.479679 -0.030831
C18   C     C_R   0.718371 0.631968 0.476453 -0.034922
C19   C     C_R   0.745388 0.524803 0.495700 0.237022
C20   C     C_R   0.023825 0.499527 0.351230 -0.030622
C21   C     C_R   0.050680 0.541044 0.469573 0.023602
C22   C     C_R   0.026689 0.584451 0.589704 0.031179
C23   C     C_R   0.253876 0.517320 0.478352 0.226353
C24   C     C_R   0.049083 0.447659 0.238865 -0.131189
C25   C     C_R   0.104920 0.632851 0.698326 -0.126827
C26   C     C_R   0.950252 0.602446 0.718345 -0.146379
C27   C     C_R   0.900310 0.597690 0.721065 -0.119078
C28   C     C_R   0.592202 0.501375 0.500946 0.547563
C29   C     C_R   0.054906 0.633883 0.701084 -0.148803
C30   C     C_R   0.475747 0.062580 0.607502 -0.013597
C31   C     C_R   0.495094 0.129143 0.496337 -0.013424
C32   C     C_R   0.507624 0.064486 0.374928 -0.166111
C33   C     C_R   0.507859 0.935789 0.375028 -0.175246
C34   C     C_R   0.101971 0.537710 0.468798 -0.070267
C35   C     C_R   0.495554 0.870455 0.496504 -0.023554
C36   C     C_R   0.476183 0.935607 0.607728 0.075743
C37   C     C_3   0.484002 0.928008 0.762105 0.179380
C38   C     C_3   0.483386 0.069935 0.762299 -0.108490
C39   C     C_R   0.541211 0.526117 0.075226 0.158545
C40   C     C_R   0.177405 0.484423 0.358274 0.414154
C41   C     C_R   0.461435 0.454072 0.069871 0.082710
C42   C     C_R   0.461055 0.460981 0.922211 0.007516
C43   C     C_R   0.541517 0.523650 0.928528 0.154522
C44   C     C_3   0.573159 0.635795 0.922989 -0.277540
C45   C     C_R   0.126469 0.488958 0.353023 0.028356
C46   C     C_3   0.571886 0.639848 0.081860 -0.282128
C47   C     C_R   0.179282 0.575986 0.584880 0.394973
C48   C     C_R   0.282453 0.599873 0.402821 -0.061852
C49   C     C_R   0.332540 0.592144 0.410415 -0.153384
C50   C     C_R   0.325902 0.416302 0.567965 -0.023882
C51   C     C_3   0.347861 0.312747 0.651001 -0.390601
C52   C     C_3   0.639223 0.743003 0.460188 -0.396609
C53   C     C_3   0.455513 0.837622 0.963462 -0.107571
C54   C     C_3   0.440563 0.128738 0.835234 -0.359758
C55   C     C_3   0.418875 0.388640 0.132826 -0.341009
C56   C     C_R   0.099463 0.445029 0.236916 0.278441
C57   C     C_3   0.120278 0.470409 0.010073 -0.072273
C58   C     C_3   0.868606 0.457867 0.090328 -0.337242
C59   C     C_R   0.128827 0.582454 0.584801 0.027366
C60   C     C_R   0.354690 0.502285 0.494308 0.025804
C61   C     C_R   0.644689 0.511699 0.502587 0.028987
Cu1   Cu    Cu3+1 0.500000 0.499980 0.640670 0.948382
Cu2   Cu    Cu3+1 0.500000 0.500020 0.359330 0.920069
H1    H     H_    0.265795 0.670606 0.339180 0.134504
H2    H     H_    0.519728 0.888079 0.789500 0.073302
H3    H     H_    0.518797 0.112550 0.792091 0.114099
H4    H     H_    0.429276 0.433029 0.864062 0.120137
H5    H     H_    0.609470 0.614426 0.882283 0.147325
H6    H     H_    0.555438 0.715060 0.871675 0.131456
H7    H     H_    0.607641 0.622546 0.131703 0.147354
H8    H     H_    0.552375 0.720704 0.123389 0.122883
H9    H     H_    0.654290 0.316932 0.541671 0.107949
H10   H     H_    0.743050 0.328819 0.535255 0.125942
H11   H     H_    0.961763 0.472126 0.128902 0.101993
H12   H     H_    0.124839 0.671189 0.786753 0.152434
H13   H     H_    0.030702 0.403393 0.152029 0.122565
H14   H     H_    0.354170 0.657520 0.352020 0.122749
H15   H     H_    0.320087 0.244889 0.685076 0.132687
H16   H     H_    0.374417 0.262762 0.586944 0.133316
H17   H     H_    0.365859 0.350702 0.745717 0.135666
H18   H     H_    0.663081 0.824906 0.445245 0.124421
H19   H     H_    0.615115 0.734063 0.367054 0.139858
H20   H     H_    0.616957 0.759366 0.553700 0.131742
H21   H     H_    0.474834 0.912697 0.021943 0.091570
H22   H     H_    0.477367 0.752613 0.963294 0.134162
H23   H     H_    0.968049 0.622951 0.816584 0.103151
H24   H     H_    0.421736 0.816367 0.019696 0.151384
H25   H     H_    0.445103 0.120529 0.950157 0.128422
H26   H     H_    0.439295 0.227672 0.807913 0.129968
H27   H     H_    0.405701 0.085194 0.802229 0.184001
H28   H     H_    0.391329 0.456525 0.163593 0.156277
H29   H     H_    0.400939 0.325776 0.055705 0.069371
H30   H     H_    0.430168 0.328327 0.220121 0.182525
H31   H     H_    0.136861 0.561902 0.036297 0.133262
H32   H     H_    0.082717 0.482006 0.970114 0.088485
H33   H     H_    0.141497 0.429906 0.924466 0.174045
H34   H     H_    0.882766 0.618164 0.818549 0.155575
H35   H     H_    0.894127 0.444431 0.003475 0.100824
H36   H     H_    0.846957 0.371333 0.098104 0.186037
H37   H     H_    0.845282 0.536551 0.060745 0.190861
H38   H     H_    0.736952 0.718906 0.458212 0.121873
H39   H     H_    0.039453 0.676428 0.791460 0.105858
H40   H     H_    0.519888 0.112757 0.282784 0.137949
H41   H     H_    0.520255 0.888294 0.282966 0.122183
H42   H     H_    0.252783 0.361188 0.616089 0.128703
N1    N     N_R   0.202343 0.526804 0.473259 -0.410121
N2    N     N_R   0.796955 0.530662 0.488346 -0.398323
N3    N     N_R   0.500300 0.500930 0.147930 -0.225529
N4    N     N_R   0.500310 0.500890 0.852020 -0.243188
O1    O     O_R   0.500000 0.319640 0.618810 -0.504871
O2    O     O_R   0.569730 0.499960 0.618810 -0.499397
O3    O     O_R   0.569740 0.500000 0.381220 -0.495539
O4    O     O_2   0.202012 0.437248 0.250538 -0.435225
O5    O     O_3   0.443484 0.872104 0.825506 -0.537783
O6    O     O_3   0.121842 0.389518 0.125348 -0.511589
O7    O     O_2   0.790350 0.475342 0.253427 -0.508112
O8    O     O_2   0.205214 0.618213 0.695856 -0.496597
O9    O     O_2   0.800081 0.587265 0.724884 -0.502103
O10   O     O_R   0.500010 0.319680 0.381230 -0.515081
O11   O     O_R   0.430260 0.500000 0.618780 -0.494819
O12   O     O_R   0.430270 0.500040 0.381190 -0.520092
O13   O     O_R   0.499990 0.680320 0.618770 -0.481823
O14   O     O_R   0.500000 0.680360 0.381190 -0.510004

loop_
_geom_bond_atom_site_label_1
_geom_bond_atom_site_label_2
_ccdc_geom_bond_type
C10   C27   A    
C8    C13   A    
C41   N3    A    
C33   H41   S    
C41   C42   A    
C35   C36   A    
C58   H35   S    
C12   H42   S    
C55   H30   S    
C7    C8    A    
C57   O6    S    
C31   C32   A    
C28   O3    A    
C15   H9    S    
C12   C23   A    
C26   C27   A    
Cu1   Cu2   S    
C49   C60   A    
C53   H21   S    
C36   C37   S    
C22   C29   A    
C16   O14   A    
C54   H27   S    
C16   C35   S    
C30   C31   A    
C48   H1    S    
C1    C31   S    
C30   C38   S    
C18   C19   A    
C1    O10   A    
Cu2   O3    S    
C16   O13   A    
C51   H17   S    
C41   C55   S    
C55   H28   S    
C17   C61   A    
Cu1   O2    S    
C38   H3    S    
C45   C56   A    
C8    C9    A    
C57   H33   S    
C38   C54   S    
C29   H39   S    
C9    C10   A    
C7    C58   S    
Cu1   O11   S    
C13   N2    A    
C28   C61   S    
C21   C22   A    
C2    C6    A    
C17   C52   S    
Cu2   O12   S    
C44   C46   S    
C6    H11   S    
C28   O2    A    
C25   C29   A    
C39   N3    A    
C2    C20   A    
C14   H10   S    
C20   C24   A    
C58   H37   S    
C54   H26   S    
C24   H13   S    
C39   C43   A    
C21   C34   A    
C50   C51   S    
C23   N1    S    
C37   H2    S    
C25   H12   S    
C18   H38   S    
C52   H20   S    
C43   C44   S    
C5    C9    A    
C37   C38   S    
C1    O1    A    
Cu2   O10   S    
Cu2   O14   S    
C40   O4    S    
Cu1   O1    S    
C26   H23   S    
C47   N1    A    
C4    C60   S    
C17   C18   A    
C15   C61   A    
C32   H40   S    
C44   H6    S    
C53   H24   S    
C34   C45   A    
C52   H19   S    
C46   H8    S    
C39   C46   S    
C48   C49   A    
C55   H29   S    
C57   H31   S    
C11   N2    A    
C42   H4    S    
C44   H5    S    
C2    C5    A    
Cu1   O13   S    
C53   O5    S    
C40   N1    A    
C27   H34   S    
C23   C48   A    
C14   C19   A    
C42   N4    A    
C3    C26   A    
C58   H36   S    
C3    C5    A    
C12   C50   A    
C6    C7    A    
C37   O5    S    
C24   C56   A    
C43   N4    A    
C30   C36   A    
C50   C60   A    
C32   C33   A    
C51   H15   S    
C54   H25   S    
C34   C59   A    
Cu1   N4    S    
C33   C35   A    
C56   O6    S    
C49   H14   S    
C4    O12   A    
C52   H18   S    
C51   H16   S    
C46   H7    S    
C13   O7    S    
C10   C11   A    
C47   C59   A    
C47   O8    S    
C20   C21   A    
C57   H32   S    
C14   C15   A    
C4    O11   A    
C3    C22   A    
C53   H22   S    
C25   C59   A    
C40   C45   A    
Cu2   N3    S    
C11   O9    S    
C19   N2    S    
