data_mof_unit_29222.cif
_audit_creation_date              2012-12-10T20:27:59-0500
_audit_creation_method            fapswitch 2.2
_symmetry_space_group_name_H-M    P1
_symmetry_Int_Tables_number       1
_space_group_crystal_system       triclinic
_cell_length_a                    12.911318
_cell_length_b                    10.783566
_cell_length_c                    9.879002
_cell_angle_alpha                 88.2994
_cell_angle_beta                  97.726565
_cell_angle_gamma                 91.141097
_cell_volume                      1362.18974363

loop_
_atom_site_label
_atom_site_type_symbol
_atom_type_description
_atom_site_fract_x
_atom_site_fract_y
_atom_site_fract_z
_atom_type_partial_charge
C1    C     C_R   0.501636 0.260136 0.501642 0.866717
C2    C     C_R   0.522418 0.939020 0.379470 -0.199182
C3    C     C_R   0.498205 0.869898 0.494043 -0.117545
C4    C     C_R   0.298004 0.501201 0.472703 0.871608
C5    C     C_R   0.476163 0.931844 0.606449 0.058702
C6    C     C_3   0.452672 0.911560 0.748887 -0.016872
C7    C     C_3   0.457606 0.053808 0.755573 -0.518667
C8    C     C_R   0.420024 0.442895 0.059028 0.061381
C9    C     C_R   0.572154 0.567227 0.082240 0.621778
C10   C     C_R   0.572203 0.566935 0.938412 -0.251708
C11   C     C_R   0.420952 0.443485 0.916363 0.167915
C12   C     C_R   0.029270 0.513033 0.560209 0.169906
C13   C     C_3   0.395697 0.310340 0.907034 -0.562710
C14   C     C_3   0.390831 0.306705 0.059822 -0.035736
C15   C     C_R   0.499481 0.739204 0.497997 0.884991
C16   C     C_R   0.701903 0.500078 0.527222 0.889526
C17   C     C_R   0.814278 0.501182 0.542962 -0.047440
C18   C     C_R   0.185402 0.501646 0.455572 -0.108253
C19   C     C_R   0.018213 0.474705 0.313379 0.151855
C20   C     C_R   0.127387 0.482245 0.327705 -0.197870
C21   C     C_R   0.136314 0.518763 0.570470 -0.287909
C22   C     C_3   0.278746 0.277237 0.090380 -0.358266
C23   C     C_R   0.969458 0.490148 0.432142 0.095933
C24   C     C_3   0.275582 0.215994 0.230839 -0.855777
C25   C     C_3   0.952808 0.451336 0.175151 -0.395628
C26   C     C_3   0.012455 0.426224 0.055795 -0.928657
C27   C     C_3   0.343562 0.854004 0.756738 -0.354748
C28   C     C_3   0.320155 0.846152 0.904123 -0.873900
C29   C     C_R   0.861882 0.483946 0.426430 -0.254425
C30   C     C_R   0.873730 0.523218 0.668962 -0.206688
C31   C     C_R   0.981517 0.529373 0.677441 -0.205498
C32   C     C_R   0.481133 0.055542 0.611750 0.089812
C33   C     C_R   0.503782 0.128216 0.501306 -0.085650
C34   C     C_R   0.525492 0.068044 0.383290 -0.236314
F1    F     F_    0.646281 0.633986 0.160246 -0.670249
H1    H     H_    0.813767 0.466612 0.330604 0.179955
H2    H     H_    0.027573 0.547698 0.774992 0.139736
H3    H     H_    0.168304 0.472336 0.240796 0.181022
H4    H     H_    0.181431 0.535889 0.669191 0.165746
H5    H     H_    0.545446 0.119786 0.294619 0.165059
H6    H     H_    0.540562 0.894268 0.288949 0.192366
H7    H     H_    0.320474 0.128716 0.240378 0.259611
H8    H     H_    0.307599 0.278817 0.312654 0.284055
H9    H     H_    0.193286 0.193195 0.244341 0.241461
H10   H     H_    0.232643 0.363173 0.080013 0.203935
H11   H     H_    0.239530 0.211179 0.014756 0.207862
H12   H     H_    0.517395 0.864328 0.815400 0.176705
H13   H     H_    0.064729 0.505794 0.035917 0.253940
H14   H     H_    0.057098 0.339490 0.076886 0.265644
H15   H     H_    0.955727 0.412571 0.962355 0.260549
H16   H     H_    0.901528 0.368625 0.186152 0.205570
H17   H     H_    0.902493 0.532925 0.146129 0.230495
H18   H     H_    0.379036 0.788000 0.967941 0.258063
H19   H     H_    0.321125 0.940268 0.947139 0.267410
H20   H     H_    0.241599 0.803240 0.907311 0.245809
H21   H     H_    0.282126 0.909074 0.693272 0.208259
H22   H     H_    0.340018 0.758698 0.716632 0.228795
H23   H     H_    0.381188 0.096560 0.763320 0.208876
H24   H     H_    0.525822 0.085837 0.827465 0.185117
H25   H     H_    0.631705 0.619051 0.892761 0.171837
H26   H     H_    0.320957 0.293659 0.839380 0.198429
H27   H     H_    0.464265 0.261877 0.880816 0.205660
H28   H     H_    0.452239 0.247303 0.116862 0.176588
H29   H     H_    0.837128 0.537408 0.759614 0.162554
N1    N     N_R   0.499290 0.499140 0.142710 -0.167932
N2    N     N_R   0.499290 0.499180 0.857070 -0.128996
O1    O     O_R   0.500010 0.316790 0.614690 -0.610398
O2    O     O_R   0.500000 0.316760 0.385350 -0.637050
O3    O     O_R   0.346360 0.499990 0.595720 -0.622267
O4    O     O_R   0.346350 0.499960 0.366370 -0.628400
O5    O     O_R   0.500000 0.683240 0.614650 -0.637558
O6    O     O_R   0.499990 0.683210 0.385310 -0.586173
O7    O     O_R   0.653650 0.500040 0.633630 -0.630781
O8    O     O_R   0.653640 0.500010 0.404280 -0.569887
Zn1   Zn    Zn3+2 0.500010 0.500020 0.653130 0.938679
Zn2   Zn    Zn3+2 0.499990 0.499980 0.346870 0.989221

loop_
_geom_bond_atom_site_label_1
_geom_bond_atom_site_label_2
_ccdc_geom_bond_type
C30   H29   S    
C18   C21   A    
C24   H7    S    
C10   H25   S    
C19   C20   A    
O6    Zn2   S    
C4    O4    A    
C1    C33   S    
C15   O6    A    
C29   H1    S    
N1    Zn2   S    
O8    Zn2   S    
C16   O8    A    
C23   C29   A    
C26   H15   S    
C5    C6    S    
C14   H28   S    
C2    H6    S    
C1    O2    A    
C17   C29   A    
C13   H27   S    
C16   C17   S    
C9    C10   A    
C7    H23   S    
C11   N2    A    
C26   H13   S    
C5    C32   A    
C4    C18   S    
C2    C34   A    
C8    N1    A    
C13   C14   S    
C17   C30   A    
O7    Zn1   S    
C7    H24   S    
C4    O3    A    
C28   H20   S    
C10   N2    A    
C6    H12   S    
C16   O7    A    
C27   H22   S    
C26   H14   S    
C28   H19   S    
C27   H21   S    
C12   C23   A    
C25   C26   S    
C12   C21   A    
C31   H2    S    
C19   C23   A    
C25   H16   S    
C20   H3    S    
C6    C27   S    
C21   H4    S    
C33   C34   A    
C22   H11   S    
C12   C31   A    
O4    Zn2   S    
C24   H9    S    
C22   C24   S    
O1    Zn1   S    
C3    C15   S    
C8    C14   S    
C7    C32   S    
C3    C5    A    
C28   H18   S    
C6    C7    S    
O2    Zn2   S    
C15   O5    A    
C32   C33   A    
C14   C22   S    
C2    C3    A    
C25   H17   S    
O5    Zn1   S    
C11   C13   S    
C30   C31   A    
C8    C11   A    
N2    Zn1   S    
C1    O1    A    
O3    Zn1   S    
C18   C20   A    
C19   C25   S    
C9    N1    A    
C22   H10   S    
C13   H26   S    
C27   C28   S    
C9    F1    S    
C24   H8    S    
C34   H5    S    
