data_mof_unit_36111.cif
_audit_creation_date              2012-12-10T18:57:10-0500
_audit_creation_method            fapswitch 2.2
_symmetry_space_group_name_H-M    P1
_symmetry_Int_Tables_number       1
_space_group_crystal_system       triclinic
_cell_length_a                    10.74081
_cell_length_b                    9.904557
_cell_length_c                    10.768918
_cell_angle_alpha                 90.00062
_cell_angle_beta                  92.641258
_cell_angle_gamma                 90.000372
_cell_volume                      1144.41236057

loop_
_atom_site_label
_atom_site_type_symbol
_atom_type_description
_atom_site_fract_x
_atom_site_fract_y
_atom_site_fract_z
_atom_type_partial_charge
Br1   Br    Br    0.868361 0.788928 0.410883 -0.503075
Br2   Br    Br    0.131644 0.788927 0.589123 -0.503066
C1    C     C_R   0.260476 0.500328 0.507612 0.927528
C2    C     C_R   0.501058 0.617308 0.938062 0.156437
C3    C     C_R   0.498854 0.498326 0.129195 -0.099429
C4    C     C_R   0.501049 0.498328 0.870802 -0.099461
C5    C     C_R   0.499423 0.374789 0.064477 -0.218969
C6    C     C_R   0.500371 0.374791 0.935511 -0.218965
C7    C     C_3   0.501281 0.767520 0.928816 -0.463330
C8    C     C_3   0.498851 0.767516 0.071214 -0.463317
C9    C     C_R   0.063866 0.378755 0.503833 -0.216368
C10   C     C_R   0.936133 0.378755 0.496162 -0.216367
C11   C     C_R   0.872335 0.501588 0.486029 -0.148211
C12   C     C_R   0.739524 0.500328 0.492388 0.927555
C13   C     C_R   0.127665 0.501587 0.513972 -0.148199
C14   C     C_R   0.937524 0.624701 0.482733 0.260779
C15   C     C_R   0.062477 0.624701 0.517273 0.260768
C16   C     C_2   0.695236 0.871126 0.642775 0.446663
C17   C     C_2   0.304763 0.871118 0.357227 0.446663
C18   C     C_R   0.590123 0.073750 0.564663 -0.145153
C19   C     C_R   0.409876 0.073747 0.435336 -0.145156
C20   C     C_R   0.590777 0.930943 0.566900 0.053365
C21   C     C_R   0.409223 0.930940 0.433100 0.053353
C22   C     C_R   0.499323 0.499885 0.260544 0.907316
C23   C     C_R   0.500658 0.499886 0.739455 0.907327
C24   C     C_R   0.498879 0.617307 0.061942 0.156485
H1    H     H_    0.499241 0.278696 0.112522 0.180679
H2    H     H_    0.338619 0.130585 0.383596 0.127101
H3    H     H_    0.780114 0.929344 0.659174 0.076942
H4    H     H_    0.219875 0.929323 0.340850 0.076961
H5    H     H_    0.500494 0.278697 0.887460 0.180692
H6    H     H_    0.589629 0.808502 0.895136 0.241457
H7    H     H_    0.410560 0.808627 0.104910 0.241424
H8    H     H_    0.414585 0.807435 0.881824 0.222736
H9    H     H_    0.585603 0.807294 0.118208 0.222749
H10   H     H_    0.112097 0.282658 0.503939 0.191260
H11   H     H_    0.887900 0.282658 0.496053 0.191263
H12   H     H_    0.661381 0.130591 0.616404 0.127110
N1    N     N_R   0.500000 0.857200 0.500000 -0.081781
N2    N     N_R   0.500000 0.142810 0.500000 -0.074298
O1    O     O_R   0.316770 0.614620 0.499990 -0.547012
O2    O     O_2   0.311642 0.762273 0.306348 -0.547376
O3    O     O_R   0.683230 0.614620 0.500010 -0.546988
O4    O     O_R   0.316800 0.385290 0.500000 -0.640513
O5    O     O_R   0.683200 0.385290 0.500000 -0.640505
O6    O     O_R   0.500000 0.614690 0.316780 -0.564175
O7    O     O_R   0.500000 0.614690 0.683220 -0.564168
O8    O     O_R   0.500020 0.385360 0.316780 -0.638032
O9    O     O_R   0.499980 0.385360 0.683220 -0.638032
O10   O     O_2   0.688369 0.762269 0.693630 -0.547384
Zn1   Zn    Zn3+2 0.500000 0.653120 0.500000 1.073849
Zn2   Zn    Zn3+2 0.500000 0.346880 0.500000 0.960870

loop_
_geom_bond_atom_site_label_1
_geom_bond_atom_site_label_2
_ccdc_geom_bond_type
N1    Zn1   S    
C9    C10   A    
C8    H9    S    
C8    H7    S    
C18   H12   S    
C7    C8    S    
C23   O7    A    
C17   C21   S    
O5    Zn2   S    
C17   O2    D    
O9    Zn2   S    
C22   O6    A    
C8    C24   S    
C1    C13   S    
C5    C6    A    
Br1   C14   S    
C16   C20   S    
C11   C12   S    
Br2   C15   S    
C17   H4    S    
O4    Zn2   S    
C14   C15   A    
C3    C22   S    
O3    Zn1   S    
C21   N1    A    
C20   N1    A    
C9    H10   S    
C19   H2    S    
C18   C20   A    
C12   O5    A    
C3    C5    A    
C19   C21   A    
C7    H8    S    
C18   N2    A    
C23   O9    A    
C1    O4    A    
C4    C23   S    
C2    C24   A    
C16   H3    S    
C3    C24   A    
C22   O8    A    
O8    Zn2   S    
C5    H1    S    
C10   C11   A    
C16   O10   D    
C2    C4    A    
C11   C14   A    
C10   H11   S    
C13   C15   A    
C1    O1    A    
C4    C6    A    
C7    H6    S    
C2    C7    S    
N2    Zn2   S    
C6    H5    S    
C9    C13   A    
O6    Zn1   S    
O1    Zn1   S    
O7    Zn1   S    
C12   O3    A    
C19   N2    A    
