data_mof_unit_57149.cif
_audit_creation_date              2013-03-05T16:10:27-0500
_audit_creation_method            fapswitch 2.2
_symmetry_space_group_name_H-M    P1
_symmetry_Int_Tables_number       1
_space_group_crystal_system       triclinic
_cell_length_a                    10.741084
_cell_length_b                    9.839878
_cell_length_c                    14.887541
_cell_angle_alpha                 90.362002
_cell_angle_beta                  89.537599
_cell_angle_gamma                 90.749975
_cell_volume                      1573.26204355

loop_
_atom_site_label
_atom_site_type_symbol
_atom_site_description
_atom_site_fract_x
_atom_site_fract_y
_atom_site_fract_z
_atom_type_partial_charge
O1    O     O_R   0.316770 0.614620 0.499990 -0.587785
O2    O     O_R   0.683230 0.385380 0.500010 -0.590814
O3    O     O_R   0.683230 0.614620 0.500010 -0.585002
O4    O     O_R   0.316770 0.385380 0.499990 -0.590376
C1    C     C_R   0.260055 0.498909 0.500908 0.971815
C2    C     C_R   0.739926 0.501167 0.498438 0.996695
O5    O     O_R   0.499980 0.614680 0.367850 -0.646087
O6    O     O_R   0.500020 0.385320 0.632150 -0.639879
O7    O     O_R   0.500020 0.614680 0.632150 -0.586424
O8    O     O_R   0.499980 0.385320 0.367850 -0.591499
C3    C     C_R   0.501099 0.499733 0.327061 0.894341
C4    C     C_R   0.498462 0.500247 0.673041 0.915720
Zn1   Zn    Zn3+2 0.500000 0.653120 0.500000 1.038790
Zn2   Zn    Zn3+2 0.500000 0.346880 0.500000 1.039750
C5    C     C_R   0.609651 0.523893 0.812663 -0.214308
C6    C     C_R   0.389247 0.475640 0.187912 -0.216377
C7    C     C_R   0.498011 0.500745 0.768358 -0.067189
C8    C     C_R   0.500888 0.499596 0.231945 -0.058773
C9    C     C_R   0.386546 0.477661 0.814320 -0.161502
C10   C     C_R   0.611274 0.527237 0.185971 -0.161198
C11   C     C_R   0.385615 0.479751 0.907431 0.066760
C12   C     C_R   0.611292 0.528263 0.092977 0.074939
C13   C     C_R   0.498406 0.504370 0.953452 -0.001454
C14   C     C_R   0.498544 0.504345 0.046970 -0.006493
C15   C     C_R   0.611389 0.526812 0.905783 0.019616
C16   C     C_R   0.386302 0.479143 0.094736 0.017802
C17   C     C_R   0.274252 0.457352 0.954961 -0.311768
C18   C     C_R   0.722234 0.551467 0.045652 -0.301357
C19   C     C_R   0.273719 0.458615 0.048680 0.481377
C20   C     C_R   0.723259 0.551828 0.952028 0.472643
H1    H     H_    0.694562 0.538543 0.774167 0.218904
H2    H     H_    0.305305 0.456235 0.226850 0.206138
H3    H     H_    0.301295 0.458473 0.777486 0.172031
H4    H     H_    0.696584 0.546777 0.222712 0.161173
H5    H     H_    0.187812 0.438554 0.919617 0.185795
H6    H     H_    0.808501 0.568049 0.081123 0.160468
C21   C     C_R   0.063124 0.395394 0.453698 0.194095
C22   C     C_R   0.937027 0.606786 0.543316 0.210928
C23   C     C_R   0.934952 0.400741 0.448589 0.201435
C24   C     C_R   0.065090 0.601254 0.548558 0.202663
C25   C     C_R   0.872498 0.504197 0.495611 -0.370835
C26   C     C_R   0.127476 0.496612 0.502656 -0.370403
C27   C     C_R   0.561830 0.073426 0.564748 -0.023311
C28   C     C_R   0.438304 0.926568 0.435188 -0.019565
C29   C     C_R   0.438621 0.070438 0.435043 0.027317
C30   C     C_R   0.561726 0.929552 0.564793 0.018277
H7    H     H_    0.611445 0.129068 0.616454 0.145947
H8    H     H_    0.388765 0.870925 0.383443 0.142434
H9    H     H_    0.389779 0.123705 0.382976 0.173390
H10   H     H_    0.611002 0.876291 0.616640 0.177624
N1    N     N_R   0.500000 0.857200 0.500000 -0.099417
N2    N     N_R   0.500000 0.142800 0.500000 -0.099700
O9    O     O_3   0.164096 0.433461 0.095371 -0.571908
C31   C     C_3   0.100460 0.557140 0.107761 0.055766
H11   H     H_    0.040238 0.575009 0.048824 0.171725
H12   H     H_    0.164179 0.646826 0.116719 0.129518
C32   C     C_3   0.019069 0.547408 0.191722 -0.712401
H13   H     H_    0.078243 0.538587 0.252129 0.258510
H14   H     H_    0.962181 0.640338 0.198805 0.191720
H15   H     H_    0.956110 0.457226 0.187350 0.294793
O10   O     O_3   0.835302 0.564874 0.906154 -0.608743
C33   C     C_3   0.869235 0.703816 0.902692 0.040292
H16   H     H_    0.878493 0.748414 0.971343 0.131772
H17   H     H_    0.799062 0.761898 0.864410 0.181155
C34   C     C_3   0.994539 0.718505 0.855050 -0.638357
H18   H     H_    0.990004 0.671655 0.787159 0.303179
H19   H     H_    0.019726 0.827782 0.848296 0.221674
H20   H     H_    0.067896 0.667443 0.894057 0.215736
N3    N     N_R   0.127564 0.289722 0.406459 0.239442
O11   O     O_R   0.150325 0.176276 0.447228 -0.317777
O12   O     O_R   0.142412 0.296776 0.319852 -0.390608
N4    N     N_R   0.872917 0.713209 0.590086 0.240682
O13   O     O_R   0.868084 0.833976 0.555310 -0.313726
O14   O     O_R   0.811897 0.687193 0.663874 -0.461842
N5    N     N_R   0.869117 0.304282 0.392888 0.252826
O15   O     O_R   0.797326 0.346342 0.329115 -0.422645
O16   O     O_R   0.882726 0.174391 0.404479 -0.280522
N6    N     N_R   0.130653 0.696577 0.605243 0.235019
O17   O     O_R   0.199211 0.653257 0.670485 -0.436961
O18   O     O_R   0.124137 0.826506 0.590711 -0.295671

loop_
_geom_bond_atom_site_label_1
_geom_bond_atom_site_label_2
_geom_bond_distance
_ccdc_geom_bond_type
C1    C26   1.423960 S    
C3    C8    1.416047 S    
C21   N3    1.434086 S    
C17   C19   1.395186 A    
O3    C2    1.278639 A    
C23   C25   1.406301 A    
O9    C31   1.413931 S    
O5    C3    1.280534 A    
O1    C1    1.284354 A    
C9    C11   1.386175 A    
C14   C16   1.414648 A    
N3    O11   1.300914 A    
N6    O18   1.300892 A    
C27   N2    1.366284 A    
C5    C15   1.386715 A    
C21   C26   1.407805 A    
N3    O12   1.300100 A    
O7    Zn1   2.005765 S    
C33   H17   1.114405 S    
Zn1   N1    2.008122 S    
Zn2   N2    2.008122 S    
C34   H19   1.110333 S    
C2    C25   1.424169 S    
C4    C7    1.418984 S    
C13   C14   1.392266 A    
C23   N5    1.438936 S    
O3    Zn1   2.009082 S    
C10   H4    1.085332 S    
C24   C26   1.406410 A    
C11   C17   1.400537 A    
C12   C18   1.396380 A    
O2    C2    1.285073 A    
C27   C30   1.415690 A    
C31   H12   1.117663 S    
C6    C16   1.388430 A    
C22   N4    1.434408 S    
C22   C25   1.408684 A    
N4    O14   1.299761 A    
O8    Zn2   2.005766 S    
N6    O17   1.300920 A    
O4    C1    1.279337 A    
C32   H15   1.110530 S    
C29   N2    1.366059 A    
C17   H5    1.084100 S    
C30   N1    1.366081 A    
N5    O15   1.300929 A    
C33   H16   1.114394 S    
C29   H9    1.081526 S    
O6    C4    1.281160 A    
C34   H20   1.109940 S    
N5    O16   1.301078 A    
C24   N6    1.438797 S    
C10   C12   1.384550 A    
C11   C13   1.414018 A    
C9    H3    1.084948 S    
C12   C14   1.412454 A    
O1    Zn1   1.999345 S    
C28   C29   1.415636 A    
C28   N1    1.366216 A    
C15   C20   1.407808 A    
C5    C7    1.388731 A    
C31   H11   1.110534 S    
O6    Zn2   2.001070 S    
C33   C34   1.521907 S    
N4    O13   1.301041 A    
C5    H1    1.081760 S    
C6    H2    1.083461 S    
C30   H10   1.081463 S    
C18   C20   1.393817 A    
C21   C23   1.381128 A    
C22   C24   1.380187 A    
C32   H13   1.109925 S    
C19   O9    1.382826 S    
C7    C9    1.390994 A    
C8    C10   1.388905 A    
C13   C15   1.416401 A    
O4    Zn2   2.009084 S    
O10   C33   1.411455 S    
O2    Zn2   1.999343 S    
O7    C4    1.283261 A    
C32   H14   1.110413 S    
O8    C3    1.282383 A    
O5    Zn1   2.001072 S    
C18   H6    1.080248 S    
C16   C19   1.406596 A    
C6    C8    1.388024 A    
C34   H18   1.109408 S    
C20   O10   1.383841 S    
C27   H7    1.081656 S    
C28   H8    1.081674 S    
C31   C32   1.522357 S    
