data_mof_unit_59194.cif
_audit_creation_date              2012-12-10T18:58:47-0500
_audit_creation_method            fapswitch 2.2
_symmetry_space_group_name_H-M    P1
_symmetry_Int_Tables_number       1
_space_group_crystal_system       triclinic
_cell_length_a                    13.164379
_cell_length_b                    11.070338
_cell_length_c                    9.666521
_cell_angle_alpha                 92.406595
_cell_angle_beta                  95.732448
_cell_angle_gamma                 89.758993
_cell_volume                      1400.46079969

loop_
_atom_site_label
_atom_site_type_symbol
_atom_type_description
_atom_site_fract_x
_atom_site_fract_y
_atom_site_fract_z
_atom_type_partial_charge
C1    C     C_R   0.499285 0.262875 0.496617 0.807294
C2    C     C_R   0.026639 0.479846 0.577633 -0.068700
C3    C     C_R   0.973814 0.443582 0.447609 -0.077731
C4    C     C_R   0.866548 0.430355 0.434480 0.491183
C5    C     C_R   0.863669 0.490397 0.675449 -0.412830
C6    C     C_R   0.971338 0.492349 0.696849 0.459036
C7    C     C_R   0.540608 0.071919 0.609489 -0.136877
C8    C     C_R   0.506563 0.130045 0.490630 -0.154146
C9    C     C_R   0.487157 0.057059 0.368694 0.475912
C10   C     C_R   0.484860 0.929802 0.376076 -0.306445
C11   C     C_R   0.510013 0.872298 0.503303 -0.104321
C12   C     C_R   0.300886 0.492286 0.475263 0.811415
C13   C     C_R   0.550954 0.947648 0.617486 -0.051006
C14   C     C_3   0.535037 0.962489 0.770608 -0.189023
C15   C     C_3   0.520458 0.099914 0.755148 0.801902
C16   C     C_R   0.583941 0.538517 0.086817 0.219680
C17   C     C_R   0.419179 0.458938 0.060514 -0.119868
C18   C     C_R   0.419938 0.456744 0.913008 -0.061806
C19   C     C_R   0.582242 0.540605 0.939011 0.176042
C20   C     C_3   0.615153 0.667722 0.946853 -0.313567
C21   C     C_3   0.626758 0.663689 0.104551 -0.313286
C22   C     C_R   0.503307 0.737931 0.502774 0.819527
C23   C     C_R   0.698784 0.490194 0.525577 0.840621
C24   C     C_R   0.811365 0.473985 0.543081 -0.158627
C25   C     C_R   0.188165 0.473037 0.466895 -0.194105
C26   C     C_R   0.029120 0.412135 0.335007 -0.238593
C27   C     C_R   0.135062 0.418100 0.347428 -0.083244
C28   C     C_R   0.133910 0.498051 0.585488 0.401092
Cu1   Cu    Cu3+1 0.499990 0.499980 0.640670 0.991381
Cu2   Cu    Cu3+1 0.500010 0.500020 0.359330 0.971299
H1    H     H_    0.352497 0.428276 0.103538 0.185329
H2    H     H_    0.353949 0.422333 0.848202 0.203507
H3    H     H_    0.550516 0.725448 0.909537 0.171016
H4    H     H_    0.576396 0.729256 0.154735 0.167526
H5    H     H_    0.818915 0.497252 0.762530 0.187239
H6    H     H_    0.990026 0.376771 0.237715 0.183138
H7    H     H_    0.462941 0.877057 0.280964 0.171398
N1    N     N_R   0.500660 0.500930 0.148010 -0.197840
N2    N     N_R   0.500660 0.500890 0.852110 -0.185588
O1    O     O_R   0.500000 0.319640 0.618810 -0.542077
O2    O     O_R   0.500010 0.319680 0.381230 -0.556477
O3    O     O_R   0.348990 0.499960 0.599490 -0.544613
O4    O     O_R   0.349000 0.500000 0.361910 -0.587400
O5    O     O_R   0.499990 0.680320 0.618770 -0.576452
O6    O     O_R   0.500000 0.680360 0.381190 -0.599078
O7    O     O_R   0.651000 0.500000 0.638090 -0.601248
O8    O     O_R   0.651010 0.500040 0.400510 -0.556840
O9    O     O_3   0.816094 0.365144 0.322719 -0.598090
C29   C     C_3   0.838826 0.239712 0.334783 0.045747
H8    H     H_    0.921752 0.220047 0.353268 0.154609
H9    H     H_    0.813763 0.192308 0.234280 0.167442
C30   C     C_3   0.784981 0.183045 0.448937 -0.902729
H10   H     H_    0.787628 0.082948 0.436624 0.229169
H11   H     H_    0.824141 0.210301 0.552435 0.234054
H12   H     H_    0.704415 0.212414 0.443712 0.235635
C31   C     C_1   0.625994 0.941744 0.867983 0.187925
N3    N     N_1   0.697751 0.933755 0.946766 -0.294816
O10   O     O_3   0.418139 0.142727 0.753532 -0.587001
C32   C     C_3   0.380329 0.147149 0.885294 0.119820
H13   H     H_    0.401731 0.232452 0.941562 0.168754
H14   H     H_    0.408373 0.074065 0.953145 0.151567
C33   C     C_3   0.264398 0.139420 0.863739 -0.743999
H15   H     H_    0.240555 0.060514 0.793442 0.252600
H16   H     H_    0.233094 0.127748 0.964565 0.233299
H17   H     H_    0.232456 0.223075 0.816772 0.254793
O11   O     O_3   0.593920 0.178578 0.834946 -0.607358
C34   C     C_3   0.686959 0.195590 0.773275 0.074656
H18   H     H_    0.673863 0.256140 0.685250 0.168631
H19   H     H_    0.719247 0.108858 0.735245 0.152524
C35   C     C_3   0.769000 0.254829 0.875731 -0.825292
H20   H     H_    0.799006 0.189727 0.953907 0.240793
H21   H     H_    0.834328 0.280996 0.819332 0.214387
H22   H     H_    0.738637 0.336976 0.927251 0.250283
C36   C     C_1   0.704287 0.687887 0.871506 0.344070
N4    N     N_1   0.770824 0.710996 0.807844 -0.326124
C37   C     C_1   0.732012 0.664757 0.171932 0.336722
N5    N     N_1   0.814445 0.666308 0.225995 -0.311848
O12   O     O_3   0.024880 0.497998 0.830133 -0.544878
C38   C     C_3   0.968219 0.549473 0.934930 0.063717
H23   H     H_    0.912084 0.482777 0.964483 0.155847
H24   H     H_    0.931037 0.634096 0.900688 0.181851
C39   C     C_3   0.037747 0.584845 0.064759 -0.793097
H25   H     H_    0.075174 0.672679 0.052438 0.230605
H26   H     H_    0.992473 0.596587 0.154894 0.241279
H27   H     H_    0.095742 0.513831 0.085935 0.260348
C40   C     C_1   0.186581 0.346658 0.247778 0.259954
N6    N     N_1   0.226251 0.286149 0.168992 -0.305730
O13   O     O_3   0.188061 0.521163 0.713516 -0.550350
C41   C     C_3   0.188680 0.646211 0.746991 0.150174
H28   H     H_    0.110048 0.684367 0.741847 0.140769
H29   H     H_    0.233118 0.695557 0.675156 0.139893
C42   C     C_3   0.238443 0.664643 0.895302 -0.701805
H30   H     H_    0.216360 0.591878 0.960975 0.257328
H31   H     H_    0.322170 0.658383 0.896956 0.244418
H32   H     H_    0.217223 0.753983 0.940498 0.203840
O14   O     O_3   0.474830 0.108666 0.241403 -0.578924
C43   C     C_3   0.566894 0.093373 0.178921 0.009295
H33   H     H_    0.550881 0.034654 0.084722 0.167321
H34   H     H_    0.631008 0.049245 0.243230 0.137369
C44   C     C_3   0.604965 0.214875 0.139947 -0.641349
H35   H     H_    0.546222 0.262434 0.073797 0.254385
H36   H     H_    0.629242 0.273076 0.232458 0.270191
H37   H     H_    0.671943 0.199202 0.083535 0.226972
C45   C     C_1   0.443824 0.898462 0.800571 0.233669
N7    N     N_1   0.369481 0.852002 0.822513 -0.337063

loop_
_geom_bond_atom_site_label_1
_geom_bond_atom_site_label_2
_ccdc_geom_bond_type
C14   C31   S    
C16   C21   S    
Cu1   O3    S    
C1    C8    S    
Cu2   O6    S    
C19   C20   S    
C43   H33   S    
C7    C8    A    
C25   C28   A    
C21   C37   S    
C26   C27   A    
Cu1   Cu2   S    
C10   H7    S    
C12   O4    A    
C5    C6    A    
C4    C24   A    
C6    O12   S    
C31   N3    T    
Cu2   N1    S    
C44   H35   S    
C12   O3    A    
C1    O1    A    
C22   O5    A    
C8    C9    A    
C29   H9    S    
C28   O13   S    
C33   H16   S    
C23   C24   S    
Cu2   O2    S    
C35   H20   S    
C41   H29   S    
C9    C10   A    
C30   H12   S    
C7    C15   S    
O11   C34   S    
C32   H13   S    
C23   O7    A    
C13   C14   S    
C2    C6    A    
C44   H36   S    
C45   N7    T    
C43   H34   S    
C30   H11   S    
C32   H14   S    
C23   O8    A    
C36   N4    T    
C34   H18   S    
Cu2   O8    S    
C37   N5    T    
C38   H24   S    
O12   C38   S    
C21   H4    S    
O10   C32   S    
C15   O11   S    
C42   H32   S    
C34   H19   S    
C27   C40   S    
C18   N2    A    
C33   H15   S    
C14   C45   S    
C29   C30   S    
O14   C43   S    
Cu1   N2    S    
C35   H22   S    
C42   H31   S    
C17   C18   A    
C20   C36   S    
C20   C21   S    
C41   C42   S    
C9    O14   S    
C19   N2    A    
C20   H3    S    
C1    O2    A    
O9    C29   S    
C39   H25   S    
C39   H26   S    
Cu1   O5    S    
C17   H1    S    
C15   O10   S    
Cu2   O4    S    
C18   H2    S    
C3    C4    A    
C43   C44   S    
C30   H10   S    
C4    O9    S    
C26   H6    S    
C32   C33   S    
C33   H17   S    
C40   N6    T    
C3    C26   A    
C38   C39   S    
C2    C28   A    
C25   C27   A    
C39   H27   S    
Cu1   O7    S    
C11   C22   S    
C12   C25   S    
C34   C35   S    
C2    C3    A    
C11   C13   A    
C5    C24   A    
C16   C19   A    
C5    H5    S    
Cu1   O1    S    
C42   H30   S    
C17   N1    A    
C44   H37   S    
C10   C11   A    
C38   H23   S    
C7    C13   A    
C22   O6    A    
O13   C41   S    
C29   H8    S    
C14   C15   S    
C35   H21   S    
C41   H28   S    
C16   N1    A    
