data_mof_unit_46014.cif
_audit_creation_date              2012-10-26T20:19:33-0400
_audit_creation_method            fapswitch 2.2
_symmetry_space_group_name_H-M    P1
_symmetry_Int_Tables_number       1
_space_group_crystal_system       triclinic
_cell_length_a                    10.742916
_cell_length_b                    10.85969
_cell_length_c                    9.577772
_cell_angle_alpha                 90.456205
_cell_angle_beta                  89.949803
_cell_angle_gamma                 92.626037
_cell_volume                      1116.1793042

loop_
_atom_site_label
_atom_site_type_symbol
_atom_type_description
_atom_site_fract_x
_atom_site_fract_y
_atom_site_fract_z
_atom_type_partial_charge
C1    C     C_R   0.509758 0.263132 0.500162 0.532885
C2    C     C_R   0.537715 0.066129 0.629776 0.030562
C3    C     C_R   0.522063 0.129523 0.502415 -0.013547
C4    C     C_R   0.260008 0.500328 0.499886 0.545749
C5    C     C_R   0.501315 0.062885 0.378400 -0.157387
C6    C     C_R   0.491043 0.935653 0.380268 -0.159346
C7    C     C_R   0.489907 0.872496 0.507294 -0.007785
C8    C     C_R   0.664747 0.665441 0.145151 -0.090075
C9    C     C_R   0.744993 0.747650 0.073238 0.059059
C10   C     C_R   0.745301 0.745514 0.929079 -0.130697
C11   C     C_R   0.665389 0.664004 0.856760 -0.129689
C12   C     C_3   0.878057 0.499837 0.499340 0.092800
C13   C     C_R   0.581274 0.580862 0.925695 0.133996
C14   C     C_R   0.581143 0.581125 0.075295 0.128262
C15   C     C_R   0.423009 0.422717 0.073349 -0.010243
C16   C     C_R   0.493758 0.737690 0.501672 0.546909
C17   C     C_R   0.423000 0.422798 0.925296 -0.010817
C18   C     C_R   0.739989 0.500440 0.499805 0.572537
C19   C     C_3   0.078022 0.614904 0.580570 -0.229937
C20   C     C_3   0.933407 0.612836 0.585057 -0.041364
C21   C     C_3   0.071787 0.504709 0.347728 -0.241856
C22   C     C_3   0.067830 0.381867 0.570320 -0.200481
C23   C     C_3   0.929570 0.507359 0.347328 -0.225444
C24   C     C_3   0.122127 0.500541 0.499667 0.011636
C25   C     C_3   0.923517 0.380226 0.570976 -0.044501
C26   C     C_R   0.586988 0.123993 0.752313 -0.090293
C27   C     C_R   0.574880 0.066702 0.881481 -0.121761
C28   C     C_R   0.513352 0.951889 0.890597 -0.121939
C29   C     C_R   0.475846 0.889003 0.769188 -0.104015
C30   C     C_R   0.500542 0.940233 0.635457 0.026455
Cu1   Cu    Cu3+1 0.499990 0.499990 0.640660 0.900580
Cu2   Cu    Cu3+1 0.500010 0.500010 0.359340 0.909339
H1    H     H_    0.117300 0.700318 0.530525 0.120248
H2    H     H_    0.359936 0.359434 0.128240 0.110413
H3    H     H_    0.114387 0.615222 0.689384 0.113524
H4    H     H_    0.672418 0.670994 0.255168 0.192992
H5    H     H_    0.807168 0.808639 0.871993 0.140265
H6    H     H_    0.672877 0.671646 0.746817 0.206981
H7    H     H_    0.359945 0.359532 0.869336 0.117765
H8    H     H_    0.904219 0.600968 0.696057 0.133805
H9    H     H_    0.111258 0.588080 0.293573 0.128325
H10   H     H_    0.901167 0.593048 0.296025 0.127529
H11   H     H_    0.101824 0.299490 0.514619 0.141867
H12   H     H_    0.100557 0.422451 0.287749 0.124280
H13   H     H_    0.102047 0.377303 0.679776 0.108416
H14   H     H_    0.892501 0.380689 0.682039 0.143772
H15   H     H_    0.899043 0.258436 0.402969 0.237402
H16   H     H_    0.775050 0.262878 0.511791 0.235422
H17   H     H_    0.805377 0.836623 0.252135 0.230348
H18   H     H_    0.917069 0.804792 0.135911 0.219512
H19   H     H_    0.928976 0.756386 0.443628 0.227583
H20   H     H_    0.908892 0.798022 0.610792 0.227345
H21   H     H_    0.890235 0.430502 0.281353 0.123998
H22   H     H_    0.492578 0.109025 0.279238 0.134580
H23   H     H_    0.637083 0.212553 0.749697 0.145972
H24   H     H_    0.609781 0.113116 0.974955 0.119204
H25   H     H_    0.496972 0.910142 0.991650 0.117867
H26   H     H_    0.423547 0.802961 0.783617 0.148229
H27   H     H_    0.481430 0.886818 0.281499 0.137102
N1    N     N_R   0.501200 0.501210 0.147910 -0.243330
N2    N     N_R   0.501250 0.501290 0.852040 -0.246197
N3    N     N_3   0.872205 0.265213 0.507422 -0.650428
N4    N     N_3   0.826426 0.834996 0.145590 -0.635934
N5    N     N_3   0.885302 0.729584 0.536763 -0.661130
O1    O     O_R   0.499990 0.319640 0.618810 -0.511394
O2    O     O_R   0.500000 0.319660 0.381240 -0.504707
O3    O     O_R   0.317680 0.499970 0.618790 -0.507466
O4    O     O_R   0.317700 0.499990 0.381210 -0.504720
O5    O     O_R   0.500000 0.680340 0.618760 -0.529571
O6    O     O_R   0.500010 0.680360 0.381190 -0.522041
O7    O     O_R   0.682300 0.500010 0.618790 -0.531082
O8    O     O_R   0.682320 0.500030 0.381210 -0.526341

loop_
_geom_bond_atom_site_label_1
_geom_bond_atom_site_label_2
_ccdc_geom_bond_type
C20   N5    S    
C11   H6    S    
C1    O1    A    
C23   H21   S    
C6    C7    A    
H17   N4    S    
C4    O3    A    
C21   H12   S    
C14   N1    A    
C9    C10   A    
Cu1   N2    S    
C15   H2    S    
H16   N3    S    
C19   C20   S    
C2    C30   A    
C12   C25   S    
Cu2   O4    S    
C8    H4    S    
C26   H23   S    
C12   C20   S    
H15   N3    S    
Cu1   O7    S    
C2    C3    A    
C3    C5    A    
C13   N2    A    
C2    C26   A    
C7    C30   A    
C19   H3    S    
C28   H25   S    
Cu1   O3    S    
H18   N4    S    
C11   C13   A    
C12   C23   S    
C26   C27   A    
C29   C30   A    
C23   H10   S    
C10   H5    S    
C21   H9    S    
C25   H14   S    
C27   C28   A    
C7    C16   S    
C19   C24   S    
C25   N3    S    
C21   C23   S    
H20   N5    S    
C5    C6    A    
C20   H8    S    
C22   C24   S    
Cu2   O8    S    
C10   C11   A    
Cu2   N1    S    
C17   H7    S    
C4    C24   S    
C5    H22   S    
Cu1   O5    S    
C22   H13   S    
C16   O6    A    
C29   H26   S    
C22   C25   S    
Cu2   O2    S    
C15   N1    A    
C21   C24   S    
C12   C18   S    
C18   O7    A    
C15   C17   A    
Cu1   O1    S    
C27   H24   S    
C28   C29   A    
Cu2   O6    S    
C8    C14   A    
C17   N2    A    
C13   C14   A    
C9    N4    S    
C4    O4    A    
C6    H27   S    
C16   O5    A    
C22   H11   S    
H19   N5    S    
Cu1   Cu2   S    
C19   H1    S    
C8    C9    A    
C1    C3    S    
C18   O8    A    
C1    O2    A    
