data_mof_unit_47634.cif
_audit_creation_date              2012-10-26T19:56:42-0400
_audit_creation_method            fapswitch 2.2
_symmetry_space_group_name_H-M    P1
_symmetry_Int_Tables_number       1
_space_group_crystal_system       triclinic
_cell_length_a                    15.635215
_cell_length_b                    15.550639
_cell_length_c                    9.84832
_cell_angle_alpha                 91.13185
_cell_angle_beta                  61.013821
_cell_angle_gamma                 91.707175
_cell_volume                      2093.58560258

loop_
_atom_site_label
_atom_site_type_symbol
_atom_type_description
_atom_site_fract_x
_atom_site_fract_y
_atom_site_fract_z
_atom_type_partial_charge
C1    C     C_R   0.371633 0.118029 0.559793 0.555662
C2    C     C_2   0.492950 0.981032 0.078042 0.051372
C3    C     C_2   0.010811 0.513381 0.915832 0.010697
C4    C     C_2   0.992136 0.518100 0.081607 0.014493
C5    C     C_2   0.304903 0.807275 0.581584 -0.020644
C6    C     C_2   0.712395 0.178331 0.407150 -0.025959
C7    C     C_2   0.699806 0.813808 0.410101 -0.019014
C8    C     C_2   0.295486 0.181507 0.585778 -0.023652
C9    C     C_2   0.804595 0.307484 0.580767 -0.011385
C10   C     C_2   0.210181 0.679883 0.409354 -0.025625
C11   C     C_2   0.213963 0.333558 0.404534 0.003947
C12   C     C_R   0.628386 0.882062 0.439494 0.561435
C13   C     C_2   0.792610 0.674333 0.589241 -0.015269
C14   C     C_2   0.333202 0.740809 0.477179 -0.030288
C15   C     C_2   0.766688 0.171945 0.480680 -0.033823
C16   C     C_2   0.735206 0.800146 0.510500 -0.029386
C17   C     C_2   0.282816 0.207785 0.463903 -0.040769
C18   C     C_2   0.834900 0.240878 0.476888 -0.024324
C19   C     C_2   0.263954 0.672495 0.483539 -0.030808
C20   C     C_2   0.200004 0.259978 0.485583 -0.043281
C21   C     C_2   0.808821 0.736240 0.482142 -0.038471
C22   C     C_3   0.651149 0.041495 0.019400 -0.089846
C23   C     C_R   0.631809 0.115729 0.438609 0.554872
C24   C     C_3   0.735882 0.989934 0.008799 -0.351128
C25   C     C_3   0.344944 0.026318 0.992221 -0.108488
C26   C     C_3   0.266954 0.959949 0.008115 -0.393194
C27   C     C_3   0.147324 0.458021 0.013293 -0.111066
C28   C     C_3   0.234361 0.520166 0.961995 -0.400399
C29   C     C_3   0.841603 0.516531 0.988941 -0.116275
C30   C     C_3   0.791399 0.438615 0.089882 -0.444195
C31   C     C_1   0.772330 0.091981 0.547130 0.197755
C32   C     C_1   0.432797 0.733947 0.351775 0.207014
C33   C     C_1   0.349881 0.186687 0.302449 0.217439
C34   C     C_R   0.373760 0.879521 0.558412 0.553665
C35   C     C_1   0.707438 0.845891 0.654074 0.239744
C36   C     C_1   0.266744 0.592270 0.553499 0.176656
C37   C     C_1   0.937951 0.229288 0.368968 0.229287
C38   C     C_1   0.905939 0.755399 0.354512 0.215838
C39   C     C_1   0.102159 0.223736 0.580446 0.217845
C40   C     C_3   0.736883 0.244977 0.283190 -0.301384
C41   C     C_3   0.822595 0.215309 0.129359 -0.424471
C42   C     C_3   0.200530 0.816022 0.711510 -0.292588
C43   C     C_3   0.177691 0.757176 0.847296 -0.422658
C44   C     C_3   0.234151 0.216781 0.749331 -0.287782
C45   C     C_R   0.871547 0.616435 0.560450 0.571451
C46   C     C_3   0.158827 0.150379 0.856156 -0.426439
C47   C     C_3   0.726542 0.754813 0.270518 -0.282313
C48   C     C_3   0.679648 0.665169 0.321669 -0.428705
C49   C     C_3   0.231854 0.750417 0.292042 -0.287502
C50   C     C_3   0.315000 0.724677 0.132423 -0.426090
C51   C     C_3   0.699794 0.314329 0.710069 -0.293854
C52   C     C_3   0.679139 0.256645 0.846295 -0.425502
C53   C     C_3   0.693181 0.657343 0.732281 -0.283073
C54   C     C_3   0.660710 0.562973 0.745486 -0.454458
C55   C     C_3   0.313799 0.376356 0.304694 -0.274660
C56   C     C_R   0.130043 0.385422 0.438308 0.585083
C57   C     C_3   0.346379 0.367683 0.131792 -0.431972
C58   C     C_R   0.130647 0.616760 0.439169 0.560143
C59   C     C_R   0.872998 0.380079 0.558747 0.558339
C60   C     C_2   0.510848 0.991246 0.914164 0.025285
Cu1   Cu    Cu3+1 0.522650 0.000000 0.349410 0.950008
Cu2   Cu    Cu3+1 0.477350 0.000000 0.650590 0.936963
Cu3   Cu    Cu3+1 0.022650 0.500000 0.349410 0.940220
Cu4   Cu    Cu3+1 0.977350 0.500000 0.650590 0.941431
H1    H     H_    0.422664 0.955252 0.164494 0.127705
H2    H     H_    0.250131 0.965611 0.911841 0.168753
H3    H     H_    0.291105 0.894070 0.009470 0.152369
H4    H     H_    0.198285 0.971240 0.118125 0.119247
H5    H     H_    0.336128 0.037930 0.109174 0.125256
H6    H     H_    0.329280 0.088751 0.957363 0.168479
H7    H     H_    0.244917 0.539024 0.061944 0.165931
H8    H     H_    0.301723 0.488878 0.873037 0.124327
H9    H     H_    0.222520 0.578640 0.911639 0.154687
H10   H     H_    0.158668 0.401018 0.067002 0.172465
H11   H     H_    0.146128 0.429590 0.910263 0.106469
H12   H     H_    0.582877 0.988510 0.817388 0.183386
H13   H     H_    0.720097 0.457259 0.188960 0.110940
H14   H     H_    0.777476 0.388922 0.020248 0.156150
H15   H     H_    0.837343 0.412012 0.135469 0.155174
H16   H     H_    0.835621 0.574705 0.059867 0.097638
H17   H     H_    0.800611 0.530669 0.927152 0.178113
H18   H     H_    0.890663 0.213106 0.137655 0.168633
H19   H     H_    0.806686 0.150402 0.097235 0.155923
H20   H     H_    0.835619 0.259630 0.034459 0.148904
H21   H     H_    0.672742 0.254434 0.265539 0.147901
H22   H     H_    0.754184 0.307992 0.319898 0.141571
H23   H     H_    0.921175 0.537313 0.172672 0.138746
H24   H     H_    0.172692 0.689365 0.815344 0.157626
H25   H     H_    0.234539 0.764742 0.883708 0.155794
H26   H     H_    0.105912 0.774045 0.946598 0.176008
H27   H     H_    0.188382 0.883432 0.755387 0.135737
H28   H     H_    0.148005 0.802557 0.667669 0.151533
H29   H     H_    0.114149 0.124077 0.804758 0.170661
H30   H     H_    0.195532 0.096635 0.877321 0.154232
H31   H     H_    0.109497 0.181004 0.969238 0.167321
H32   H     H_    0.283017 0.236283 0.797678 0.145694
H33   H     H_    0.195700 0.275854 0.750258 0.152630
H34   H     H_    0.085094 0.518478 0.822187 0.161287
H35   H     H_    0.721208 0.626858 0.362923 0.145346
H36   H     H_    0.602777 0.669783 0.416205 0.174113
H37   H     H_    0.679190 0.630633 0.222355 0.144728
H38   H     H_    0.700726 0.781018 0.193040 0.185219
H39   H     H_    0.806980 0.750037 0.198159 0.144516
H40   H     H_    0.368376 0.683223 0.142057 0.168391
H41   H     H_    0.284839 0.689133 0.065764 0.145242
H42   H     H_    0.355522 0.782598 0.066278 0.141336
H43   H     H_    0.165626 0.762945 0.281677 0.171860
H44   H     H_    0.251136 0.812006 0.330861 0.142485
H45   H     H_    0.745239 0.000951 0.112287 0.162867
H46   H     H_    0.682216 0.188431 0.811450 0.157336
H47   H     H_    0.733332 0.269675 0.886824 0.154678
H48   H     H_    0.604757 0.268781 0.943752 0.152630
H49   H     H_    0.685418 0.381233 0.754102 0.128962
H50   H     H_    0.647686 0.298527 0.666300 0.147301
H51   H     H_    0.664504 0.539750 0.635310 0.141973
H52   H     H_    0.707853 0.523600 0.773593 0.156680
H53   H     H_    0.584209 0.555250 0.840780 0.137101
H54   H     H_    0.697707 0.676478 0.837982 0.167026
H55   H     H_    0.634030 0.694238 0.730973 0.159510
H56   H     H_    0.723599 0.920082 0.998195 0.184189
H57   H     H_    0.335002 0.301133 0.100395 0.179570
H58   H     H_    0.303962 0.410974 0.100885 0.147808
H59   H     H_    0.425022 0.386143 0.062564 0.134688
H60   H     H_    0.310099 0.445985 0.333916 0.155388
H61   H     H_    0.370822 0.351376 0.328695 0.152041
H62   H     H_    0.805071 0.010690 0.905595 0.128161
H63   H     H_    0.664786 0.051479 0.900766 0.114384
H64   H     H_    0.653822 0.107344 0.062406 0.152869
N1    N     N_2   0.443290 0.000000 0.876860 -0.244823
N2    N     N_1   0.020158 0.220058 0.283443 -0.323325
N3    N     N_1   0.983319 0.770862 0.253328 -0.339653
N4    N     N_1   0.024056 0.195215 0.655444 -0.310185
N5    N     N_2   0.556710 0.000000 0.123140 -0.222224
N6    N     N_2   0.943290 0.500000 0.876860 -0.232322
N7    N     N_2   0.056710 0.500000 0.123140 -0.230828
N8    N     N_1   0.779852 0.028326 0.598246 -0.309836
N9    N     N_1   0.511806 0.728619 0.250290 -0.330130
N10   N     N_1   0.404785 0.171431 0.174138 -0.350835
N11   N     N_1   0.688588 0.876431 0.772698 -0.339033
N12   N     N_1   0.270260 0.528011 0.607599 -0.369042
O1    O     O_R   0.422430 0.089640 0.419570 -0.483817
O2    O     O_R   0.615830 0.910350 0.326090 -0.499142
O3    O     O_R   0.615830 0.089650 0.326090 -0.513538
O4    O     O_R   0.384170 0.910350 0.673910 -0.496536
O5    O     O_R   0.884170 0.589650 0.673910 -0.517251
O6    O     O_R   0.115830 0.410350 0.326090 -0.505579
O7    O     O_R   0.115830 0.589650 0.326090 -0.486779
O8    O     O_R   0.884170 0.410350 0.673910 -0.490542
O9    O     O_R   0.577570 0.910360 0.580430 -0.494806
O10   O     O_R   0.577570 0.089640 0.580430 -0.494893
O11   O     O_R   0.422430 0.910360 0.419570 -0.496914
O12   O     O_R   0.922430 0.589640 0.419570 -0.501780
O13   O     O_R   0.077570 0.410360 0.580430 -0.488876
O14   O     O_R   0.077570 0.589640 0.580430 -0.499947
O15   O     O_R   0.922430 0.410360 0.419570 -0.500369
O16   O     O_R   0.384170 0.089650 0.673910 -0.508588

loop_
_geom_bond_atom_site_label_1
_geom_bond_atom_site_label_2
_ccdc_geom_bond_type
C51   H50   S    
C15   C18   S    
C5    C42   S    
C50   H40   S    
C16   C21   S    
Cu2   O9    S    
Cu4   O5    S    
C1    C8    S    
C2    N5    D    
C9    C51   S    
C2    H1    S    
C25   N1    S    
Cu1   N5    S    
C49   H43   S    
C4    H23   S    
C53   C54   S    
C46   H29   S    
C34   O4    A    
C43   H25   S    
C45   O5    A    
C43   H24   S    
C10   C58   S    
C18   C37   S    
C19   C36   S    
C16   C35   S    
C2    C60   S    
C39   N4    T    
C41   H18   S    
C48   H37   S    
C41   H19   S    
Cu4   O14   S    
C17   C20   S    
C37   N2    T    
C42   H27   S    
C40   H22   S    
C58   O14   A    
C35   N11   T    
C57   H58   S    
C30   H13   S    
Cu1   O3    S    
C21   C38   S    
C55   H61   S    
Cu2   O16   S    
C54   H52   S    
C50   H41   S    
C27   H10   S    
C33   N10   T    
Cu3   O6    S    
C42   H28   S    
C59   O8    A    
C29   N6    S    
C6    C15   D    
C47   H38   S    
C5    C34   S    
C24   H62   S    
Cu2   N1    S    
C23   O3    A    
C28   H8    S    
C17   C33   S    
C27   H11   S    
C28   H9    S    
C12   O9    A    
Cu3   O7    S    
C44   C46   S    
C49   H44   S    
C13   C53   S    
C7    C12   S    
C48   H36   S    
Cu4   N6    S    
C11   C20   D    
C24   H56   S    
C43   H26   S    
C47   H39   S    
C46   H31   S    
C22   N5    S    
C51   C52   S    
C26   H2    S    
Cu2   O4    S    
C20   C39   S    
C59   O15   A    
C58   O7    A    
C31   N8    T    
C52   H47   S    
C25   C26   S    
C41   H20   S    
Cu4   O13   S    
C60   H12   S    
C9    C59   S    
C7    C47   S    
C40   H21   S    
C1    O16   A    
C29   H17   S    
C29   C30   S    
C44   H32   S    
C57   H59   S    
C36   N12   T    
C44   H33   S    
C9    C18   D    
C22   H64   S    
C47   C48   S    
C46   H30   S    
C52   H46   S    
C10   C19   D    
C54   H51   S    
C13   C21   D    
C51   H49   S    
Cu1   O11   S    
C5    C14   D    
C4    N7    D    
C30   H15   S    
Cu1   O1    S    
C7    C16   D    
C23   O10   A    
C55   C57   S    
C22   C24   S    
C28   H7    S    
C25   H5    S    
C42   C43   S    
C26   H3    S    
C3    C4    S    
C11   C55   S    
C48   H35   S    
C55   H60   S    
C40   C41   S    
Cu2   O10   S    
C53   H54   S    
C14   C19   S    
C24   H45   S    
C8    C44   S    
C14   C32   S    
C56   O13   A    
C60   N1    D    
C34   O11   A    
C53   H55   S    
C15   C31   S    
C8    C17   D    
C45   O12   A    
C26   H4    S    
C38   N3    T    
C3    N6    D    
Cu3   O15   S    
C32   N9    T    
C13   C45   S    
C3    H34   S    
C22   H63   S    
C29   H16   S    
C6    C23   S    
C12   O2    A    
C6    C40   S    
C56   O6    A    
Cu1   Cu2   S    
Cu3   O12   S    
C1    O1    A    
C57   H57   S    
Cu3   Cu4   S    
C30   H14   S    
Cu1   O2    S    
C49   C50   S    
C54   H53   S    
C27   C28   S    
C50   H42   S    
C52   H48   S    
C25   H6    S    
C27   N7    S    
C10   C49   S    
Cu4   O8    S    
C11   C56   S    
Cu3   N7    S    
