data_mof_unit_59138.cif
_audit_creation_date              2013-03-05T16:19:20-0500
_audit_creation_method            fapswitch 2.2
_symmetry_space_group_name_H-M    P1
_symmetry_Int_Tables_number       1
_space_group_crystal_system       triclinic
_cell_length_a                    11.262982
_cell_length_b                    10.318299
_cell_length_c                    23.274403
_cell_angle_alpha                 91.544916
_cell_angle_beta                  89.623242
_cell_angle_gamma                 92.954302
_cell_volume                      2700.21728673

loop_
_atom_site_label
_atom_site_type_symbol
_atom_site_description
_atom_site_fract_x
_atom_site_fract_y
_atom_site_fract_z
_atom_type_partial_charge
O1    O     O_R   0.314910 0.616040 0.499990 -0.689446
O2    O     O_R   0.314910 0.383960 0.499990 -0.519043
C1    C     C_R   0.258802 0.497128 0.499618 0.975462
O3    O     O_R   0.500080 0.616070 0.416130 -0.615000
O4    O     O_R   0.500080 0.383930 0.416130 -0.550414
C2    C     C_R   0.499764 0.498306 0.389593 0.897604
Zn1   Zn    Zn3+2 0.500150 0.654960 0.499970 0.933339
Zn2   Zn    Zn3+2 0.500150 0.345040 0.499970 1.071264
O5    O     O_R   0.685320 0.616040 0.499970 -0.669273
O6    O     O_R   0.685320 0.383960 0.499970 -0.622286
O7    O     O_R   0.500150 0.616010 0.583820 -0.670557
O8    O     O_R   0.500150 0.383990 0.583820 -0.521955
C3    C     C_R   0.741512 0.503064 0.503259 0.751989
C4    C     C_R   0.503457 0.502040 0.609850 0.876116
C5    C     C_R   0.600163 0.459174 0.881334 0.548879
N1    N     N_R   0.507199 0.510045 0.854421 -0.357274
C6    C     C_R   0.421911 0.574418 0.883307 0.576299
C7    C     C_R   0.426115 0.588977 0.943623 -0.114581
C8    C     C_R   0.527264 0.545576 0.972242 -0.039818
C9    C     C_R   0.616066 0.479807 0.941000 -0.106604
C10   C     C_R   0.334276 0.646846 0.975780 0.313660
C11   C     C_R   0.348604 0.672984 0.035071 -0.142385
C12   C     C_R   0.451507 0.633690 0.063513 -0.115546
C13   C     C_R   0.539016 0.566547 0.032168 -0.026303
C14   C     C_R   0.637972 0.519398 0.061050 -0.080381
C15   C     C_R   0.731449 0.464711 0.029174 0.287052
C16   C     C_R   0.719614 0.442684 0.969657 -0.141054
C17   C     C_R   0.468650 0.654389 0.123173 0.528943
N2    N     N_R   0.553636 0.591088 0.150694 -0.365996
C18   C     C_R   0.636379 0.523144 0.121453 0.528106
O9    O     O_2   0.677620 0.392007 0.849406 -0.511832
O10   O     O_2   0.337065 0.628327 0.852709 -0.444348
O11   O     O_2   0.400199 0.733851 0.154345 -0.513550
O12   O     O_2   0.711898 0.453845 0.151366 -0.473496
C19   C     C_R   0.629738 0.614460 0.250096 0.014223
C20   C     C_R   0.625495 0.564074 0.306009 -0.025322
C21   C     C_R   0.520170 0.499843 0.326270 -0.202977
C22   C     C_R   0.434701 0.452310 0.285594 -0.048453
C23   C     C_R   0.445880 0.490300 0.228796 -0.040675
H1    H     H_    0.383562 0.451256 0.196645 0.180858
C24   C     C_R   0.540333 0.572371 0.211156 0.139439
C25   C     C_R   0.446861 0.409370 0.762237 0.364741
C26   C     C_R   0.450167 0.406976 0.702712 -0.124969
H2    H     H_    0.402729 0.328029 0.679649 0.240298
C27   C     C_R   0.510279 0.506838 0.672906 -0.191634
C28   C     C_R   0.572590 0.609810 0.703713 -0.095828
C29   C     C_R   0.573816 0.608648 0.764432 -0.053247
C30   C     C_R   0.507597 0.510064 0.793021 0.119499
C31   C     C_3   0.077466 0.626973 0.478790 0.070705
C32   C     C_3   0.071009 0.483843 0.564262 0.000919
H3    H     H_    0.130581 0.699109 0.503434 0.205464
H4    H     H_    0.088842 0.581596 0.584246 0.186116
C33   C     C_3   0.944511 0.647975 0.496600 -0.220937
C34   C     C_3   0.931204 0.452399 0.565654 -0.177271
H5    H     H_    0.908647 0.466216 0.414546 0.202537
H6    H     H_    0.866847 0.326717 0.450576 0.235962
C35   C     C_3   0.057007 0.384104 0.459164 -0.081342
C36   C     C_3   0.120784 0.493212 0.499909 -0.218358
C37   C     C_3   0.880154 0.506714 0.506366 -0.223115
C38   C     C_3   0.922994 0.416535 0.455228 -0.493815
C39   C     C_3   0.375740 0.073854 0.495188 -0.146340
C40   C     C_3   0.375046 0.914536 0.506702 -0.208829
C41   C     C_3   0.573247 0.079352 0.448662 0.145422
C42   C     C_3   0.549551 0.921135 0.442554 0.066258
C43   C     C_3   0.545186 0.079436 0.553735 0.084092
C44   C     C_3   0.569025 0.929327 0.547258 -0.034957
N3    N     N_3   0.499750 0.138610 0.498760 -0.168799
N4    N     N_3   0.499750 0.861390 0.498760 -0.225225
H7    H     H_    0.477169 0.078899 0.588018 0.189801
H8    H     H_    0.545037 0.883114 0.588334 0.179780
Br1   Br    Br    0.179389 0.674174 0.942726 -0.192071
C45   C     C_2   0.635524 0.717440 0.672851 0.573111
H9    H     H_    0.682987 0.697759 0.633313 0.055505
O13   O     O_2   0.631407 0.829781 0.690343 -0.480310
C46   C     C_2   0.647279 0.705126 0.799455 0.598140
H10   H     H_    0.615885 0.738067 0.841253 0.040072
O14   O     O_2   0.746075 0.743478 0.783439 -0.445071
Br2   Br    Br    0.109512 0.662816 0.395238 -0.316323
Br3   Br    Br    0.162780 0.395217 0.620697 -0.322742
C47   C     C_2   0.940612 0.734885 0.550758 0.517362
H11   H     H_    0.870323 0.721289 0.581644 0.095312
O15   O     O_2   0.008366 0.830180 0.557837 -0.402383
C48   C     C_2   0.871435 0.508932 0.618865 0.476120
H12   H     H_    0.775340 0.500221 0.622502 0.016977
O16   O     O_2   0.928662 0.559230 0.658744 -0.454793
C49   C     C_2   0.889889 0.724690 0.450453 0.623450
H13   H     H_    0.838938 0.675488 0.417437 0.043501
O17   O     O_2   0.915641 0.840573 0.445507 -0.384687
C50   C     C_2   0.905253 0.308525 0.572822 0.533504
H14   H     H_    0.870110 0.249622 0.538223 0.082073
O18   O     O_2   0.926813 0.254966 0.617578 -0.404682
C51   C     C_2   0.106888 0.373684 0.398708 0.637040
H15   H     H_    0.054693 0.323777 0.364966 0.140680
O19   O     O_2   0.206141 0.417529 0.387223 -0.570294
C52   C     C_2   0.066485 0.250206 0.482022 0.393274
H16   H     H_    0.093479 0.241056 0.525471 0.107680
O20   O     O_2   0.035051 0.152546 0.454010 -0.461759
C53   C     C_2   0.321506 0.106633 0.437265 0.503036
H17   H     H_    0.298750 0.036079 0.403666 0.165015
O21   O     O_2   0.305670 0.217288 0.425331 -0.548050
C54   C     C_2   0.282938 0.853639 0.467383 0.417435
H18   H     H_    0.302675 0.775014 0.438891 0.202683
O22   O     O_2   0.183225 0.895834 0.466502 -0.497182
C55   C     C_2   0.249712 0.731341 0.067434 0.633426
H19   H     H_    0.209646 0.681883 0.103878 0.107754
O23   O     O_2   0.213830 0.836015 0.054085 -0.471586
C56   C     C_2   0.292178 0.130670 0.539077 0.554787
H20   H     H_    0.201492 0.092281 0.539655 0.160559
O24   O     O_2   0.324861 0.208784 0.576417 -0.523972
C57   C     C_2   0.326991 0.867938 0.565932 0.404689
H21   H     H_    0.368732 0.790613 0.586988 0.135597
O25   O     O_2   0.235720 0.903957 0.588247 -0.479964
Br4   Br    Br    0.550577 0.151596 0.371239 -0.351769
Br5   Br    Br    0.457694 0.866269 0.371503 -0.410250
Br6   Br    Br    0.655664 0.182134 0.602330 -0.371078
Br7   Br    Br    0.734603 0.902869 0.547751 -0.462135
C58   C     C_2   0.704707 0.118238 0.457069 0.547221
H22   H     H_    0.738729 0.136207 0.498756 0.096082
O26   O     O_2   0.776107 0.125029 0.417317 -0.443568
C59   C     C_2   0.657712 0.855700 0.421460 0.587242
H23   H     H_    0.670806 0.761955 0.435168 0.087023
O27   O     O_2   0.717347 0.895320 0.380877 -0.408301
Br8   Br    Br    0.881817 0.426904 0.064275 -0.296440
C60   C     C_2   0.818015 0.381562 0.938335 0.647149
H24   H     H_    0.806183 0.282342 0.921907 0.105192
O28   O     O_2   0.912014 0.442708 0.930113 -0.448631
C61   C     C_2   0.723700 0.711707 0.231763 0.635380
H25   H     H_    0.740722 0.727610 0.186524 0.055928
O29   O     O_2   0.779005 0.780406 0.266930 -0.430181
C62   C     C_2   0.735621 0.546353 0.338376 0.495587
H26   H     H_    0.728923 0.509225 0.381320 -0.007519
O30   O     O_2   0.833899 0.560873 0.316285 -0.491722
C63   C     C_2   0.344580 0.348591 0.298012 0.582244
H27   H     H_    0.356893 0.286482 0.333320 0.165063
O31   O     O_2   0.256933 0.328770 0.267731 -0.508785
Br9   Br    Br    0.360011 0.272344 0.800733 -0.278233

loop_
_geom_bond_atom_site_label_1
_geom_bond_atom_site_label_2
_geom_bond_distance
_ccdc_geom_bond_type
C44   N4    1.512217 S    
C31   C33   1.575326 S    
C54   H18   1.065348 S    
C35   C51   1.514826 S    
C7    C10   1.419878 A    
C56   O24   1.215029 D    
C39   C53   1.536776 S    
C26   H2    1.082811 S    
C32   Br3   1.951915 S    
N1    C30   1.429043 S    
C55   O23   1.221109 D    
C33   C37   1.615052 S    
C23   C24   1.391956 A    
C44   H8    1.105553 S    
C27   C28   1.422758 A    
Zn1   O7    2.003094 S    
C15   C16   1.403777 A    
C21   C22   1.414830 A    
C44   Br7   1.898807 S    
C10   Br1   1.947992 S    
C42   N4    1.550531 S    
C20   C21   1.413265 A    
C58   O26   1.222907 D    
O4    C2    1.346861 A    
C41   C58   1.526389 S    
O7    C4    1.339611 A    
C49   O17   1.224066 D    
C5    N1    1.359111 A    
C11   C55   1.484656 S    
C31   Br2   2.016026 S    
C25   Br9   1.916481 S    
C7    C8    1.421532 A    
C22   C63   1.469697 S    
O5    C3    1.358971 A    
C57   H21   1.077284 S    
C55   H19   1.085401 S    
Zn1   N4    2.131190 S    
C8    C9    1.422469 A    
N1    C6    1.359821 A    
C31   H3    1.084661 S    
C32   H4    1.108641 S    
C56   H20   1.076444 S    
C33   C49   1.504447 S    
C50   O18   1.223787 D    
C28   C45   1.485569 S    
C40   C54   1.490909 S    
C37   C38   1.579306 S    
C54   O22   1.225743 D    
H5    C38   1.105502 S    
C43   Br6   1.941214 S    
O3    Zn1   1.981531 S    
C19   C24   1.403464 A    
C34   C48   1.522425 S    
C59   O27   1.222538 D    
C4    C27   1.469470 S    
C34   C37   1.622996 S    
C5    C9    1.410411 A    
C41   N3    1.555544 S    
C42   Br5   2.009249 S    
C18   O12   1.347875 S    
C32   C36   1.599410 S    
C29   C30   1.409083 A    
C33   C47   1.528833 S    
C13   C14   1.419200 A    
C34   C50   1.511656 S    
C47   O15   1.221439 D    
C23   H1    1.084608 S    
C49   H13   1.064088 S    
C45   H9    1.080957 S    
C35   C38   1.566574 S    
C43   N3    1.534537 S    
C14   C15   1.416217 A    
C31   C36   1.579155 S    
H6    C38   1.097995 S    
O1    C1    1.350727 A    
C19   C20   1.413914 A    
C62   O30   1.221309 D    
C46   H10   1.084882 S    
C61   O29   1.220778 D    
N2    C18   1.362497 A    
C20   C62   1.477319 S    
C46   O14   1.221000 D    
C39   N3    1.518726 S    
C62   H26   1.080791 S    
C48   H12   1.084356 S    
C40   C57   1.556789 S    
Zn2   O8    1.981868 S    
C51   O19   1.215010 D    
C6    C7    1.408640 A    
C2    C21   1.490502 S    
C25   C30   1.397781 A    
C12   C17   1.412175 A    
C19   C61   1.488824 S    
C26   C27   1.400657 A    
C45   O13   1.221236 D    
C48   O16   1.222164 D    
O8    C4    1.344602 A    
C17   O11   1.348609 S    
C53   H17   1.076980 S    
C53   O21   1.204721 D    
C35   C52   1.502946 S    
C63   H27   1.069716 S    
O3    C2    1.348011 A    
C25   C26   1.385267 A    
C61   H25   1.084304 S    
C59   H23   1.044579 S    
C60   O28   1.220872 D    
C14   C18   1.405364 A    
Zn1   O5    2.144107 S    
C28   C29   1.413725 A    
C17   N2    1.359476 A    
N2    C24   1.431404 S    
O1    Zn1   2.104228 S    
O2    Zn2   2.144874 S    
C47   H11   1.072219 S    
O6    C3    1.353563 A    
O4    Zn2   2.002741 S    
C16   C60   1.481262 S    
C52   O20   1.223389 D    
C5    O9    1.348934 S    
C3    C37   1.562142 S    
C9    C16   1.421909 A    
C42   C59   1.496657 S    
C40   N4    1.542120 S    
O2    C1    1.356326 A    
C29   C46   1.490059 S    
C32   C34   1.591539 S    
C58   H22   1.053779 S    
C35   C36   1.597118 S    
C22   C23   1.392015 A    
C43   H7    1.102425 S    
C51   H15   1.086543 S    
C8    C13   1.411682 A    
C39   C40   1.672320 S    
C39   C56   1.511561 S    
C57   O25   1.219260 D    
C12   C13   1.420317 A    
C41   C42   1.643063 S    
C41   Br4   1.991492 S    
C1    C36   1.552917 S    
Zn2   N3    2.129207 S    
Zn2   O6    2.103457 S    
C43   C44   1.588569 S    
C15   Br8   1.947132 S    
C52   H16   1.065890 S    
C63   O31   1.222130 D    
C6    O10   1.347174 S    
C11   C12   1.420871 A    
C50   H14   1.061856 S    
C10   C11   1.407624 A    
C60   H24   1.085164 S    
