data_mof_unit_48746.cif
_audit_creation_date              2012-12-10T19:27:32-0500
_audit_creation_method            fapswitch 2.2
_symmetry_space_group_name_H-M    P1
_symmetry_Int_Tables_number       1
_space_group_crystal_system       triclinic
_cell_length_a                    22.428691
_cell_length_b                    10.559506
_cell_length_c                    9.837286
_cell_angle_alpha                 89.748945
_cell_angle_beta                  90.023421
_cell_angle_gamma                 87.353108
_cell_volume                      2327.31401222

loop_
_atom_site_label
_atom_site_type_symbol
_atom_type_description
_atom_site_fract_x
_atom_site_fract_y
_atom_site_fract_z
_atom_type_partial_charge
C1    C     C_R   0.499021 0.257949 0.500038 0.999100
C2    C     C_R   0.500774 0.742104 0.499894 1.003348
C3    C     C_R   0.231942 0.605197 0.418117 -0.218865
C4    C     C_R   0.774736 0.405229 0.465973 -0.198840
C5    C     C_R   0.289930 0.612105 0.467195 0.333510
C6    C     C_R   0.716309 0.400191 0.512842 0.396261
C7    C     C_R   0.323446 0.500179 0.494906 -0.171461
C8    C     C_R   0.676844 0.506226 0.493540 -0.208508
C9    C     C_R   0.294572 0.386531 0.503467 -0.148492
C10   C     C_R   0.699978 0.620045 0.449241 -0.116268
C11   C     C_R   0.234316 0.381594 0.466073 0.221276
C12   C     C_R   0.760116 0.625887 0.411341 0.203749
C13   C     C_R   0.206609 0.487154 0.394131 0.160680
C14   C     C_R   0.794301 0.509919 0.391406 0.169999
C15   C     C_3   0.498051 0.041728 0.629227 -0.275951
C16   C     C_3   0.503446 0.958329 0.370505 -0.222161
C17   C     C_3   0.548279 0.955695 0.568398 0.475381
C18   C     C_3   0.453149 0.043995 0.431528 0.495706
C19   C     C_3   0.501592 0.877039 0.500136 -0.180783
C20   C     C_3   0.499620 0.122940 0.499719 -0.212843
C21   C     C_3   0.450808 0.961368 0.560175 -0.188918
C22   C     C_3   0.550773 0.039020 0.439734 -0.254823
C23   C     C_R   0.388480 0.499216 0.499746 0.980990
C24   C     C_R   0.611768 0.499258 0.499562 0.993932
C25   C     C_3   0.495421 0.386132 0.049997 -0.197250
C26   C     C_3   0.504405 0.614064 0.950056 -0.214359
C27   C     C_3   0.543742 0.430962 0.952617 -0.030765
C28   C     C_3   0.456126 0.569178 0.047724 0.002222
C29   C     C_3   0.451631 0.456509 0.953493 0.541638
C30   C     C_3   0.548264 0.543696 0.046483 0.468007
C31   C     C_R   0.874279 0.595058 0.243789 0.558090
C32   C     C_R   0.127048 0.366751 0.284207 0.550622
C33   C     C_R   0.876761 0.377991 0.289091 0.532692
C34   C     C_R   0.124671 0.585857 0.251663 0.529705
C35   C     C_R   0.939431 0.366362 0.273350 -0.034254
C36   C     C_R   0.062095 0.591748 0.231293 -0.030023
C37   C     C_R   0.969431 0.479687 0.253155 -0.049740
C38   C     C_R   0.032048 0.478701 0.253047 -0.051089
C39   C     C_R   0.936350 0.593480 0.227934 -0.073047
C40   C     C_R   0.065114 0.363535 0.269353 -0.072065
C41   C     C_R   0.973307 0.248840 0.280914 0.173256
C42   C     C_R   0.028281 0.704296 0.193698 0.167422
C43   C     C_R   0.035859 0.249393 0.276547 -0.151926
C44   C     C_R   0.965695 0.702888 0.191853 -0.151022
H1    H     H_    0.491583 0.290366 0.095327 0.208995
H2    H     H_    0.508344 0.709784 0.904664 0.215796
H3    H     H_    0.061873 0.160759 0.286862 0.187523
H4    H     H_    0.939720 0.789509 0.169044 0.189201
H5    H     H_    0.206828 0.693353 0.402990 0.233065
H6    H     H_    0.804707 0.324705 0.487452 0.215118
H7    H     H_    0.318304 0.303514 0.545050 0.219263
H8    H     H_    0.671416 0.705621 0.448006 0.218951
H9    H     H_    0.496006 0.078070 0.734966 0.227907
H10   H     H_    0.505384 0.921987 0.264761 0.223775
H11   H     H_    0.409948 0.932686 0.612072 0.265667
H12   H     H_    0.591547 0.073412 0.390473 0.238432
N1    N     N_R   0.848930 0.495756 0.308511 -0.318130
N2    N     N_R   0.152196 0.479791 0.310941 -0.318358
N3    N     N_3   0.499960 0.500030 0.863290 -0.147086
N4    N     N_3   0.500040 0.499970 0.136710 -0.143794
O1    O     O_R   0.500000 0.313960 0.616610 -0.595500
O2    O     O_R   0.500000 0.686040 0.383390 -0.605035
O3    O     O_R   0.500030 0.313950 0.383350 -0.597674
O4    O     O_R   0.499970 0.686050 0.616650 -0.584339
O5    O     O_R   0.416140 0.499970 0.616650 -0.531477
O6    O     O_R   0.583860 0.500030 0.383350 -0.554801
O7    O     O_R   0.416170 0.499960 0.383400 -0.598627
O8    O     O_R   0.583830 0.500040 0.616600 -0.586365
O9    O     O_2   0.840209 0.690276 0.188819 -0.524759
O10   O     O_2   0.161371 0.259796 0.268177 -0.533295
O11   O     O_2   0.843776 0.275185 0.277455 -0.526388
O12   O     O_2   0.157680 0.679816 0.204742 -0.549759
Zn1   Zn    Zn3+2 0.499980 0.500010 0.655740 1.071789
Zn2   Zn    Zn3+2 0.500020 0.499990 0.344260 1.066674
C45   C     C_3   0.945319 0.122865 0.301956 -0.772991
H13   H     H_    0.917893 0.125320 0.395923 0.266228
H14   H     H_    0.917510 0.100467 0.212636 0.279152
H15   H     H_    0.979384 0.043977 0.314294 0.202475
C46   C     C_3   0.056345 0.828036 0.160843 -0.765310
H16   H     H_    0.081902 0.860581 0.249798 0.259963
H17   H     H_    0.085933 0.816223 0.070949 0.281846
H18   H     H_    0.022404 0.904255 0.135060 0.206482
C47   C     C_3   0.594138 0.345224 0.898235 -0.605962
H19   H     H_    0.620222 0.302929 0.984318 0.249048
H20   H     H_    0.574931 0.268053 0.839066 0.247195
H21   H     H_    0.624083 0.400391 0.833905 0.264246
C48   C     C_3   0.405069 0.652801 0.103934 -0.584456
H22   H     H_    0.380626 0.700884 0.018712 0.235545
H23   H     H_    0.373670 0.594489 0.161121 0.265659
H24   H     H_    0.423138 0.725638 0.171334 0.264649
S1    S     S_3+6 0.383806 0.391614 0.897374 0.041845
O13   O     O_2   0.343165 0.494727 0.838250 -0.311051
O14   O     O_2   0.397031 0.290697 0.793058 -0.319071
O15   O     O_3   0.349968 0.327187 0.031600 -0.504177
H25   H     H_    0.313409 0.291346 0.994130 0.391445
S2    S     S_3+6 0.615945 0.609440 0.102197 0.069073
O16   O     O_2   0.602521 0.708636 0.208152 -0.280300
O17   O     O_2   0.657437 0.506996 0.159755 -0.291760
O18   O     O_3   0.649218 0.677836 0.969533 -0.472179
H26   H     H_    0.661952 0.606831 0.909177 0.369749
S3    S     S_3+6 0.318487 0.760627 0.502766 0.028176
O19   O     O_2   0.366139 0.787280 0.401002 -0.288505
O20   O     O_2   0.270336 0.864328 0.496083 -0.252993
O21   O     O_3   0.348204 0.754613 0.659741 -0.568154
H27   H     H_    0.314038 0.741949 0.721297 0.380473
S4    S     S_3+6 0.696486 0.257441 0.590194 0.034303
O22   O     O_2   0.726780 0.147904 0.516585 -0.222428
O23   O     O_2   0.717657 0.256674 0.735172 -0.289777
O24   O     O_3   0.622804 0.241766 0.586424 -0.616525
H28   H     H_    0.615959 0.171504 0.650112 0.407396
C49   C     C_3   0.200612 0.275971 0.529666 -0.709575
H29   H     H_    0.151650 0.295514 0.527669 0.213391
H30   H     H_    0.212862 0.184231 0.480017 0.305591
H31   H     H_    0.212755 0.266786 0.638924 0.225601
C50   C     C_3   0.786754 0.753724 0.425831 -0.673124
H32   H     H_    0.836082 0.746463 0.433926 0.214243
H33   H     H_    0.771955 0.817484 0.341087 0.294287
H34   H     H_    0.771235 0.798278 0.522370 0.256375
S5    S     S_3+6 0.612030 0.899097 0.664202 0.018678
O25   O     O_2   0.609883 0.759423 0.690915 -0.316540
O26   O     O_2   0.667596 0.924589 0.585662 -0.281573
O27   O     O_3   0.613185 0.975657 0.813646 -0.548036
H35   H     H_    0.652048 0.949339 0.855269 0.425421
S6    S     S_3+6 0.388417 0.097064 0.337564 0.065184
O28   O     O_2   0.334233 0.088090 0.426009 -0.259326
O29   O     O_2   0.393688 0.231735 0.291470 -0.287578
O30   O     O_3   0.381453 0.003886 0.200865 -0.517067
H36   H     H_    0.344088 0.035545 0.156032 0.403836

loop_
_geom_bond_atom_site_label_1
_geom_bond_atom_site_label_2
_ccdc_geom_bond_type
C48   H22   S    
S3    O19   D    
C34   O12   S    
C18   C21   S    
C36   C42   A    
C49   H29   S    
C9    H7    S    
C32   N2    A    
C10   H8    S    
C3    H5    S    
C21   H11   S    
N4    Zn2   S    
C15   H9    S    
C28   C29   S    
C35   C37   A    
S1    O14   D    
S4    O22   D    
C50   H32   S    
O6    Zn2   S    
S2    O18   S    
O5    Zn1   S    
C15   C17   S    
C23   O7    A    
C30   S2    S    
C8    C24   S    
C40   C43   A    
C29   N3    S    
C50   H33   S    
S2    O17   D    
C16   C22   S    
O4    Zn1   S    
C25   N4    S    
C26   N3    S    
N3    Zn1   S    
C18   C20   S    
C3    C13   A    
C24   O6    A    
C12   C50   S    
C32   O10   S    
S5    O26   D    
C42   C46   S    
S3    O20   D    
C27   C30   S    
C41   C43   A    
C42   C44   A    
C1    O3    A    
O21   H27   S    
C2    O4    A    
C28   N4    S    
C25   C29   S    
C15   C20   S    
C5    S3    S    
C11   C49   S    
C4    C6    A    
S1    O13   D    
C5    C7    A    
C24   O8    A    
C17   C19   S    
C22   H12   S    
C13   N2    S    
O1    Zn1   S    
O8    Zn1   S    
C4    H6    S    
C45   H13   S    
C37   C38   A    
C41   C45   S    
C45   H14   S    
C47   H19   S    
C31   O9    S    
C50   H34   S    
S2    O16   D    
C28   C48   S    
C6    S4    S    
C49   H30   S    
O7    Zn2   S    
C9    C11   A    
C10   C12   A    
S6    O30   S    
C16   C18   S    
C47   H20   S    
C12   C14   A    
C26   C30   S    
S3    O21   S    
C48   H23   S    
O30   H36   S    
C25   H1    S    
C29   S1    S    
C30   N4    S    
S6    O29   D    
S5    O27   S    
C7    C9    A    
C14   N1    S    
C1    C20   S    
C33   N1    A    
C19   C21   S    
C2    C19   S    
C26   C28   S    
C20   C22   S    
C3    C5    A    
C1    O1    A    
C46   H18   S    
C6    C8    A    
S5    O25   D    
C39   C44   A    
O3    Zn2   S    
C25   C27   S    
C46   H17   S    
C17   C22   S    
O18   H26   S    
C31   N1    A    
C27   C47   S    
C37   C39   A    
C27   N3    S    
O24   H28   S    
S1    O15   S    
C38   C40   A    
C11   C13   A    
C23   O5    A    
S4    O23   D    
C16   C19   S    
C7    C23   S    
C36   C38   A    
C33   C35   A    
C31   C39   A    
C49   H31   S    
C34   C36   A    
C32   C40   A    
C4    C14   A    
O15   H25   S    
C35   C41   A    
C45   H15   S    
C16   H10   S    
C17   S5    S    
C33   O11   S    
C46   H16   S    
C44   H4    S    
C15   C21   S    
C47   H21   S    
C8    C10   A    
C48   H24   S    
C34   N2    A    
O2    Zn2   S    
O27   H35   S    
C26   H2    S    
C43   H3    S    
C2    O2    A    
C18   S6    S    
S6    O28   D    
S4    O24   S    
