data_mof_unit_47009.cif
_audit_creation_date              2012-12-10T17:03:58-0500
_audit_creation_method            fapswitch 2.2
_symmetry_space_group_name_H-M    P1
_symmetry_Int_Tables_number       1
_space_group_crystal_system       triclinic
_cell_length_a                    18.526597
_cell_length_b                    18.598752
_cell_length_c                    18.761794
_cell_angle_alpha                 109.149091
_cell_angle_beta                  109.013818
_cell_angle_gamma                 108.80884
_cell_volume                      5063.17921391

loop_
_atom_site_label
_atom_site_type_symbol
_atom_type_description
_atom_site_fract_x
_atom_site_fract_y
_atom_site_fract_z
_atom_type_partial_charge
C1    C     C_R   0.998685 0.119235 0.618687 0.893585
C2    C     C_R   0.176474 0.184833 0.421219 0.064376
C3    C     C_R   0.314118 0.316356 0.501675 -0.127065
C4    C     C_R   0.327344 0.315979 0.579827 -0.004487
C5    C     C_R   0.258661 0.256443 0.580453 0.066371
C6    C     C_R   0.186039 0.187608 0.500354 -0.193386
C7    C     C_R   0.406991 0.374642 0.657667 -0.272729
C8    C     C_R   0.414596 0.380216 0.736016 0.489140
C9    C     C_R   0.342196 0.328929 0.737899 -0.178949
C10   C     C_R   0.264930 0.267993 0.661303 -0.224103
C11   C     C_R   0.874733 0.074503 0.678271 -0.278860
C12   C     C_R   0.119945 0.120103 0.499721 0.851526
C13   C     C_R   0.826369 0.051489 0.718045 0.494055
C14   C     C_R   0.856041 0.108417 0.803502 -0.282895
C15   C     C_R   0.927178 0.191767 0.845955 0.353309
C16   C     C_R   0.961899 0.223092 0.797770 -0.085707
C17   C     C_R   0.943459 0.159826 0.718550 -0.007152
C18   C     C_R   0.995396 0.183283 0.682043 -0.096235
C19   C     C_R   0.052170 0.268484 0.711395 -0.301612
C20   C     C_R   0.055990 0.334639 0.776053 0.364485
C21   C     C_R   0.010919 0.312758 0.821516 -0.233391
C22   C     C_R   0.896635 0.724124 0.492403 -0.253249
C23   C     C_R   0.003544 0.882736 0.380702 0.873694
C24   C     C_R   0.909557 0.657396 0.501959 -0.175464
C25   C     C_R   0.852984 0.600118 0.515814 0.556717
C26   C     C_R   0.782310 0.610698 0.520202 -0.308033
C27   C     C_R   0.766381 0.676083 0.507178 0.041908
C28   C     C_R   0.826926 0.736406 0.498223 0.107200
C29   C     C_R   0.815192 0.806923 0.494642 -0.086769
C30   C     C_R   0.742106 0.813860 0.493253 -0.160890
C31   C     C_R   0.680682 0.752417 0.497417 -0.147650
C32   C     C_R   0.692303 0.684200 0.504310 -0.080010
C33   C     C_R   0.167849 0.893377 0.389246 -0.377777
C34   C     C_R   0.880341 0.877112 0.497547 0.861594
C35   C     C_R   0.246863 0.892202 0.400741 0.432615
C36   C     C_R   0.241745 0.815427 0.346485 0.395374
C37   C     C_R   0.161173 0.746349 0.278056 -0.321674
C38   C     C_R   0.083162 0.750368 0.263163 -0.011610
C39   C     C_R   0.086181 0.821262 0.323678 0.070861
C40   C     C_R   0.006832 0.818253 0.316059 -0.138092
C41   C     C_R   0.927068 0.750083 0.247204 -0.276709
C42   C     C_R   0.923112 0.683690 0.182798 0.357981
C43   C     C_R   0.001719 0.684312 0.190235 -0.201480
C44   C     C_R   0.621453 0.500806 0.619284 0.843763
C45   C     C_R   0.108233 0.114422 0.339551 -0.235867
C46   C     C_R   0.380976 0.380795 0.501242 0.892392
C47   C     C_R   0.373450 0.494413 0.381916 0.962144
C48   C     C_R   0.622744 0.619487 0.502260 0.855444
C49   C     C_R   0.880047 0.502767 0.882034 0.882244
C50   C     C_R   0.004140 0.379620 0.882873 0.961071
C51   C     C_R   0.120267 0.500676 0.120976 0.945536
C52   C     C_R   0.999599 0.619552 0.120447 0.875736
C53   C     C_R   0.781903 0.661995 0.743851 -0.163807
C54   C     C_R   0.853088 0.741067 0.810936 -0.093576
C55   C     C_R   0.909424 0.744419 0.883715 -0.124272
C56   C     C_R   0.093075 0.121042 0.264751 -0.201178
C57   C     C_R   0.896782 0.668286 0.888195 -0.165784
C58   C     C_R   0.827150 0.586616 0.818932 0.120478
C59   C     C_R   0.766360 0.584383 0.748467 0.089811
C60   C     C_R   0.691659 0.504290 0.684288 -0.097563
C61   C     C_R   0.679974 0.427190 0.685871 -0.176378
C62   C     C_R   0.741686 0.428420 0.752134 -0.159336
C63   C     C_R   0.814966 0.506997 0.818228 -0.057306
C64   C     C_R   0.209738 0.487350 0.391528 0.327203
C65   C     C_R   0.127720 0.475978 0.384621 0.402187
C66   C     C_R   0.076472 0.492339 0.326428 -0.237757
C67   C     C_R   0.146554 0.196697 0.269209 0.408771
C68   C     C_R   0.099249 0.508593 0.267943 -0.221036
C69   C     C_R   0.170869 0.501927 0.260890 0.006626
C70   C     C_R   0.229484 0.494635 0.325189 -0.045394
C71   C     C_R   0.304871 0.495786 0.319456 -0.119758
C72   C     C_R   0.320666 0.504280 0.254356 -0.220514
C73   C     C_R   0.263017 0.509160 0.190592 0.437194
C74   C     C_R   0.186202 0.505168 0.192176 -0.152279
C75   C     C_R   0.218460 0.263026 0.347909 -0.266818
C76   C     C_R   0.236704 0.255381 0.423690 0.016886
H1    H     H_    0.345565 0.335366 0.798538 0.203806
H2    H     H_    0.856571 0.026239 0.615056 0.150636
H3    H     H_    0.826867 0.085402 0.838539 0.199607
H4    H     H_    0.733094 0.867697 0.490005 0.155266
H5    H     H_    0.941434 0.765080 0.479641 0.180609
H6    H     H_    0.964512 0.650432 0.499045 0.170458
H7    H     H_    0.741498 0.568906 0.535542 0.146543
H8    H     H_    0.065980 0.053449 0.331821 0.180822
H9    H     H_    0.623078 0.757318 0.494113 0.158755
H10   H     H_    0.867243 0.749167 0.243889 0.212830
H11   H     H_    0.169640 0.950559 0.430896 0.159376
H12   H     H_    0.159832 0.688367 0.237947 0.188929
H13   H     H_    0.622208 0.366085 0.636261 0.150468
H14   H     H_    0.739851 0.662333 0.688389 0.143043
H15   H     H_    0.863858 0.800055 0.806921 0.163270
H16   H     H_    0.038660 0.067592 0.203622 0.187310
H17   H     H_    0.963346 0.806223 0.936849 0.159855
H18   H     H_    0.941039 0.675040 0.947243 0.162846
H19   H     H_    0.732505 0.367547 0.751408 0.153178
H20   H     H_    0.380466 0.508617 0.254401 0.200111
H21   H     H_    0.018403 0.493043 0.326936 0.190902
H22   H     H_    0.059214 0.526103 0.228266 0.172616
H23   H     H_    0.259050 0.320842 0.349395 0.177785
H24   H     H_    0.463874 0.416633 0.658610 0.181618
H25   H     H_    0.210446 0.231511 0.666960 0.182251
H26   H     H_    0.090268 0.282716 0.679775 0.179597
O1    O     O_R   0.051710 0.091600 0.643330 -0.606090
O2    O     O_R   0.591640 0.448340 0.539940 -0.642880
O3    O     O_R   0.408370 0.460150 0.551730 -0.610539
O4    O     O_R   0.408410 0.356720 0.448320 -0.623988
O5    O     O_R   0.408360 0.551760 0.460120 -0.596717
O6    O     O_R   0.408400 0.448330 0.356700 -0.605874
O7    O     O_R   0.591600 0.643380 0.551740 -0.624610
O8    O     O_R   0.591640 0.539950 0.448320 -0.614796
O9    O     O_R   0.960070 0.551730 0.908390 -0.631393
O10   O     O_R   0.856640 0.448280 0.908400 -0.582725
O11   O     O_R   0.051720 0.460120 0.908370 -0.507716
O12   O     O_R   0.948270 0.091620 0.539910 -0.629020
O13   O     O_R   0.948290 0.356670 0.908380 -0.611143
O14   O     O_R   0.143340 0.551720 0.091580 -0.555187
O15   O     O_R   0.039910 0.448270 0.091590 -0.573834
O16   O     O_R   0.051690 0.643330 0.091600 -0.644846
O17   O     O_R   0.948270 0.539880 0.091610 -0.569850
O18   O     O_R   0.143340 0.091610 0.551710 -0.637642
O19   O     O_R   0.039890 0.091630 0.448290 -0.624341
O20   O     O_R   0.051730 0.908380 0.460090 -0.629035
O21   O     O_R   0.948290 0.908400 0.356670 -0.616190
O22   O     O_R   0.960110 0.908370 0.551710 -0.615170
O23   O     O_R   0.856660 0.908390 0.448290 -0.612838
O24   O     O_R   0.591600 0.551770 0.643360 -0.602295
Zn1   Zn    Zn3+2 0.069070 0.999990 0.569050 0.975108
Zn2   Zn    Zn3+2 0.930930 0.000010 0.430950 0.976337
Zn3   Zn    Zn3+2 0.499980 0.569110 0.569080 0.987981
Zn4   Zn    Zn3+2 0.500030 0.430990 0.430980 0.987998
Zn5   Zn    Zn3+2 0.069050 0.569070 0.999980 1.148401
Zn6   Zn    Zn3+2 0.930930 0.430930 0.000000 1.130032
O25   O     O_3   0.757594 0.968823 0.678025 -0.628506
C77   C     C_3   0.681297 0.965072 0.623145 0.086086
H27   H     H_    0.635466 0.896065 0.573791 0.182603
H28   H     H_    0.693325 0.000901 0.587155 0.129142
C78   C     C_3   0.637565 0.997551 0.673554 -0.437402
H29   H     H_    0.628086 0.962462 0.710396 0.249882
H30   H     H_    0.679775 0.068036 0.719833 0.218053
C79   C     C_3   0.549497 0.983079 0.613446 -0.765585
H31   H     H_    0.557471 0.018518 0.576685 0.274610
H32   H     H_    0.519666 0.007273 0.651785 0.249752
H33   H     H_    0.505244 0.912838 0.567860 0.316752
S1    S     S_3+6 0.985707 0.235805 0.958871 0.091345
O26   O     O_2   0.936846 0.267659 0.999689 -0.236431
O27   O     O_2   0.992134 0.164672 0.977221 -0.201343
O28   O     O_3   0.086543 0.316454 0.001848 -0.530014
H34   H     H_    0.119306 0.287223 0.985638 0.371789
S2    S     S_3+6 0.113105 0.440526 0.790147 0.062157
O29   O     O_2   0.188378 0.499052 0.879987 -0.166425
O30   O     O_2   0.148152 0.437298 0.727898 -0.314668
O31   O     O_3   0.045428 0.482794 0.773081 -0.515798
H35   H     H_    0.995557 0.439147 0.714932 0.327929
O32   O     O_3   0.873865 0.540242 0.533004 -0.637436
C80   C     C_3   0.802145 0.455172 0.482948 0.075797
H36   H     H_    0.821004 0.412630 0.444578 0.166695
H37   H     H_    0.741868 0.448657 0.435613 0.132812
C81   C     C_3   0.783081 0.422509 0.543054 -0.322375
H38   H     H_    0.841171 0.421544 0.584287 0.229561
H39   H     H_    0.769720 0.467681 0.585617 0.227957
C82   C     C_3   0.705102 0.331559 0.492807 -0.932793
H40   H     H_    0.645620 0.331718 0.453389 0.276506
H41   H     H_    0.693948 0.309608 0.538446 0.259562
H42   H     H_    0.717455 0.285204 0.449987 0.263123
O33   O     O_3   0.329416 0.960663 0.466168 -0.575415
C83   C     C_3   0.331829 0.042087 0.500386 0.109662
H43   H     H_    0.301893 0.044635 0.543214 0.122712
H44   H     H_    0.297385 0.054354 0.448429 0.128900
C84   C     C_3   0.426151 0.115265 0.555896 -0.327532
H45   H     H_    0.426709 0.176974 0.590417 0.182107
H46   H     H_    0.463145 0.101654 0.604928 0.229730
C85   C     C_3   0.471025 0.127063 0.502144 -0.798410
H47   H     H_    0.473700 0.067354 0.468528 0.298892
H48   H     H_    0.538642 0.181575 0.544937 0.225924
H49   H     H_    0.435645 0.142414 0.453897 0.248486
S3    S     S_3+6 0.335736 0.803048 0.364517 0.042348
O34   O     O_2   0.356882 0.780571 0.435962 -0.307435
O35   O     O_2   0.320020 0.731145 0.284919 -0.280035
O36   O     O_3   0.420835 0.895612 0.393402 -0.519549
H50   H     H_    0.402563 0.906898 0.344169 0.353946
S4    S     S_3+6 0.818570 0.603049 0.093835 0.056195
O37   O     O_2   0.795895 0.518149 0.094468 -0.234347
O38   O     O_2   0.749846 0.627756 0.098379 -0.276741
O39   O     O_3   0.818967 0.590670 0.001276 -0.542677
H51   H     H_    0.823677 0.644915 0.000411 0.352059
O40   O     O_3   0.270216 0.492821 0.462916 -0.660595
C86   C     C_3   0.295237 0.564955 0.541376 0.153971
H52   H     H_    0.352720 0.572137 0.592551 0.184370
H53   H     H_    0.244622 0.551565 0.561584 0.182707
C87   C     C_3   0.321089 0.652495 0.540657 -0.380288
H54   H     H_    0.368722 0.664262 0.516651 0.269833
H55   H     H_    0.262782 0.651781 0.497628 0.232095
C88   C     C_3   0.361328 0.727949 0.630660 -0.886922
H56   H     H_    0.314489 0.718774 0.655975 0.274761
H57   H     H_    0.378062 0.789581 0.627865 0.283723
H58   H     H_    0.421755 0.732797 0.675100 0.257914
O41   O     O_3   0.101429 0.461014 0.441802 -0.645638
C89   C     C_3   0.087354 0.378201 0.431820 0.071772
H59   H     H_    0.150475 0.378473 0.459543 0.188101
H60   H     H_    0.047055 0.327225 0.362633 0.139169
C90   C     C_3   0.039036 0.355933 0.480299 -0.320919
H61   H     H_    0.074254 0.410085 0.547485 0.269738
H62   H     H_    0.972641 0.347802 0.448258 0.222827
C91   C     C_3   0.031867 0.272998 0.482997 -0.874552
H63   H     H_    0.000434 0.218343 0.416790 0.271832
H64   H     H_    0.992146 0.256161 0.514155 0.266131
H65   H     H_    0.097616 0.283067 0.521370 0.266029
S5    S     S_3+6 0.292432 0.522484 0.112404 0.097840
O42   O     O_2   0.317311 0.613552 0.127559 -0.183262
O43   O     O_2   0.369194 0.507701 0.119941 -0.295814
O44   O     O_3   0.208900 0.452993 0.012152 -0.512770
H66   H     H_    0.228965 0.415177 0.982984 0.378597
S6    S     S_3+6 0.123402 0.208866 0.176562 0.067166
O45   O     O_2   0.204908 0.270962 0.184197 -0.287794
O46   O     O_2   0.083544 0.122160 0.098917 -0.223959
O47   O     O_3   0.052228 0.247436 0.164959 -0.457144
H67   H     H_    0.082643 0.304429 0.217549 0.329668
S7    S     S_3+6 0.513711 0.454599 0.831989 0.063767
O48   O     O_2   0.588622 0.460334 0.814800 -0.283497
O49   O     O_2   0.518554 0.542303 0.864348 -0.241766
O50   O     O_3   0.519285 0.422713 0.906879 -0.526746
H68   H     H_    0.577197 0.466402 0.957534 0.430197

loop_
_geom_bond_atom_site_label_1
_geom_bond_atom_site_label_2
_ccdc_geom_bond_type
C66   C68   A    
O33   C83   S    
C49   C63   S    
O25   C77   S    
C80   H37   S    
C84   H46   S    
C84   H45   S    
C37   H12   S    
C48   O8    A    
C35   C36   A    
C79   H33   S    
O5    Zn3   S    
C77   C78   S    
C84   C85   S    
C82   H40   S    
C57   C58   A    
O18   Zn1   S    
C7    C8    A    
C2    C6    A    
S6    O45   D    
O39   H51   S    
O44   H66   S    
C41   H10   S    
C78   H30   S    
C44   O24   A    
C1    C18   S    
C26   H7    S    
C31   H9    S    
C5    C6    A    
C66   H21   S    
C36   C37   A    
C37   C38   A    
C79   H32   S    
C18   C19   A    
C36   S3    S    
S1    O28   S    
C6    C12   S    
C30   C31   A    
C19   H26   S    
C43   C52   S    
S6    O47   S    
C1    O12   A    
C15   C16   A    
C46   O3    A    
C20   S2    S    
C50   O13   A    
C41   C42   A    
O20   Zn1   S    
O15   Zn6   S    
C24   H6    S    
C86   C87   S    
O16   Zn5   S    
C81   C82   S    
C35   O33   S    
C12   O18   A    
C33   C39   A    
C81   H39   S    
S3    O36   S    
C11   C17   A    
C12   O19   A    
O28   H34   S    
C45   C56   A    
C85   H48   S    
C16   C17   A    
C88   H57   S    
O23   Zn2   S    
C34   O22   A    
C51   C74   S    
C70   C71   A    
C64   C70   A    
O1    Zn1   S    
C9    C10   A    
C1    O1    A    
O6    Zn4   S    
C61   C62   A    
C87   C88   S    
C85   H49   S    
C55   H17   S    
C49   O9    A    
C30   H4    S    
S3    O35   D    
C48   O7    A    
C27   C32   A    
C59   C60   A    
C2    C45   A    
O2    Zn4   S    
C62   H19   S    
C80   C81   S    
C83   H44   S    
C91   H63   S    
C32   C48   S    
O41   C89   S    
C90   H62   S    
C89   C90   S    
C4    C7    A    
C21   C50   S    
C82   H41   S    
C61   H13   S    
C17   C18   A    
C23   O20   A    
O13   Zn6   S    
S4    O38   D    
C42   S4    S    
C53   C59   A    
C78   C79   S    
C7    H24   S    
C22   H5    S    
O47   H67   S    
O19   Zn2   S    
S1    O27   D    
S2    O31   S    
S5    O42   D    
C39   C40   A    
C8    C9    A    
O3    Zn3   S    
O24   Zn3   S    
C58   C59   A    
S4    O37   D    
C29   C34   S    
O10   Zn6   S    
C38   C43   A    
O36   H50   S    
C60   C61   A    
C81   H38   S    
C75   C76   A    
C87   H54   S    
C77   H28   S    
C29   C30   A    
C11   H2    S    
O50   H68   S    
O12   Zn2   S    
S7    O49   D    
C31   C32   A    
C44   O2    A    
C91   H65   S    
C88   H58   S    
C62   C63   A    
C75   H23   S    
O17   Zn6   S    
C26   C27   A    
C69   C74   A    
C9    H1    S    
C14   H3    S    
C24   C25   A    
C3    C76   A    
C47   C71   S    
O32   C80   S    
C89   H59   S    
C49   O10   A    
C65   O41   S    
O21   Zn2   S    
O9    Zn5   S    
C40   C41   A    
C73   S5    S    
C91   H64   S    
C47   O6    A    
C47   O5    A    
C57   H18   S    
C55   C57   A    
O7    Zn3   S    
C83   H43   S    
C51   O15   A    
C90   C91   S    
C22   C24   A    
C67   S6    S    
C45   H8    S    
C67   C75   A    
C42   C43   A    
C54   H15   S    
C3    C4    A    
C28   C29   A    
C73   C74   A    
C53   H14   S    
C82   H42   S    
C2    C76   A    
C85   H47   S    
S7    O50   S    
S4    O39   S    
C58   C63   A    
O4    Zn4   S    
C23   O21   A    
C54   C55   A    
S3    O34   D    
C87   H55   S    
O11   Zn5   S    
C25   O32   S    
C13   O25   S    
C68   C69   A    
C10   H25   S    
C72   C73   A    
C89   H60   S    
C16   C21   A    
C53   C54   A    
C77   H27   S    
C56   C67   A    
C78   H29   S    
C3    C46   S    
C51   O14   A    
C90   H61   S    
S1    O26   D    
C50   O11   A    
C64   C65   A    
C19   C20   A    
S2    O30   D    
C25   C26   A    
S6    O46   D    
C5    C10   A    
S2    O29   D    
C11   C13   A    
S7    O48   D    
C38   C39   A    
O14   Zn5   S    
C44   C60   S    
C34   O23   A    
C79   H31   S    
C4    C5    A    
C46   O4    A    
C33   C35   A    
O8    Zn4   S    
C65   C66   A    
C33   H11   S    
C69   C70   A    
C68   H22   S    
C86   H53   S    
C8    S7    S    
C15   S1    S    
C72   H20   S    
C52   O17   A    
C56   H16   S    
C71   C72   A    
C20   C21   A    
C86   H52   S    
C83   C84   S    
S5    O43   D    
C88   H56   S    
S5    O44   S    
O22   Zn1   S    
C80   H36   S    
C14   C15   A    
C22   C28   A    
O31   H35   S    
O40   C86   S    
C13   C14   A    
C64   O40   S    
C23   C40   S    
C27   C28   A    
C52   O16   A    
