data_mof_unit_65572.cif
_audit_creation_date              2012-12-10T18:44:02-0500
_audit_creation_method            fapswitch 2.2
_symmetry_space_group_name_H-M    P1
_symmetry_Int_Tables_number       1
_space_group_crystal_system       triclinic
_cell_length_a                    18.148036
_cell_length_b                    18.104744
_cell_length_c                    22.120853
_cell_angle_alpha                 114.103391
_cell_angle_beta                  114.312554
_cell_angle_gamma                 89.966138
_cell_volume                      5922.14675198

loop_
_atom_site_label
_atom_site_type_symbol
_atom_type_description
_atom_site_fract_x
_atom_site_fract_y
_atom_site_fract_z
_atom_type_partial_charge
C1    C     C_R   0.349741 0.349677 0.699443 0.809762
C2    C     C_1   0.889549 0.889196 0.778682 -0.080605
C3    C     C_3   0.081392 0.014233 0.024940 0.620865
C4    C     C_3   0.918608 0.985767 0.975060 0.620864
C5    C     C_3   0.036316 0.037462 0.073586 -0.238319
C6    C     C_3   0.963684 0.962538 0.926413 -0.238319
C7    C     C_1   0.076975 0.077659 0.154612 0.175331
C8    C     C_1   0.923025 0.922341 0.845387 0.175330
C9    C     C_3   0.039018 0.503940 0.568003 -0.171415
C10   C     C_3   0.960982 0.496060 0.431997 -0.171415
C11   C     C_3   0.944472 0.479061 0.518760 -0.172056
C12   C     C_R   0.650259 0.650323 0.300556 0.809760
C13   C     C_3   0.055528 0.520939 0.481240 -0.172056
C14   C     C_3   0.949284 0.551226 0.500193 0.040041
C15   C     C_3   0.050716 0.448774 0.499807 0.040041
C16   C     C_R   0.150248 0.150311 0.300640 0.825527
C17   C     C_R   0.849752 0.849689 0.699359 0.825529
C18   C     C_3   0.043009 0.577041 0.549484 -0.120996
C19   C     C_3   0.956991 0.422959 0.450516 -0.120996
C20   C     C_3   0.566819 0.554103 0.024510 0.417115
C21   C     C_3   0.433180 0.445897 0.975490 0.417115
C22   C     C_3   0.551735 0.460898 0.975509 0.612547
C23   C     C_3   0.563251 0.538152 0.566792 0.727761
C24   C     C_3   0.448264 0.539102 0.024491 0.612548
C25   C     C_1   0.389411 0.389351 0.778756 -0.099825
C26   C     C_1   0.610588 0.610649 0.221244 -0.099824
C27   C     C_3   0.478259 0.558395 0.975329 -0.474414
C28   C     C_3   0.521740 0.441605 0.024671 -0.474415
C29   C     C_3   0.463228 0.464026 0.926474 -0.136804
C30   C     C_3   0.536771 0.535974 0.073525 -0.136803
C31   C     C_1   0.422754 0.422975 0.845452 0.129287
C32   C     C_1   0.577246 0.577025 0.154548 0.129287
C33   C     C_3   0.076145 0.006310 0.549209 0.644283
C34   C     C_3   0.436749 0.461848 0.433208 0.727762
C35   C     C_3   0.923855 0.993690 0.450791 0.644284
C36   C     C_3   0.021204 0.924748 0.481185 -0.497148
C37   C     C_3   0.978796 0.075252 0.518815 -0.497148
C38   C     C_3   0.948382 0.948280 0.499369 -0.359572
C39   C     C_3   0.051617 0.051719 0.500631 -0.359573
C40   C     C_R   0.391552 0.108410 0.500138 0.961268
C41   C     C_R   0.608448 0.891590 0.499862 0.961268
C42   C     C_3   0.003561 0.028631 0.567054 0.599629
C43   C     C_3   0.996439 0.971369 0.432946 0.599628
C44   C     C_3   0.474965 0.007970 0.551705 0.456531
C45   C     C_3   0.020620 0.048315 0.975231 0.616665
C46   C     C_3   0.525034 0.992028 0.448295 0.456536
C47   C     C_3   0.564819 0.030410 0.567146 0.244795
C48   C     C_3   0.435180 0.969589 0.432854 0.244803
C49   C     C_3   0.551563 0.948676 0.499453 -0.354252
C50   C     C_3   0.448437 0.051323 0.500548 -0.354249
C51   C     C_3   0.461269 0.926734 0.483799 0.240331
C52   C     C_3   0.538730 0.073265 0.516201 0.240327
C53   C     C_R   0.108194 0.391684 0.499981 0.785366
C54   C     C_R   0.891806 0.608316 0.500019 0.785364
C55   C     C_R   0.108493 0.108413 0.500169 0.936081
C56   C     C_3   0.979379 0.951685 0.024768 0.616666
C57   C     C_R   0.891507 0.891587 0.499831 0.936080
C58   C     C_R   0.391679 0.391780 0.500104 0.876055
C59   C     C_R   0.608321 0.608220 0.499896 0.876058
C60   C     C_3   0.472715 0.543432 0.549926 -0.270762
C61   C     C_3   0.527285 0.456568 0.450073 -0.270761
C62   C     C_3   0.460186 0.556196 0.481298 -0.327461
C63   C     C_3   0.539814 0.443804 0.518702 -0.327464
C64   C     C_3   0.550879 0.550730 0.499307 -0.154244
C65   C     C_3   0.449121 0.449269 0.500693 -0.154245
C66   C     C_3   0.647430 0.623907 0.999136 0.105480
C67   C     C_3   0.975198 0.072720 0.024339 -0.469131
C68   C     C_3   0.730925 0.678402 0.031566 -0.656405
C69   C     C_3   0.352570 0.376093 0.000864 0.105479
C70   C     C_3   0.269074 0.321598 0.968433 -0.656403
C71   C     C_3   0.629666 0.128793 0.689452 0.153502
C72   C     C_3   0.713457 0.167215 0.757049 -0.749291
C73   C     C_3   0.370334 0.871206 0.310548 0.153522
C74   C     C_3   0.286542 0.832779 0.242955 -0.749301
C75   C     C_3   0.346540 0.844842 0.461192 0.175009
C76   C     C_3   0.304307 0.755635 0.428673 -0.809550
C77   C     C_3   0.653462 0.155158 0.538813 0.174986
C78   C     C_3   0.024802 0.927280 0.975661 -0.469131
C79   C     C_3   0.695685 0.244364 0.571315 -0.809537
C80   C     C_1   0.110451 0.110804 0.221318 -0.080605
F1    F     F_    0.604977 0.421059 0.949202 -0.636688
F2    F     F_    0.369920 0.421068 0.363920 -0.642543
F3    F     F_    0.042764 0.097622 0.948986 -0.590742
F4    F     F_    0.957236 0.902378 0.051014 -0.590742
F5    F     F_    0.833904 0.969563 0.948625 -0.585524
F6    F     F_    0.166096 0.030436 0.051374 -0.585523
F7    F     F_    0.395023 0.578941 0.050798 -0.636688
F8    F     F_    0.155403 0.014275 0.601051 -0.577710
F9    F     F_    0.844597 0.985725 0.398948 -0.577710
F10   F     F_    0.007227 0.056789 0.636691 -0.598951
F11   F     F_    0.992773 0.943211 0.363309 -0.598950
F12   F     F_    0.448230 0.017512 0.604176 -0.627913
F13   F     F_    0.551768 0.982487 0.395824 -0.627910
F14   F     F_    0.630080 0.578932 0.636080 -0.642543
H1    H     H_    0.428125 0.602208 0.465096 0.185423
H2    H     H_    0.045119 0.867881 0.955849 0.228697
H3    H     H_    0.897909 0.462941 0.534120 0.151018
H4    H     H_    0.102091 0.537059 0.465880 0.151018
H5    H     H_    0.072048 0.506119 0.623731 0.152412
H6    H     H_    0.927952 0.493881 0.376269 0.152412
H7    H     H_    0.077496 0.641153 0.590120 0.167895
H8    H     H_    0.922504 0.358847 0.409880 0.167895
H9    H     H_    0.598594 0.655865 0.976726 0.150376
H10   H     H_    0.643198 0.564505 0.953118 0.181409
H11   H     H_    0.781222 0.647847 0.053845 0.261714
H12   H     H_    0.571875 0.397792 0.534904 0.185426
H13   H     H_    0.737085 0.689183 0.987761 0.220330
H14   H     H_    0.736770 0.738852 0.077032 0.274112
H15   H     H_    0.356802 0.435495 0.046881 0.181410
H16   H     H_    0.401406 0.344135 0.023274 0.150376
H17   H     H_    0.263230 0.261148 0.922968 0.274112
H18   H     H_    0.262914 0.310816 0.012239 0.220330
H19   H     H_    0.218778 0.352152 0.946155 0.261713
H20   H     H_    0.585242 0.112450 0.706875 0.221139
H21   H     H_    0.609549 0.175970 0.669224 0.160378
H22   H     H_    0.759049 0.185059 0.741462 0.254480
H23   H     H_    0.540108 0.394631 0.045226 0.206274
H24   H     H_    0.708674 0.223198 0.800564 0.228472
H25   H     H_    0.735102 0.122370 0.779682 0.278988
H26   H     H_    0.390460 0.824032 0.330778 0.160381
H27   H     H_    0.414753 0.887553 0.293121 0.221136
H28   H     H_    0.264888 0.877622 0.220320 0.278987
H29   H     H_    0.291325 0.776796 0.199440 0.228473
H30   H     H_    0.240956 0.814932 0.258547 0.254481
H31   H     H_    0.307860 0.871794 0.424621 0.167624
H32   H     H_    0.350001 0.878932 0.517296 0.221619
H33   H     H_    0.340477 0.726985 0.464466 0.263224
H34   H     H_    0.459891 0.605369 0.954774 0.206274
H35   H     H_    0.241419 0.753365 0.425079 0.222860
H36   H     H_    0.299206 0.720038 0.372148 0.257532
H37   H     H_    0.650009 0.121054 0.482714 0.221621
H38   H     H_    0.692143 0.128223 0.575399 0.167625
H39   H     H_    0.700773 0.279977 0.627834 0.257532
H40   H     H_    0.758578 0.246637 0.574920 0.222858
H41   H     H_    0.659516 0.272997 0.535505 0.263227
H42   H     H_    0.038050 0.863036 0.465813 0.216378
H43   H     H_    0.961950 0.136964 0.534187 0.216378
H44   H     H_    0.450663 0.578309 0.591480 0.199297
H45   H     H_    0.549336 0.421691 0.408519 0.199296
H46   H     H_    0.954881 0.132119 0.044151 0.228697
O1    O     O_3   0.250010 0.250010 0.500010 -0.530271
O2    O     O_R   0.893710 0.832180 0.664370 -0.621877
O3    O     O_R   0.332200 0.393690 0.664400 -0.641037
O4    O     O_R   0.667800 0.606310 0.335600 -0.641037
O5    O     O_R   0.229300 0.167820 0.335610 -0.610832
O6    O     O_R   0.770700 0.832180 0.664390 -0.610833
O7    O     O_R   0.358130 0.123520 0.543120 -0.615428
O8    O     O_R   0.641870 0.876480 0.456880 -0.615427
O9    O     O_R   0.080390 0.314990 0.456920 -0.644409
O10   O     O_R   0.919610 0.685010 0.543080 -0.644409
O11   O     O_R   0.185040 0.123520 0.543150 -0.595599
O12   O     O_3   0.749990 0.749990 0.499990 -0.530272
O13   O     O_R   0.814960 0.876480 0.456850 -0.595599
O14   O     O_R   0.358080 0.419590 0.543080 -0.650437
O15   O     O_R   0.641920 0.580410 0.456920 -0.650437
O16   O     O_R   0.080420 0.141920 0.456950 -0.616960
O17   O     O_R   0.919580 0.858080 0.543050 -0.616960
O18   O     O_R   0.376490 0.315000 0.456880 -0.608940
O19   O     O_R   0.623510 0.685000 0.543120 -0.608941
O20   O     O_3   0.640375 0.611217 0.055485 -0.568713
O21   O     O_3   0.359625 0.388783 0.944515 -0.568713
O22   O     O_3   0.636672 0.057274 0.635226 -0.592906
O23   O     O_R   0.376520 0.141930 0.456900 -0.597682
O24   O     O_3   0.363327 0.942724 0.364775 -0.592906
O25   O     O_3   0.426486 0.846538 0.465992 -0.598759
O26   O     O_3   0.573512 0.153459 0.534005 -0.598752
O27   O     O_R   0.623480 0.858070 0.543100 -0.597684
O28   O     O_R   0.184990 0.419580 0.543110 -0.638277
O29   O     O_R   0.815010 0.580420 0.456890 -0.638277
O30   O     O_R   0.332220 0.270690 0.664420 -0.609231
O31   O     O_R   0.667780 0.729310 0.335580 -0.609230
O32   O     O_R   0.106290 0.167820 0.335630 -0.621877
Zn1   Zn    Zn3+2 0.307090 0.219220 0.438420 1.058200
Zn2   Zn    Zn3+2 0.692910 0.780780 0.561580 1.058199
Zn3   Zn    Zn3+2 0.280820 0.192930 0.561610 1.060418
Zn4   Zn    Zn3+2 0.719180 0.807070 0.438390 1.060418
Zn5   Zn    Zn3+2 0.131340 0.219220 0.438450 1.019561
Zn6   Zn    Zn3+2 0.868660 0.780780 0.561550 1.019561
Zn7   Zn    Zn3+2 0.280790 0.368660 0.561580 0.980602
Zn8   Zn    Zn3+2 0.719210 0.631340 0.438420 0.980602

loop_
_geom_bond_atom_site_label_1
_geom_bond_atom_site_label_2
_ccdc_geom_bond_type
O32   Zn5   S    
C25   C31   T    
C66   C68   S    
C63   C65   S    
C26   C32   T    
C71   O22   S    
C27   C29   S    
C73   C74   S    
C14   C18   S    
C5    C56   S    
C74   H30   S    
C24   C27   S    
C5    C67   S    
C66   O20   S    
C47   C49   S    
C20   C30   S    
C48   C50   S    
C15   C19   S    
C41   O8    A    
O13   Zn4   S    
C11   C19   S    
C59   C64   S    
O8    Zn4   S    
C13   C18   S    
O1    Zn5   S    
C33   C42   S    
C15   C53   S    
C22   C29   S    
C33   F8    S    
C69   O21   S    
C38   C42   S    
C73   O24   S    
C28   H23   S    
C19   H8    S    
O7    Zn3   S    
C6    C78   S    
O2    Zn6   S    
C46   C52   S    
C1    O30   A    
C34   C62   S    
C33   C36   S    
C56   C78   S    
C60   C62   S    
C77   H37   S    
C37   C42   S    
C61   C63   S    
C62   C64   S    
C58   O14   A    
C52   O26   S    
C47   O22   S    
C69   H15   S    
C48   C51   S    
C39   C55   S    
O4    Zn8   S    
C53   O28   A    
C78   H2    S    
C49   C51   S    
O19   Zn2   S    
C45   C67   S    
C50   C52   S    
C68   H13   S    
O3    Zn7   S    
C35   C43   S    
O29   Zn8   S    
C76   H36   S    
C44   F12   S    
C44   C47   S    
O10   Zn6   S    
O12   Zn2   S    
C23   C63   S    
C74   H29   S    
C9    H5    S    
C73   H26   S    
C37   H43   S    
O14   Zn7   S    
C4    C56   S    
C3    F6    S    
C1    C25   S    
C54   O29   A    
C45   F3    S    
C59   O19   A    
C42   F10   S    
C36   H42   S    
C34   C65   S    
C41   C49   S    
C56   F4    S    
C12   O31   A    
O30   Zn3   S    
C77   C79   S    
C70   H19   S    
C23   C60   S    
C79   H39   S    
C46   C48   S    
O11   Zn3   S    
C6    C45   S    
C22   F1    S    
C66   H10   S    
C58   C65   S    
C35   C38   S    
C21   O21   S    
C40   O23   A    
C4    C6    S    
C58   O18   A    
C53   O9    A    
C59   O15   A    
C61   H45   S    
C39   C43   S    
C4    F5    S    
C77   O26   S    
C21   C29   S    
C3    C45   S    
C34   C61   S    
C43   F11   S    
C12   O4    A    
C71   H20   S    
C12   C26   S    
C17   O2    A    
C16   C80   S    
C18   H7    S    
O12   Zn8   S    
C61   C64   S    
C75   C76   S    
C1    O3    A    
C38   C57   S    
C69   H16   S    
C16   O32   A    
O18   Zn1   S    
C46   C49   S    
C13   C15   S    
C10   C19   S    
C76   H35   S    
O9    Zn5   S    
C71   H21   S    
C75   O25   S    
C33   C39   S    
C63   H12   S    
C10   H6    S    
C67   H46   S    
C9    C11   S    
C27   H34   S    
O6    Zn2   S    
C70   H18   S    
O27   Zn2   S    
C35   F9    S    
C44   C51   S    
C23   C64   S    
C74   H28   S    
C21   C28   S    
O5    Zn1   S    
C60   C65   S    
C73   H27   S    
O1    Zn1   S    
C10   C14   S    
C51   O25   S    
C68   H11   S    
O23   Zn1   S    
O15   Zn8   S    
C5    C7    S    
C44   C50   S    
C79   H40   S    
C57   O17   A    
C34   F2    S    
C55   O16   A    
C54   O10   A    
C40   O7    A    
C35   C37   S    
O1    Zn7   S    
C66   H9    S    
C2    C8    T    
C20   C22   S    
C3    C5    S    
C10   C13   S    
C4    C67   S    
C6    C8    S    
C55   O11   A    
C47   C52   S    
C48   O24   S    
C20   C27   S    
O28   Zn7   S    
C79   H41   S    
O31   Zn4   S    
C72   H22   S    
C23   F14   S    
C11   H3    S    
C14   C54   S    
C75   H32   S    
C28   C30   S    
C17   O6    A    
C9    C15   S    
C71   C72   S    
C29   C31   S    
C30   C32   S    
C13   H4    S    
C46   F13   S    
C57   O13   A    
C40   C50   S    
C41   O27   A    
C72   H25   S    
C36   C38   S    
C11   C14   S    
O17   Zn6   S    
O12   Zn6   S    
C69   C70   S    
C24   F7    S    
C24   C30   S    
O16   Zn5   S    
C70   H17   S    
O12   Zn4   S    
C9    C18   S    
C37   C39   S    
C20   O20   S    
C21   C24   S    
C72   H24   S    
O1    Zn3   S    
C76   H33   S    
C16   O5    A    
C36   C43   S    
C22   C28   S    
C68   H14   S    
C75   H31   S    
C62   H1    S    
C3    C78   S    
C77   H38   S    
C60   H44   S    
C7    C80   T    
C2    C17   S    
