data_mof_unit_18988.cif
_audit_creation_date              2012-10-26T19:00:12-0400
_audit_creation_method            fapswitch 2.2
_symmetry_space_group_name_H-M    P1
_symmetry_Int_Tables_number       1
_space_group_crystal_system       triclinic
_cell_length_a                    10.850173
_cell_length_b                    10.86658
_cell_length_c                    9.583267
_cell_angle_alpha                 88.862622
_cell_angle_beta                  91.310054
_cell_angle_gamma                 91.179896
_cell_volume                      1129.16098842

loop_
_atom_site_label
_atom_site_type_symbol
_atom_type_description
_atom_site_fract_x
_atom_site_fract_y
_atom_site_fract_z
_atom_type_partial_charge
C1    C     C_R   0.502363 0.262512 0.501050 0.562826
C2    C     C_R   0.877938 0.330306 0.981205 -0.067460
C3    C     C_R   0.783678 0.243200 0.960201 -0.142914
C4    C     C_R   0.262592 0.504361 0.497688 0.573812
C5    C     C_R   0.745390 0.213155 0.825147 -0.099291
C6    C     C_R   0.798691 0.272546 0.710068 -0.064847
C7    C     C_R   0.890705 0.364098 0.728891 0.039625
C8    C     C_R   0.503825 0.059398 0.623200 -0.048360
C9    C     C_R   0.516332 0.129905 0.501657 -0.025092
C10   C     C_R   0.546764 0.071123 0.378332 -0.109891
C11   C     C_R   0.547291 0.941708 0.371392 0.129610
C12   C     C_R   0.241358 0.858792 0.151780 -0.166056
C13   C     C_R   0.517474 0.871539 0.494056 0.033851
C14   C     C_R   0.503689 0.932950 0.618991 -0.003974
C15   C     C_3   0.404157 0.920039 0.724389 -0.007897
C16   C     C_R   0.504435 0.737705 0.497981 0.572044
C17   C     C_3   0.405385 0.059577 0.729313 -0.210036
C18   C     C_R   0.564197 0.588315 0.073153 0.103942
C19   C     C_R   0.424381 0.422096 0.074219 0.333866
C20   C     C_R   0.424467 0.422312 0.925846 0.344385
C21   C     C_R   0.561945 0.590078 0.926004 0.096249
C22   C     C_3   0.695808 0.618558 0.920707 -0.283551
C23   C     C_R   0.931309 0.570667 0.403079 -0.096317
C24   C     C_3   0.699853 0.611290 0.079078 -0.278502
C25   C     C_R   0.737739 0.497746 0.501894 0.528791
C26   C     C_R   0.163571 0.893366 0.257394 -0.072176
C27   C     C_R   0.099909 0.803747 0.336028 0.236266
C28   C     C_R   0.116526 0.677431 0.310429 0.032870
C29   C     C_R   0.187348 0.644849 0.196636 -0.091441
C30   C     C_R   0.252632 0.734595 0.120880 -0.150770
C31   C     C_3   0.632726 0.950451 0.132514 -0.325457
C32   C     C_3   0.186120 0.868464 0.756870 -0.266327
C33   C     C_3   0.998539 0.603476 0.902122 -0.322338
C34   C     C_R   0.872069 0.497725 0.504621 0.000927
C35   C     C_R   0.942732 0.429440 0.604494 -0.031481
C36   C     C_R   0.069071 0.424262 0.586527 -0.134089
C37   C     C_R   0.128621 0.503058 0.492301 0.012483
C38   C     C_R   0.059355 0.580013 0.400568 0.003853
C39   C     C_R   0.933280 0.390631 0.867515 0.168585
Cl1   Cl    Cl    0.324019 0.318123 0.161346 -0.566667
Cl2   Cl    Cl    0.322849 0.320973 0.839062 -0.634085
Cl3   Cl    Cl    0.997959 0.853875 0.462383 -0.695821
Cu1   Cu    Cu3+1 0.499990 0.499980 0.640670 1.019064
Cu2   Cu    Cu3+1 0.500010 0.500020 0.359330 1.009028
H1    H     H_    0.291429 0.928437 0.092359 0.137548
H2    H     H_    0.745795 0.544080 0.871320 0.177507
H3    H     H_    0.715001 0.712550 0.877629 0.128609
H4    H     H_    0.750927 0.530421 0.120693 0.147601
H5    H     H_    0.726124 0.699500 0.128833 0.156642
H6    H     H_    0.193503 0.549526 0.167776 0.191024
H7    H     H_    0.311087 0.707696 0.037177 0.112528
H8    H     H_    0.877468 0.626885 0.330612 0.149022
H9    H     H_    0.122462 0.360703 0.650415 0.174571
H10   H     H_    0.908553 0.351018 0.086692 0.140228
H11   H     H_    0.492186 0.835148 0.203107 0.272028
H12   H     H_    0.741275 0.197937 0.048968 0.108415
H13   H     H_    0.573547 0.023332 0.085747 0.130737
H14   H     H_    0.654502 0.887398 0.047391 0.130913
H15   H     H_    0.720566 0.990596 0.174658 0.177691
H16   H     H_    0.267926 0.898548 0.565167 0.281934
H17   H     H_    0.114179 0.803300 0.717665 0.201702
H18   H     H_    0.147169 0.962013 0.761022 0.175993
H19   H     H_    0.214183 0.837784 0.863116 0.133788
H20   H     H_    0.112010 0.462829 0.845387 0.303128
H21   H     H_    0.083131 0.661011 0.914922 0.146497
H22   H     H_    0.941315 0.618099 0.994211 0.156274
H23   H     H_    0.674377 0.143384 0.810078 0.123923
H24   H     H_    0.949903 0.633028 0.804217 0.165814
H25   H     H_    0.767790 0.247554 0.605993 0.112120
H26   H     H_    0.563286 0.126750 0.285741 0.155694
H27   H     H_    0.435477 0.873251 0.822959 0.141606
H28   H     H_    0.319448 0.102416 0.687982 0.199995
H29   H     H_    0.440646 0.093932 0.831403 0.164331
H30   H     H_    0.152808 0.990089 0.278174 0.171736
N1    N     N_R   0.500790 0.500930 0.147930 -0.257748
N2    N     N_R   0.500790 0.500890 0.852020 -0.246887
N3    N     N_2   0.567944 0.883091 0.241465 -0.493377
N4    N     N_2   0.289988 0.868860 0.665412 -0.495203
N5    N     N_2   0.031589 0.475930 0.896457 -0.508186
O1    O     O_R   0.500000 0.319640 0.618810 -0.460538
O2    O     O_R   0.500010 0.319680 0.381230 -0.464441
O3    O     O_R   0.319640 0.499990 0.618790 -0.459004
O4    O     O_R   0.319650 0.500030 0.381210 -0.469900
O5    O     O_R   0.499990 0.680320 0.618770 -0.491871
O6    O     O_R   0.500000 0.680360 0.381190 -0.498455
O7    O     O_R   0.680350 0.499970 0.618790 -0.511605
O8    O     O_R   0.680360 0.500010 0.381210 -0.519621

loop_
_geom_bond_atom_site_label_1
_geom_bond_atom_site_label_2
_ccdc_geom_bond_type
C6    H25   S    
C30   H7    S    
C18   N1    A    
C18   C21   A    
C35   C36   A    
C25   O8    A    
C5    H23   S    
Cu2   O4    S    
C20   Cl2   S    
C33   H21   S    
C21   N2    A    
H16   N4    S    
C26   C27   A    
C29   C30   A    
C18   C24   S    
C31   H14   S    
C36   C37   A    
C32   H17   S    
C5    C6    A    
H11   N3    S    
C15   N4    S    
C1    O2    A    
C16   O5    A    
C20   N2    A    
C34   C35   A    
C31   H15   S    
C36   H9    S    
C11   N3    S    
C2    C39   A    
C1    O1    A    
C19   C20   A    
C8    C9    A    
Cu2   O8    S    
C9    C10   A    
C25   C34   S    
C22   H3    S    
C13   C14   A    
C17   H29   S    
Cu1   O5    S    
C33   H22   S    
C31   N3    S    
C29   H6    S    
C24   H4    S    
C1    C9    S    
Cu2   O2    S    
C2    H10   S    
C33   N5    S    
Cu1   O1    S    
C12   C26   A    
C39   N5    S    
Cu2   N1    S    
Cu1   Cu2   S    
C37   C38   A    
C3    H12   S    
C28   C38   S    
C23   C34   A    
C10   H26   S    
C22   H2    S    
C10   C11   A    
C16   O6    A    
H20   N5    S    
C22   C24   S    
Cu2   O6    S    
C24   H5    S    
C15   C17   S    
C28   C29   A    
C8    C14   A    
C12   C30   A    
Cu1   O7    S    
C7    C35   S    
C32   H19   S    
C12   H1    S    
C3    C5    A    
C6    C7    A    
C23   C38   A    
C15   H27   S    
C8    C17   S    
C31   H13   S    
C19   N1    A    
C2    C3    A    
C32   H18   S    
C11   C13   A    
C27   Cl3   S    
C23   H8    S    
C4    O4    A    
C25   O7    A    
C26   H30   S    
C19   Cl1   S    
C32   N4    S    
C4    O3    A    
C4    C37   S    
C17   H28   S    
C13   C16   S    
C27   C28   A    
Cu1   O3    S    
C7    C39   A    
C14   C15   S    
Cu1   N2    S    
C21   C22   S    
C33   H24   S    
