data_mof_unit_46658.cif
_audit_creation_date              2012-12-10T18:13:34-0500
_audit_creation_method            fapswitch 2.2
_symmetry_space_group_name_H-M    P1
_symmetry_Int_Tables_number       1
_space_group_crystal_system       triclinic
_cell_length_a                    12.699377
_cell_length_b                    13.170184
_cell_length_c                    16.827942
_cell_angle_alpha                 90.368708
_cell_angle_beta                  98.570441
_cell_angle_gamma                 97.847321
_cell_volume                      2756.00410272

loop_
_atom_site_label
_atom_site_type_symbol
_atom_type_description
_atom_site_fract_x
_atom_site_fract_y
_atom_site_fract_z
_atom_type_partial_charge
C1    C     C_R   0.560108 0.691140 0.511446 0.837496
C2    C     C_R   0.493011 0.540806 0.733568 -0.077308
C3    C     C_R   0.291585 0.058113 0.548822 -0.256496
C4    C     C_R   0.512974 0.498199 0.349443 0.857245
C5    C     C_R   0.403705 0.198623 0.497390 -0.054185
C6    C     C_R   0.699449 0.838128 0.499529 -0.188703
C7    C     C_R   0.728823 0.942660 0.492316 -0.150950
C8    C     C_R   0.655412 0.009917 0.500423 -0.187157
C9    C     C_R   0.552415 0.973342 0.520115 0.096213
C10   C     C_R   0.530380 0.869614 0.540035 0.083164
C11   C     C_R   0.470021 0.035550 0.520072 0.080738
C12   C     C_R   0.620795 0.507473 0.237645 -0.202940
C13   C     C_R   0.373861 0.997468 0.549853 0.153985
C14   C     C_R   0.361488 0.899771 0.581144 -0.238148
C15   C     C_R   0.439440 0.836809 0.577179 -0.195074
C16   C     C_R   0.439677 0.308471 0.492030 0.875960
C17   C     C_R   0.479613 0.133866 0.489533 -0.319642
C18   C     C_R   0.306236 0.159192 0.523485 0.097973
C19   C     C_R   0.598866 0.800770 0.520672 -0.120875
C20   C     C_R   0.905324 0.353209 0.611706 -0.279793
C21   C     C_R   0.209099 0.618039 0.397334 0.025284
C22   C     C_R   0.105491 0.635180 0.367865 -0.259786
C23   C     C_R   0.573995 0.646606 0.851836 0.130474
C24   C     C_R   0.020539 0.588858 0.404195 -0.212189
C25   C     C_R   0.039140 0.529625 0.473423 0.030796
C26   C     C_R   0.145983 0.508929 0.497016 0.233759
C27   C     C_R   0.956658 0.483120 0.516191 -0.057890
C28   C     C_R   0.489517 0.508907 0.650247 0.855345
C29   C     C_R   0.983539 0.409304 0.574477 0.126565
C30   C     C_R   0.088465 0.389841 0.595025 -0.280396
C31   C     C_R   0.168224 0.438756 0.556507 -0.187631
C32   C     C_R   0.848937 0.505565 0.506188 0.179913
C33   C     C_R   0.799928 0.368828 0.592027 0.198585
C34   C     C_R   0.579408 0.611687 0.773623 0.153371
C35   C     C_R   0.521100 0.506657 0.264334 -0.032777
C36   C     C_R   0.430056 0.521165 0.209765 -0.212016
C37   C     C_R   0.439253 0.540385 0.130233 -0.152690
C38   C     C_R   0.539926 0.546239 0.104465 0.209268
C39   C     C_R   0.629917 0.526862 0.157775 -0.181365
C40   C     C_3   0.674800 0.651874 0.732848 -0.831719
C41   C     C_R   0.401318 0.511504 0.769262 -0.254839
C42   C     C_R   0.396673 0.546186 0.846146 -0.181768
C43   C     C_R   0.483583 0.610591 0.888209 0.104028
C44   C     C_2   0.551274 0.565729 0.020908 -0.238394
C45   C     C_2   0.486985 0.620878 0.974380 -0.250521
H1    H     H_    0.351838 0.519052 0.228549 0.157393
H2    H     H_    0.108758 0.334990 0.640595 0.142546
H3    H     H_    0.925359 0.294709 0.654292 0.157881
H4    H     H_    0.275531 0.651780 0.368365 0.140151
H5    H     H_    0.941955 0.596663 0.373825 0.138435
H6    H     H_    0.090647 0.681522 0.315542 0.147849
H7    H     H_    0.245862 0.415798 0.571205 0.220624
H8    H     H_    0.333722 0.460148 0.737841 0.155252
H9    H     H_    0.425573 0.657442 0.997234 0.155793
H10   H     H_    0.707468 0.528681 0.137892 0.125605
H11   H     H_    0.692074 0.495624 0.278578 0.148338
H12   H     H_    0.327593 0.518179 0.874656 0.148252
H13   H     H_    0.610677 0.528716 0.995402 0.155791
H14   H     H_    0.367268 0.549500 0.089146 0.124785
H15   H     H_    0.208270 0.220726 0.587114 0.165185
H16   H     H_    0.154162 0.187675 0.491173 0.191701
H17   H     H_    0.673480 0.346273 0.654556 0.230659
H18   H     H_    0.675440 0.253468 0.582722 0.207189
H19   H     H_    0.731888 0.712160 0.768786 0.248017
H20   H     H_    0.720765 0.588618 0.721958 0.250838
H21   H     H_    0.646352 0.686554 0.675211 0.226978
H22   H     H_    0.789103 0.584184 0.409425 0.177088
H23   H     H_    0.290584 0.871260 0.607389 0.149922
H24   H     H_    0.879637 0.658743 0.482404 0.160734
H25   H     H_    0.696704 0.684255 0.944218 0.188534
H26   H     H_    0.627042 0.781534 0.912950 0.191891
H27   H     H_    0.217383 0.028488 0.570452 0.134917
H28   H     H_    0.547941 0.163663 0.461446 0.157471
H29   H     H_    0.753991 0.786491 0.485951 0.161539
H30   H     H_    0.682291 0.089930 0.492465 0.127833
H31   H     H_    0.806962 0.971286 0.476731 0.139632
H32   H     H_    0.427656 0.762061 0.603387 0.173453
N1    N     N_R   0.774070 0.445420 0.541180 -0.111738
N2    N     N_R   0.226730 0.554050 0.459240 -0.134935
N3    N     N_3   0.223933 0.221778 0.527887 -0.449380
N4    N     N_3   0.721298 0.303164 0.627080 -0.468005
N5    N     N_3   0.817748 0.597188 0.470531 -0.416114
N6    N     N_3   0.659753 0.718639 0.893779 -0.471355
O1    O     O_R   0.631480 0.627510 0.519670 -0.588642
O2    O     O_R   0.455770 0.662400 0.493360 -0.614132
O3    O     O_R   0.598240 0.480510 0.398910 -0.613997
O4    O     O_R   0.422540 0.515400 0.372600 -0.623375
O5    O     O_R   0.544230 0.337600 0.506640 -0.634359
O6    O     O_R   0.368520 0.372490 0.480330 -0.598918
O7    O     O_R   0.577460 0.484600 0.627400 -0.625429
O8    O     O_R   0.401760 0.519490 0.601090 -0.641508
Zn1   Zn    Zn3+2 0.617320 0.476700 0.517570 0.930906
Zn2   Zn    Zn3+2 0.382680 0.523300 0.482430 0.933791

loop_
_geom_bond_atom_site_label_1
_geom_bond_atom_site_label_2
_ccdc_geom_bond_type
C27   C29   A    
C41   C42   A    
C35   C36   A    
C31   H7    S    
C21   H4    S    
C7    C8    A    
C4    O4    A    
C15   H32   S    
C1    O1    A    
C6    C19   A    
C29   C30   A    
C23   N6    S    
H18   N4    S    
C34   C40   S    
C36   C37   A    
N2    Zn2   S    
C10   C15   A    
C30   C31   A    
C33   N1    A    
C4    O3    A    
H16   N3    S    
C23   C43   A    
C3    C18   A    
C5    C16   S    
H24   N5    S    
O2    Zn2   S    
C39   H10   S    
C37   H14   S    
O5    Zn1   S    
C44   H13   S    
C8    C9    A    
C36   H1    S    
C9    C10   A    
C3    C13   A    
C2    C34   A    
C4    C35   S    
C26   C31   A    
C40   H21   S    
C13   C14   A    
C17   H28   S    
C42   H12   S    
C6    H29   S    
H26   N6    S    
C20   C29   A    
C24   H5    S    
C1    C19   S    
C30   H2    S    
C24   C25   A    
C5    C18   A    
N1    Zn1   S    
C25   C26   A    
C8    H30   S    
C38   C44   S    
C37   C38   A    
O8    Zn2   S    
C43   C45   S    
O7    Zn1   S    
C10   C19   A    
C23   C34   A    
C21   N2    A    
C20   H3    S    
C12   C35   A    
H25   N6    S    
C9    C11   A    
C41   H8    S    
C6    C7    A    
C20   C33   A    
H17   N4    S    
C45   H9    S    
C40   H20   S    
C22   C24   A    
C1    O2    A    
C42   C43   A    
C44   C45   D    
C11   C17   A    
H15   N3    S    
C27   C32   A    
C28   O7    A    
C7    H31   S    
C25   C27   A    
C32   N5    S    
C26   N2    A    
C40   H19   S    
C12   C39   A    
C3    H27   S    
C2    C41   A    
O3    Zn1   S    
C11   C13   A    
C38   C39   A    
O4    Zn2   S    
C12   H11   S    
C28   O8    A    
O6    Zn2   S    
C32   N1    A    
C16   O6    A    
C5    C17   A    
H22   N5    S    
C18   N3    S    
C16   O5    A    
C14   H23   S    
C14   C15   A    
C2    C28   S    
O1    Zn1   S    
C21   C22   A    
C33   N4    S    
C22   H6    S    
