data_mof_unit_15511.cif
_audit_creation_date              2012-12-10T17:03:54-0500
_audit_creation_method            fapswitch 2.2
_symmetry_space_group_name_H-M    P1
_symmetry_Int_Tables_number       1
_space_group_crystal_system       triclinic
_cell_length_a                    9.895032
_cell_length_b                    11.029104
_cell_length_c                    15.775972
_cell_angle_alpha                 96.297952
_cell_angle_beta                  78.434284
_cell_angle_gamma                 111.162478
_cell_volume                      1571.66147362

loop_
_atom_site_label
_atom_site_type_symbol
_atom_type_description
_atom_site_fract_x
_atom_site_fract_y
_atom_site_fract_z
_atom_type_partial_charge
C1    C     C_R   0.556103 0.745248 0.506242 0.885701
C2    C     C_R   0.443946 0.254752 0.493691 0.885499
C3    C     C_R   0.325066 0.441691 0.078446 -0.170853
C4    C     C_R   0.675001 0.557765 0.921532 -0.170559
C5    C     C_R   0.221288 0.402253 0.024330 -0.107677
C6    C     C_R   0.778759 0.597392 0.975667 -0.107131
C7    C     C_2   0.585609 0.884644 0.512819 -0.300056
C8    C     C_2   0.414625 0.115375 0.486918 -0.299320
C9    C     C_2   0.489801 0.931416 0.492564 -0.098166
C10   C     C_2   0.510895 0.068702 0.506680 -0.098557
C11   C     C_2   0.925466 0.490884 0.490851 0.030224
C12   C     C_2   0.074910 0.509757 0.508786 0.030478
C13   C     C_R   0.409540 0.480398 0.662503 0.829996
C14   C     C_R   0.590458 0.519640 0.337506 0.830458
C15   C     C_R   0.351713 0.455934 0.755640 -0.125456
C16   C     C_R   0.648267 0.544139 0.244381 -0.125548
C17   C     C_R   0.157871 0.366739 0.878641 -0.078595
C18   C     C_R   0.842050 0.633516 0.121409 -0.078767
C19   C     C_R   0.204006 0.379874 0.787978 -0.085262
C20   C     C_R   0.795813 0.620671 0.212091 -0.086052
C21   C     C_R   0.452401 0.505393 0.812382 -0.233709
C22   C     C_R   0.547681 0.494261 0.187605 -0.233397
C23   C     C_R   0.414398 0.476351 0.900185 0.089059
C24   C     C_R   0.585652 0.523274 0.099799 0.089169
C25   C     C_R   0.263550 0.414339 0.934523 0.062711
C26   C     C_R   0.736464 0.585480 0.065484 0.062345
C27   C     C_R   0.522654 0.509522 0.954817 0.070347
C28   C     C_R   0.477405 0.489961 0.045155 0.070563
Cu1   Cu    Cu3+1 0.362980 0.479380 0.485080 1.004816
Cu2   Cu    Cu3+1 0.637020 0.520620 0.514920 1.004845
H1    H     H_    0.438647 0.431425 0.213796 0.159160
H2    H     H_    0.561537 0.567979 0.786165 0.159254
H3    H     H_    0.606585 0.132113 0.533405 0.217797
H4    H     H_    0.394419 0.868065 0.465542 0.218314
N1    N     N_2   0.842890 0.551600 0.537350 -0.325403
N2    N     N_2   0.157110 0.448400 0.462650 -0.325602
O1    O     O_R   0.426810 0.668300 0.492040 -0.564270
O2    O     O_R   0.573190 0.331700 0.507960 -0.563360
O3    O     O_R   0.658240 0.703130 0.517240 -0.566364
O4    O     O_R   0.341760 0.296870 0.482760 -0.566705
O5    O     O_R   0.319390 0.472820 0.610170 -0.548243
O6    O     O_R   0.680610 0.527180 0.389830 -0.549265
O7    O     O_R   0.550820 0.507640 0.635370 -0.584079
O8    O     O_R   0.449180 0.492360 0.364630 -0.583619
H5    H     H_    0.106680 0.363490 0.054280 0.172375
H6    H     H_    0.893371 0.636226 0.945732 0.172536
C29   C     C_2   0.895837 0.699408 0.272479 0.920979
O9    O     O_2   0.020651 0.697731 0.264296 -0.528333
O10   O     O_R   0.847063 0.777730 0.338086 -0.759089
H7    H     H_    0.924123 0.826575 0.375214 0.336245
C30   C     C_2   0.103491 0.302021 0.727632 0.920992
O11   O     O_2   0.979378 0.305318 0.735683 -0.528935
O12   O     O_R   0.150998 0.222783 0.662181 -0.758802
H8    H     H_    0.073706 0.174691 0.625050 0.336018
C31   C     C_2   0.001742 0.294142 0.914299 0.847556
O13   O     O_2   0.907255 0.340683 0.912970 -0.552939
O14   O     O_R   0.964043 0.173925 0.950809 -0.745022
H9    H     H_    0.854703 0.134299 0.973575 0.345900
C32   C     C_2   0.998125 0.706274 0.085750 0.848607
O15   O     O_2   0.092776 0.659990 0.087227 -0.552553
O16   O     O_R   0.035591 0.826327 0.049067 -0.745090
H10   H     H_    0.144921 0.866077 0.026308 0.345894
H11   H     H_    0.281322 0.434236 0.146704 0.159577
H12   H     H_    0.718772 0.565141 0.853275 0.159637
H13   H     H_    0.316106 0.050972 0.463226 0.159682
H14   H     H_    0.683877 0.948989 0.536790 0.158933
C33   C     C_2   0.126802 0.601188 0.580822 0.906233
O17   O     O_2   0.183079 0.717640 0.568754 -0.624252
O18   O     O_R   0.092721 0.556612 0.664625 -0.737443
H15   H     H_    0.128803 0.628973 0.709075 0.325606
C34   C     C_2   0.874293 0.400727 0.418126 0.905760
O19   O     O_2   0.816288 0.284178 0.429505 -0.623954
O20   O     O_R   0.910801 0.446510 0.334544 -0.737261
H16   H     H_    0.874996 0.374970 0.289551 0.325766
H17   H     H_    0.119326 0.385534 0.412490 0.210172
H18   H     H_    0.879996 0.613347 0.588120 0.210484

loop_
_geom_bond_atom_site_label_1
_geom_bond_atom_site_label_2
_ccdc_geom_bond_type
C31   O13   D    
O20   H16   S    
C18   C26   A    
C13   O5    A    
C29   O10   S    
O12   H8    S    
C15   C19   A    
Cu1   N2    S    
Cu2   N1    S    
C3    C28   A    
C24   C26   A    
C11   C34   S    
Cu2   O2    S    
C14   C16   S    
C23   C27   A    
C12   N2    D    
C9    C10   S    
C17   C31   S    
C1    O1    A    
C14   O6    A    
C32   O15   D    
O18   H15   S    
C21   H2    S    
C21   C23   A    
C12   C33   S    
N1    H18   S    
C32   O16   S    
C22   H1    S    
C30   O11   D    
C4    C6    A    
C34   O20   S    
C5    H5    S    
C33   O17   D    
C30   O12   S    
Cu1   Cu2   S    
N2    H17   S    
C19   C30   S    
C2    O2    A    
C29   O9    D    
C15   C21   A    
C16   C20   A    
C5    C25   A    
C13   C15   S    
Cu1   O8    S    
C9    H4    S    
C22   C24   A    
Cu2   O7    S    
C13   O7    A    
C4    C27   A    
C14   O8    A    
C7    C9    D    
C16   C22   A    
C6    H6    S    
Cu1   O5    S    
C1    C7    S    
C2    C8    S    
C24   C28   A    
C3    C5    A    
C11   C12   S    
C3    H11   S    
C4    H12   S    
C17   C25   A    
C31   O14   S    
C34   O19   D    
C7    H14   S    
O14   H9    S    
C6    C26   A    
Cu1   O4    S    
C11   N1    D    
C17   C19   A    
Cu2   O3    S    
C10   H3    S    
C18   C20   A    
C23   C25   A    
O16   H10   S    
C20   C29   S    
C1    O3    A    
C2    O4    A    
C18   C32   S    
C8    H13   S    
C8    C10   D    
O10   H7    S    
Cu1   O1    S    
C27   C28   A    
Cu2   O6    S    
C33   O18   S    
