data_mof_unit_31957.cif
_audit_creation_date              2012-12-11T15:55:50-0500
_audit_creation_method            fapswitch 2.2
_symmetry_space_group_name_H-M    P1
_symmetry_Int_Tables_number       1
_space_group_crystal_system       triclinic
_cell_length_a                    6.939625
_cell_length_b                    14.572409
_cell_length_c                    16.077059
_cell_angle_alpha                 89.973596
_cell_angle_beta                  89.820138
_cell_angle_gamma                 89.889081
_cell_volume                      1625.81438505

loop_
_atom_site_label
_atom_site_type_symbol
_atom_type_description
_atom_site_fract_x
_atom_site_fract_y
_atom_site_fract_z
_atom_type_partial_charge
O1    O     O_R   0.505680 0.583900 0.413320 -0.539968
O2    O     O_R   0.176010 0.594950 0.586080 -0.540949
O3    O     O_R   0.005680 0.416100 0.586680 -0.535671
C1    C     C_R   0.343400 0.615596 0.616505 0.690501
O4    O     O_R   0.175960 0.594930 0.413930 -0.542965
O5    O     O_R   0.005640 0.416080 0.413300 -0.540394
C2    C     C_R   0.345094 0.617181 0.385021 0.688435
O6    O     O_R   0.505720 0.583920 0.586700 -0.539768
O7    O     O_3   0.339190 0.441320 0.500000 -0.370304
V1    V     V_3+5 0.064350 0.510890 0.500000 1.391760
O8    O     O_R   0.675920 0.405050 0.413920 -0.543641
C3    C     C_R   0.845189 0.382800 0.385002 0.685001
O9    O     O_R   0.675960 0.405070 0.586070 -0.543202
C4    C     C_R   0.844941 0.382430 0.614431 0.702417
V2    V     V_3+5 0.564340 0.489110 0.500000 1.390188
O10   O     O_3   0.839370 0.558680 0.500000 -0.370808
C5    C     C_R   0.011575 0.313688 0.738669 0.103621
C6    C     C_R   0.853852 0.316142 0.684468 -0.116889
C7    C     C_R   0.701001 0.255389 0.700938 -0.180431
H1    H     H_    0.577864 0.253801 0.660126 0.136428
C8    C     C_R   0.711756 0.191547 0.766654 -0.177777
H2    H     H_    0.595793 0.142929 0.774794 0.129093
C9    C     C_R   0.876167 0.186245 0.817719 -0.113108
C10   C     C_R   0.022374 0.250439 0.803705 0.111102
C11   C     C_3   0.231260 0.233637 0.788879 -0.410533
C12   C     C_3   0.219691 0.302300 0.718142 -0.404563
H3    H     H_    0.260053 0.162337 0.767578 0.165250
H4    H     H_    0.321320 0.257553 0.841629 0.178348
H5    H     H_    0.241544 0.270969 0.655763 0.170426
H6    H     H_    0.304676 0.365457 0.729934 0.168132
C13   C     C_R   0.046607 0.224449 0.217312 -0.156386
H7    H     H_    0.187214 0.205807 0.193247 0.116919
C14   C     C_R   0.035732 0.287998 0.282530 -0.152932
H8    H     H_    0.168411 0.316479 0.306498 0.118634
C15   C     C_R   0.856424 0.314453 0.316160 -0.046648
C16   C     C_R   0.688299 0.275556 0.282639 -0.156799
H9    H     H_    0.547692 0.294200 0.306702 0.116697
C17   C     C_R   0.699174 0.212006 0.217421 -0.152427
H10   H     H_    0.566495 0.183525 0.193454 0.118605
C18   C     C_R   0.878483 0.185547 0.183794 -0.046731
C19   C     C_R   0.191609 0.697604 0.742907 0.144880
C20   C     C_R   0.208872 0.763799 0.806133 -0.181544
H11   H     H_    0.089260 0.775072 0.848453 0.121510
C21   C     C_R   0.379094 0.813640 0.817628 -0.068247
C22   C     C_R   0.535027 0.797374 0.764036 -0.170677
H12   H     H_    0.668047 0.835324 0.771058 0.119889
C23   C     C_R   0.519582 0.733640 0.699301 -0.195897
H13   H     H_    0.641079 0.725209 0.657653 0.123509
C24   C     C_R   0.349660 0.682643 0.687081 -0.062403
C25   C     C_R   0.188251 0.724441 0.282411 -0.157071
H14   H     H_    0.047575 0.705838 0.306277 0.116729
C26   C     C_R   0.199332 0.787977 0.217187 -0.152006
H15   H     H_    0.066655 0.816508 0.193005 0.118863
C27   C     C_R   0.378803 0.814361 0.183825 -0.046441
C28   C     C_R   0.546880 0.775415 0.217586 -0.156476
H16   H     H_    0.687551 0.794019 0.193716 0.116828
C29   C     C_R   0.535798 0.711874 0.282813 -0.152298
H17   H     H_    0.668469 0.683340 0.306997 0.118911
C30   C     C_R   0.356324 0.685503 0.316182 -0.047458
O11   O     O_R   0.229200 0.915950 0.913350 -0.541247
O12   O     O_R   0.559090 0.905000 0.086080 -0.543121
O13   O     O_R   0.729280 0.083880 0.086680 -0.540355
C31   C     C_R   0.389985 0.882708 0.115005 0.686546
O14   O     O_R   0.558920 0.904980 0.913920 -0.543039
O15   O     O_R   0.729110 0.083860 0.913300 -0.540198
C32   C     C_R   0.390331 0.882883 0.885149 0.692953
O16   O     O_R   0.229360 0.915970 0.086730 -0.540972
O17   O     O_3   0.395680 0.058580 0.000030 -0.369069
V3    V     V_3+5 0.670570 0.989070 0.999990 1.396762
O18   O     O_R   0.058820 0.094950 0.913870 -0.539636
C33   C     C_R   0.889789 0.116555 0.884752 0.696920
O19   O     O_R   0.058990 0.094970 0.086020 -0.543421
C34   C     C_R   0.889724 0.117192 0.114957 0.686029
V4    V     V_3+5 0.170560 0.010930 0.999930 1.397264
O20   O     O_3   0.895590 0.941310 0.999960 -0.370427
C35   C     C_3   0.005121 0.643347 0.740857 -0.364569
C36   C     C_3   0.035359 0.545106 0.770685 -0.718354
H18   H     H_    0.138991 0.508611 0.729966 0.218283
H19   H     H_    0.091136 0.544851 0.835371 0.217806
H20   H     H_    0.895774 0.508037 0.769633 0.204771
H21   H     H_    0.895361 0.674846 0.782556 0.171968
H22   H     H_    0.938703 0.644872 0.678423 0.195846

loop_
_geom_bond_atom_site_label_1
_geom_bond_atom_site_label_2
_ccdc_geom_bond_type
C28   H16   S    
C19   C20   A    
C4    C6    S    
C21   C32   S    
C15   C16   A    
C1    O6    A    
C23   C24   A    
C22   H12   S    
C18   C34   S    
C11   H4    S    
C5    C12   S    
C16   H9    S    
C7    C8    A    
O5    C3    A    
C17   H10   S    
C29   C30   A    
C27   C31   S    
O17   V4    S    
V2    O10   S    
C13   C18   A    
C6    C7    A    
C19   C24   A    
O12   C31   A    
O8    V2    S    
C13   H7    S    
O17   V3    S    
O18   V4    S    
C25   C26   A    
C9    C10   A    
C13   C14   A    
O13   C34   A    
O18   C33   A    
O1    V2    S    
O7    V1    S    
C22   C23   A    
O11   C32   A    
C8    H2    S    
C20   C21   A    
C2    C30   S    
C26   C27   A    
C14   H8    S    
C36   H19   S    
C8    C9    A    
C31   O16   A    
C5    C10   A    
V4    O20   S    
C9    C33   S    
C10   C11   S    
O19   V4    S    
C35   H22   S    
O4    C2    A    
C25   H14   S    
C11   C12   S    
C36   H18   S    
O13   V3    S    
O14   C32   A    
O2    C1    A    
C23   H13   S    
C5    C6    A    
O16   V4    S    
O14   V3    S    
C35   C36   S    
C3    C15   S    
O3    C4    A    
C12   H6    S    
O6    V2    S    
C28   C29   A    
C20   H11   S    
C25   C30   A    
C16   C17   A    
O2    V1    S    
C21   C22   A    
C36   H20   S    
O12   V3    S    
C27   C28   A    
O1    C2    A    
O19   C34   A    
C35   H21   S    
O5    V1    S    
O8    C3    A    
C11   H3    S    
C1    C24   S    
C7    H1    S    
O9    V2    S    
O7    V2    S    
O4    V1    S    
O3    V1    S    
O15   C33   A    
C19   C35   S    
C17   C18   A    
C29   H17   S    
O15   V3    S    
O11   V4    S    
C14   C15   A    
V3    O20   S    
C12   H5    S    
V1    O10   S    
O9    C4    A    
C26   H15   S    
