data_mof_unit_7452.cif
_audit_creation_date              2012-12-10T17:17:25-0500
_audit_creation_method            fapswitch 2.2
_symmetry_space_group_name_H-M    P1
_symmetry_Int_Tables_number       1
_space_group_crystal_system       triclinic
_cell_length_a                    10.266849
_cell_length_b                    10.892226
_cell_length_c                    12.562631
_cell_angle_alpha                 91.675889
_cell_angle_beta                  111.105063
_cell_angle_gamma                 95.155489
_cell_volume                      1302.45440471

loop_
_atom_site_label
_atom_site_type_symbol
_atom_type_description
_atom_site_fract_x
_atom_site_fract_y
_atom_site_fract_z
_atom_type_partial_charge
C1    C     C_R   0.050886 0.731456 0.493315 0.940057
C2    C     C_R   0.405743 0.447668 0.995450 0.076602
C3    C     C_R   0.324160 0.430166 0.878543 0.030742
C4    C     C_R   0.547886 0.427067 0.028530 0.075628
C5    C     C_R   0.593986 0.353694 0.956842 0.154548
C6    C     C_R   0.499519 0.310106 0.849200 -0.208643
C7    C     C_R   0.367051 0.350952 0.809255 -0.175838
C8    C     C_R   0.647253 0.488249 0.125785 -0.245638
C9    C     C_R   0.828386 0.377118 0.100021 -0.193338
C10   C     C_R   0.202813 0.492099 0.835724 -0.114622
C11   C     C_2   0.084953 0.862811 0.500444 -0.340557
C12   C     C_R   0.133837 0.504779 0.713221 0.857294
C13   C     C_2   0.000706 0.934902 0.526942 -0.213950
C14   C     C_2   0.929992 0.137582 0.520669 -0.473253
C15   C     C_2   0.036448 0.066323 0.546146 0.063027
C16   C     C_2   0.436279 0.506387 0.520845 0.132829
C17   C     C_2   0.572844 0.476015 0.510730 -0.140035
C18   C     C_R   0.952943 0.268903 0.512129 0.930341
C19   C     C_R   0.864236 0.486687 0.286800 0.874776
C20   C     C_R   0.734432 0.328605 0.993253 -0.193960
C21   C     C_R   0.783084 0.456060 0.166783 -0.064938
C22   C     C_R   0.149398 0.546198 0.911956 -0.212918
C23   C     C_R   0.213408 0.535986 0.028794 -0.191827
C24   C     C_R   0.340254 0.483307 0.072691 0.173326
H1    H     H_    0.934331 0.350940 0.131194 0.165196
H2    H     H_    0.901805 0.897582 0.532920 0.184016
H3    H     H_    0.821848 0.096229 0.495009 0.153877
H4    H     H_    0.181233 0.899974 0.490144 0.168488
H5    H     H_    0.577421 0.384238 0.477303 0.151208
H6    H     H_    0.671087 0.645023 0.544070 0.200892
H7    H     H_    0.315630 0.380532 0.395584 0.172112
H8    H     H_    0.530689 0.251558 0.793304 0.157409
H9    H     H_    0.770473 0.270335 0.940444 0.144995
H10   H     H_    0.619978 0.561777 0.170732 0.148430
H11   H     H_    0.054717 0.592179 0.881055 0.173632
H12   H     H_    0.162212 0.567577 0.084774 0.146811
H13   H     H_    0.299445 0.319968 0.723757 0.201048
N1    N     N_2   0.313640 0.446500 0.454900 -0.220096
N2    N     N_2   0.686360 0.553430 0.545150 -0.198172
O1    O     O_R   0.936910 0.692950 0.509080 -0.614543
O2    O     O_R   0.138320 0.658600 0.480130 -0.633741
O3    O     O_R   0.002900 0.525670 0.675280 -0.598477
O4    O     O_R   0.204310 0.491320 0.646330 -0.660504
O5    O     O_R   0.861680 0.341400 0.519870 -0.607762
O6    O     O_R   0.063090 0.307050 0.490920 -0.563559
O7    O     O_R   0.795690 0.508680 0.353670 -0.612449
O8    O     O_R   0.997100 0.474330 0.324720 -0.611774
Zn1   Zn    Zn3+2 0.865520 0.522940 0.519330 0.934509
Zn2   Zn    Zn3+2 0.134480 0.477060 0.480670 0.935167
C25   C     C_3   0.445289 0.585431 0.627235 -0.273695
C26   C     C_3   0.567568 0.684603 0.687557 -0.981198
H14   H     H_    0.668432 0.644046 0.724782 0.276873
H15   H     H_    0.572502 0.758862 0.629983 0.258524
H16   H     H_    0.548956 0.729177 0.760779 0.265216
H17   H     H_    0.354297 0.637480 0.606097 0.267705
H18   H     H_    0.446681 0.520715 0.693514 0.228704
C27   C     C_3   0.384483 0.443819 0.194735 -0.444105
C28   C     C_3   0.388303 0.303777 0.198348 -0.818258
H19   H     H_    0.416616 0.276504 0.287535 0.231532
H20   H     H_    0.283698 0.255331 0.145907 0.263612
H21   H     H_    0.468141 0.273086 0.166016 0.267509
H22   H     H_    0.485876 0.491695 0.252263 0.215580
H23   H     H_    0.307432 0.469149 0.232578 0.200009
C29   C     C_2   0.188354 0.111340 0.597843 0.921058
O9    O     O_2   0.253819 0.089991 0.696789 -0.653225
O10   O     O_R   0.259280 0.162449 0.530421 -0.797487
H24   H     H_    0.363352 0.184500 0.574938 0.315282

loop_
_geom_bond_atom_site_label_1
_geom_bond_atom_site_label_2
_ccdc_geom_bond_type
C2    C4    A    
C15   C29   S    
C27   H23   S    
C6    C7    A    
C18   O5    A    
C14   H3    S    
C17   H5    S    
C14   C18   S    
C9    C20   A    
C6    H8    S    
C25   H17   S    
C1    C11   S    
H7    N1    S    
C4    C8    A    
C23   C24   A    
C26   H16   S    
C29   O9    D    
C28   H21   S    
C8    C21   A    
C7    H13   S    
C19   O7    A    
C9    H1    S    
C27   H22   S    
O8    Zn2   S    
N1    Zn2   S    
C8    H10   S    
C25   H18   S    
C10   C22   A    
C22   H11   S    
C11   C13   D    
C9    C21   A    
C27   C28   S    
C16   C17   S    
C12   O3    A    
C10   C12   S    
C11   H4    S    
C20   H9    S    
O2    Zn2   S    
C19   C21   S    
C16   C25   S    
H6    N2    S    
C2    C3    A    
C12   O4    A    
C3    C7    A    
C13   C15   S    
C2    C24   A    
C5    C6    A    
C5    C20   A    
C13   H2    S    
O7    Zn1   S    
C26   H15   S    
C28   H20   S    
C26   H14   S    
C18   O6    A    
O10   H24   S    
O1    Zn1   S    
C23   H12   S    
C17   N2    D    
C19   O8    A    
C1    O2    A    
C3    C10   A    
C14   C15   D    
C4    C5    A    
O3    Zn1   S    
O6    Zn2   S    
C1    O1    A    
C25   C26   S    
C28   H19   S    
C22   C23   A    
O4    Zn2   S    
O5    Zn1   S    
C16   N1    D    
C24   C27   S    
N2    Zn1   S    
C29   O10   S    
