data_mof_unit_36299.cif
_audit_creation_date              2012-12-10T16:42:57-0500
_audit_creation_method            fapswitch 2.2
_symmetry_space_group_name_H-M    P1
_symmetry_Int_Tables_number       1
_space_group_crystal_system       triclinic
_cell_length_a                    7.543262
_cell_length_b                    8.679924
_cell_length_c                    13.077119
_cell_angle_alpha                 88.915052
_cell_angle_beta                  78.376002
_cell_angle_gamma                 100.670062
_cell_volume                      822.754478326

loop_
_atom_site_label
_atom_site_type_symbol
_atom_type_description
_atom_site_fract_x
_atom_site_fract_y
_atom_site_fract_z
_atom_type_partial_charge
C1    C     C_R   0.459532 0.202932 0.492664 0.819168
C2    C     C_R   0.540468 0.797068 0.507336 0.819168
C3    C     C_R   0.467048 0.495516 0.700969 0.832307
C4    C     C_R   0.532952 0.504484 0.299031 0.832307
C5    C     C_R   0.547177 0.501017 0.185800 -0.142177
C6    C     C_R   0.452823 0.498983 0.814199 -0.142177
C7    C     C_R   0.269223 0.528432 0.983989 -0.192099
C8    C     C_R   0.730777 0.471568 0.016011 -0.192099
C9    C     C_R   0.286222 0.517796 0.877287 -0.293869
C10   C     C_R   0.713778 0.482204 0.122713 -0.293869
C11   C     C_R   0.606278 0.490899 0.859753 0.465511
C12   C     C_R   0.393722 0.509100 0.140247 0.465512
C13   C     C_R   0.584743 0.490141 0.968751 0.006082
C14   C     C_R   0.415257 0.509858 0.031249 0.006082
C15   C     C_2   0.458204 0.039488 0.470677 0.199478
C16   C     C_2   0.541796 0.960512 0.529323 0.199477
Cu1   Cu    Cu3+1 0.686350 0.517570 0.488220 0.974482
Cu2   Cu    Cu3+1 0.313650 0.482430 0.511780 0.974482
H1    H     H_    0.831048 0.473611 0.156106 0.196745
H2    H     H_    0.168952 0.526389 0.843894 0.196745
H3    H     H_    0.140411 0.549766 0.029306 0.186110
H4    H     H_    0.859589 0.450234 0.970694 0.186110
N1    N     N_2   0.033570 0.455950 0.529530 -0.262258
N2    N     N_2   0.966430 0.544050 0.470470 -0.262258
O1    O     O_R   0.621060 0.286250 0.492350 -0.610151
O2    O     O_R   0.378940 0.713750 0.507650 -0.610151
O3    O     O_R   0.306310 0.256580 0.512240 -0.628082
O4    O     O_R   0.693690 0.743420 0.487760 -0.628081
O5    O     O_R   0.631800 0.512400 0.642670 -0.554407
O6    O     O_R   0.368200 0.487600 0.357330 -0.554407
O7    O     O_R   0.317060 0.482730 0.662570 -0.590566
O8    O     O_R   0.682940 0.517270 0.337430 -0.590565
O9    O     O_3   0.225406 0.523483 0.201345 -0.533316
C17   C     C_3   0.111328 0.372927 0.221009 -0.289799
H5    H     H_    0.985498 0.380679 0.279774 0.202104
H6    H     H_    0.179635 0.287974 0.254061 0.130980
H7    H     H_    0.069004 0.326747 0.149148 0.140128
O10   O     O_3   0.774594 0.476517 0.798655 -0.533316
C18   C     C_3   0.888672 0.627072 0.778991 -0.289799
H8    H     H_    0.820364 0.712025 0.745939 0.130980
H9    H     H_    0.014503 0.619321 0.720226 0.202105
H10   H     H_    0.930995 0.673253 0.850852 0.140128
C19   C     C_2   0.935755 0.302095 0.558023 0.845119
H11   H     H_    0.910113 0.220996 0.498199 -0.025126
O11   O     O_2   0.898177 0.255292 0.649684 -0.523568
C20   C     C_2   0.064245 0.697905 0.441977 0.845118
H12   H     H_    0.089887 0.779004 0.501801 -0.025125
O12   O     O_2   0.101823 0.744708 0.350315 -0.523569
O13   O     O_3   0.406625 0.970724 0.382309 -0.596399
C21   C     C_3   0.338909 0.071293 0.320908 -0.247887
H13   H     H_    0.443013 0.179680 0.293150 0.114337
H14   H     H_    0.206201 0.096493 0.364827 0.155817
H15   H     H_    0.310945 0.010802 0.250249 0.221337
O14   O     O_3   0.593375 0.029276 0.617691 -0.596399
C22   C     C_3   0.661091 0.928706 0.679092 -0.247887
H16   H     H_    0.793799 0.903507 0.635173 0.155817
H17   H     H_    0.556987 0.820320 0.706850 0.114337
H18   H     H_    0.689054 0.989198 0.749751 0.221337

loop_
_geom_bond_atom_site_label_1
_geom_bond_atom_site_label_2
_ccdc_geom_bond_type
C11   O10   S    
C21   H14   S    
C22   H16   S    
C8    C13   A    
Cu2   O6    S    
C17   H7    S    
C2    C16   S    
C9    H2    S    
C8    H4    S    
Cu2   O2    S    
C10   H1    S    
N1    N2    D    
C3    C6    S    
Cu1   O1    S    
Cu1   O4    S    
C6    C9    A    
C15   O13   S    
Cu1   Cu2   S    
N2    C20   S    
C5    C10   A    
C2    O2    A    
C7    H3    S    
C13   C14   A    
C3    O7    A    
C1    O1    A    
C19   O11   D    
C6    C11   A    
C1    O3    A    
C4    O8    A    
C1    C15   S    
C8    C10   A    
C12   C14   A    
C21   H13   S    
C18   H10   S    
C17   H6    S    
C22   H17   S    
C19   H11   S    
O9    C17   S    
C17   H5    S    
C16   O14   S    
C21   H15   S    
Cu2   N1    S    
Cu1   N2    S    
C20   O12   D    
C7    C9    A    
C11   C13   A    
Cu1   O5    S    
C5    C12   A    
C18   H9    S    
O13   C21   S    
C22   H18   S    
C18   H8    S    
C3    O5    A    
Cu1   O8    S    
O14   C22   S    
C2    O4    A    
Cu2   O7    S    
C12   O9    S    
C20   H12   S    
N1    C19   S    
C7    C14   A    
C4    O6    A    
Cu2   O3    S    
C15   C16   D    
C4    C5    S    
O10   C18   S    
