data_mof_unit_31955.cif
_audit_creation_date              2012-10-26T19:39:07-0400
_audit_creation_method            fapswitch 2.2
_symmetry_space_group_name_H-M    P1
_symmetry_Int_Tables_number       1
_space_group_crystal_system       triclinic
_cell_length_a                    12.156078
_cell_length_b                    12.627707
_cell_length_c                    7.521023
_cell_angle_alpha                 88.349485
_cell_angle_beta                  107.932027
_cell_angle_gamma                 90.876888
_cell_volume                      1097.93876587

loop_
_atom_site_label
_atom_site_type_symbol
_atom_type_description
_atom_site_fract_x
_atom_site_fract_y
_atom_site_fract_z
_atom_type_partial_charge
C1    C     C_R   0.345473 0.855763 0.454847 0.539072
C2    C     C_2   0.740812 0.774304 0.573894 -0.061113
C3    C     C_2   0.752253 0.211387 0.564305 -0.061631
C4    C     C_2   0.247747 0.788613 0.435695 -0.061630
C5    C     C_2   0.759188 0.725697 0.426106 -0.061113
C6    C     C_2   0.240812 0.274304 0.573894 -0.061112
C7    C     C_2   0.252253 0.711387 0.564305 -0.061631
C8    C     C_2   0.747747 0.288613 0.435695 -0.061631
C9    C     C_1   0.691149 0.745511 0.232066 0.303648
C10   C     C_1   0.308852 0.254490 0.767933 0.303650
C11   C     C_1   0.358299 0.678953 0.705729 0.209580
C12   C     C_R   0.654527 0.144237 0.545153 0.539068
C13   C     C_1   0.641700 0.321049 0.294273 0.209578
C14   C     C_1   0.191148 0.245510 0.232067 0.303647
C15   C     C_1   0.808851 0.754489 0.767933 0.303650
C16   C     C_1   0.858300 0.178952 0.705727 0.209580
C17   C     C_1   0.141700 0.821048 0.294271 0.209577
C18   C     C_2   0.354184 0.948826 0.923853 0.497559
C19   C     C_2   0.645815 0.051174 0.076146 0.497558
C20   C     C_2   0.854184 0.448826 0.923853 0.497558
C21   C     C_2   0.145815 0.551174 0.076146 0.497559
C22   C     C_R   0.652372 0.853009 0.547155 0.536660
C23   C     C_R   0.347628 0.146991 0.452845 0.536664
C24   C     C_R   0.845473 0.355763 0.454847 0.539071
C25   C     C_R   0.154527 0.644237 0.545153 0.539068
C26   C     C_R   0.152372 0.353009 0.547155 0.536660
C27   C     C_R   0.847628 0.646991 0.452845 0.536663
C28   C     C_2   0.259188 0.225696 0.426106 -0.061112
Cu1   Cu    Cu3+1 0.517640 0.000000 0.687200 1.065144
Cu2   Cu    Cu3+1 0.482360 0.000000 0.312800 1.065130
Cu3   Cu    Cu3+1 0.017640 0.500000 0.687200 1.065141
Cu4   Cu    Cu3+1 0.982360 0.500000 0.312800 1.065134
H1    H     H_    0.349967 0.863008 0.922235 0.089928
H2    H     H_    0.650027 0.136992 0.077783 0.089931
H3    H     H_    0.849969 0.363008 0.922228 0.089929
H4    H     H_    0.150028 0.636992 0.077780 0.089930
N1    N     N_2   0.455760 0.000000 0.031460 -0.179626
N2    N     N_1   0.862156 0.738874 0.922556 -0.192773
N3    N     N_1   0.942399 0.151831 0.817932 -0.223794
N4    N     N_1   0.057602 0.848168 0.182065 -0.223795
N5    N     N_2   0.544240 0.000000 0.968540 -0.179619
N6    N     N_2   0.955760 0.500000 0.031460 -0.179624
N7    N     N_2   0.044240 0.500000 0.968540 -0.179621
N8    N     N_1   0.637845 0.761126 0.077443 -0.192773
N9    N     N_1   0.362157 0.238875 0.922556 -0.192775
N10   N     N_1   0.442398 0.651833 0.817936 -0.223794
N11   N     N_1   0.557601 0.348170 0.182069 -0.223793
N12   N     N_1   0.137844 0.261125 0.077444 -0.192775
O1    O     O_R   0.398880 0.887420 0.621600 -0.524647
O2    O     O_R   0.630920 0.112580 0.694560 -0.527285
O3    O     O_R   0.630920 0.887420 0.694560 -0.477589
O4    O     O_R   0.369080 0.112580 0.305440 -0.477595
O5    O     O_R   0.869080 0.387420 0.305440 -0.527289
O6    O     O_R   0.130920 0.612580 0.694560 -0.527286
O7    O     O_R   0.130920 0.387420 0.694560 -0.477590
O8    O     O_R   0.869080 0.612580 0.305440 -0.477593
O9    O     O_2   0.268726 0.000498 0.842007 -0.494992
O10   O     O_2   0.731280 0.999503 0.157967 -0.494990
O11   O     O_2   0.768724 0.500498 0.842016 -0.494991
O12   O     O_R   0.601120 0.112580 0.378400 -0.524659
O13   O     O_2   0.231279 0.499503 0.157970 -0.494990
O14   O     O_R   0.601120 0.887420 0.378400 -0.498131
O15   O     O_R   0.398880 0.112580 0.621600 -0.498121
O16   O     O_R   0.898880 0.387420 0.621600 -0.524652
O17   O     O_R   0.101120 0.612580 0.378400 -0.524657
O18   O     O_R   0.101120 0.387420 0.378400 -0.498130
O19   O     O_R   0.898880 0.612580 0.621600 -0.498125
O20   O     O_R   0.369080 0.887420 0.305440 -0.527292

loop_
_geom_bond_atom_site_label_1
_geom_bond_atom_site_label_2
_ccdc_geom_bond_type
C6    C10   S    
C20   N6    S    
Cu1   O15   S    
C15   N2    T    
C5    C9    S    
C8    C13   S    
C22   O14   A    
C17   N4    T    
C18   O9    D    
C21   O13   D    
Cu3   Cu4   S    
C7    C25   S    
C5    C27   S    
C1    C4    S    
Cu1   N5    S    
C26   O7    A    
Cu4   O17   S    
C10   N9    T    
C23   O15   A    
C6    C26   S    
C25   O17   A    
C24   O16   A    
C21   H4    S    
Cu1   O1    S    
C2    C22   S    
C20   O11   D    
C7    C11   S    
C2    C15   S    
C23   O4    A    
Cu1   Cu2   S    
Cu3   N7    S    
C4    C7    D    
C4    C17   S    
C8    C24   S    
C18   N1    S    
Cu1   O2    S    
Cu2   O14   S    
C19   O10   D    
N1    N5    D    
C18   H1    S    
C6    C28   D    
C2    C5    D    
C23   C28   S    
N6    N7    D    
Cu3   O19   S    
C16   N3    T    
C14   C28   S    
Cu4   N6    S    
C26   O18   A    
Cu4   O5    S    
Cu3   O6    S    
C1    O20   A    
C27   O19   A    
C25   O6    A    
Cu4   O18   S    
C3    C8    D    
Cu1   O3    S    
C13   N11   T    
Cu2   O4    S    
C27   O8    A    
C22   O3    A    
C9    N8    T    
C14   N12   T    
C3    C12   S    
Cu3   O7    S    
C24   O5    A    
C21   N7    S    
C20   H3    S    
C1    O1    A    
Cu3   O16   S    
Cu4   O8    S    
Cu2   O20   S    
C3    C16   S    
C19   N5    S    
Cu2   N1    S    
Cu2   O12   S    
C12   O2    A    
C11   N10   T    
C19   H2    S    
C12   O12   A    
