data_mof_unit_39053.cif
_audit_creation_date              2012-12-10T17:18:58-0500
_audit_creation_method            fapswitch 2.2
_symmetry_space_group_name_H-M    P1
_symmetry_Int_Tables_number       1
_space_group_crystal_system       triclinic
_cell_length_a                    10.180963
_cell_length_b                    10.80902
_cell_length_c                    13.574315
_cell_angle_alpha                 92.187443
_cell_angle_beta                  100.368533
_cell_angle_gamma                 96.056404
_cell_volume                      1458.71092857

loop_
_atom_site_label
_atom_site_type_symbol
_atom_type_description
_atom_site_fract_x
_atom_site_fract_y
_atom_site_fract_z
_atom_type_partial_charge
C1    C     C_R   0.054701 0.732787 0.496565 0.952795
C2    C     C_R   0.948038 0.267807 0.509506 0.945629
C3    C     C_R   0.427581 0.474114 0.130206 -0.305372
C4    C     C_R   0.504588 0.343660 0.893535 -0.350505
C5    C     C_R   0.296311 0.502230 0.100964 0.442666
C6    C     C_R   0.640186 0.322499 0.921006 0.457818
C7    C     C_2   0.090427 0.866001 0.504635 -0.393277
C8    C     C_2   0.922675 0.136771 0.524571 -0.388758
C9    C     C_2   0.003496 0.936884 0.534348 -0.144941
C10   C     C_2   0.026216 0.069379 0.532321 -0.143021
C11   C     C_2   0.430945 0.511934 0.508174 -0.177400
C12   C     C_2   0.568876 0.489698 0.490444 -0.145780
C13   C     C_R   0.093065 0.510795 0.686090 0.862970
C14   C     C_R   0.905492 0.484525 0.313954 0.879745
C15   C     C_R   0.137888 0.502802 0.793670 -0.060363
C16   C     C_R   0.848615 0.455602 0.208049 -0.069227
C17   C     C_R   0.110452 0.531867 0.965848 -0.197249
C18   C     C_R   0.845940 0.347824 0.048189 -0.177514
C19   C     C_R   0.060331 0.536020 0.863673 -0.204614
C20   C     C_R   0.913902 0.389820 0.144228 -0.205552
C21   C     C_R   0.260407 0.457527 0.825775 -0.234067
C22   C     C_R   0.716853 0.479075 0.175431 -0.239944
C23   C     C_R   0.311177 0.449267 0.927438 0.066734
C24   C     C_R   0.642438 0.426217 0.084663 0.054952
C25   C     C_R   0.238136 0.493481 0.998733 0.044603
C26   C     C_R   0.709660 0.365221 0.017242 0.072792
C27   C     C_R   0.439237 0.409521 0.958958 0.009495
C28   C     C_R   0.503866 0.437430 0.058847 -0.000031
H1    H     H_    0.672720 0.538638 0.222928 0.155251
H2    H     H_    0.319366 0.435437 0.770296 0.158370
H3    H     H_    0.015749 0.368667 0.169025 0.202298
H4    H     H_    0.963216 0.568516 0.839698 0.156886
H5    H     H_    0.051053 0.562777 0.018651 0.173846
H6    H     H_    0.899566 0.299560 0.999388 0.193945
H7    H     H_    0.466808 0.478855 0.209819 0.157546
H8    H     H_    0.448849 0.303287 0.822509 0.156645
H9    H     H_    0.127699 0.110571 0.529625 0.190314
H10   H     H_    0.909199 0.897297 0.553535 0.188000
H11   H     H_    0.821485 0.095151 0.527312 0.152737
H12   H     H_    0.184532 0.906041 0.485637 0.152834
H13   H     H_    0.577684 0.417061 0.435371 0.170688
H14   H     H_    0.421950 0.585643 0.562269 0.171318
H15   H     H_    0.665375 0.621656 0.591046 0.158505
H16   H     H_    0.334772 0.377294 0.409873 0.177611
N1    N     N_2   0.322180 0.446120 0.460900 -0.194380
N2    N     N_2   0.677820 0.553880 0.539100 -0.194282
O1    O     O_R   0.935190 0.693030 0.507870 -0.606730
O2    O     O_R   0.064810 0.306970 0.492130 -0.606581
O3    O     O_R   0.142080 0.658430 0.482770 -0.613979
O4    O     O_R   0.857920 0.341570 0.517230 -0.620633
O5    O     O_R   0.969700 0.527180 0.651960 -0.618136
O6    O     O_R   0.030300 0.472820 0.348040 -0.583877
O7    O     O_R   0.176600 0.492580 0.626860 -0.615526
O8    O     O_R   0.823400 0.507420 0.373140 -0.613783
Zn1   Zn    Zn3+2 0.861850 0.523100 0.516760 0.918484
Zn2   Zn    Zn3+2 0.138150 0.476900 0.483240 0.937409
O9    O     O_3   0.225908 0.538101 0.173471 -0.659766
C29   C     C_3   0.242499 0.669694 0.188555 0.071815
H17   H     H_    0.143046 0.698969 0.195742 0.161669
H18   H     H_    0.274575 0.719975 0.124818 0.124162
C30   C     C_3   0.341986 0.709797 0.285925 -0.320762
H19   H     H_    0.307941 0.660867 0.348788 0.261516
H20   H     H_    0.443006 0.683964 0.279656 0.207991
C31   C     C_3   0.352652 0.850114 0.309109 -0.971381
H21   H     H_    0.391091 0.901169 0.248713 0.269070
H22   H     H_    0.423220 0.875718 0.381172 0.262753
H23   H     H_    0.252760 0.878451 0.315864 0.261609
O10   O     O_3   0.705205 0.252950 0.859753 -0.661647
C32   C     C_3   0.673300 0.276830 0.756706 0.100350
H24   H     H_    0.769227 0.292374 0.728385 0.172716
H25   H     H_    0.623928 0.363251 0.741570 0.125016
C33   C     C_3   0.589410 0.162203 0.698342 -0.342025
H26   H     H_    0.652743 0.084375 0.699268 0.221671
H27   H     H_    0.503095 0.131664 0.734760 0.225077
C34   C     C_3   0.535831 0.188843 0.589870 -0.979987
H28   H     H_    0.465803 0.261194 0.587540 0.273734
H29   H     H_    0.480268 0.102545 0.549065 0.259422
H30   H     H_    0.619855 0.221004 0.551713 0.279637

loop_
_geom_bond_atom_site_label_1
_geom_bond_atom_site_label_2
_ccdc_geom_bond_type
C4    H8    S    
C22   H1    S    
C32   C33   S    
C18   C26   A    
C15   C19   A    
C10   H9    S    
C22   C24   A    
C3    C28   A    
C24   C26   A    
C29   H18   S    
C11   H14   S    
O2    Zn2   S    
C32   H25   S    
C2    O4    A    
C13   O5    A    
C14   O6    A    
N1    Zn2   S    
O10   C32   S    
N2    Zn1   S    
C7    H12   S    
C8    H11   S    
C23   C27   A    
C9    C10   S    
O5    Zn1   S    
C29   C30   S    
C6    O10   S    
C30   H19   S    
C17   H5    S    
C33   C34   S    
C19   H4    S    
H15   N2    S    
C13   O7    A    
C31   H23   S    
C33   H27   S    
C1    O1    A    
C2    O2    A    
C29   H17   S    
C12   N2    D    
C31   H22   S    
C30   C31   S    
C34   H28   S    
C12   H13   S    
C34   H29   S    
C3    H7    S    
C16   C20   A    
C30   H20   S    
C18   H6    S    
C5    C25   A    
C4    C6    A    
C14   O8    A    
C13   C15   S    
C14   C16   S    
C11   N1    D    
C4    C27   A    
H16   N1    S    
O1    Zn1   S    
O7    Zn2   S    
C7    C9    D    
O8    Zn1   S    
C16   C22   A    
C1    C7    S    
C2    C8    S    
C24   C28   A    
C33   H26   S    
C3    C5    A    
C11   C12   S    
O3    Zn2   S    
C21   H2    S    
O4    Zn1   S    
C5    O9    S    
C17   C25   A    
C31   H21   S    
C21   C23   A    
O9    C29   S    
C6    C26   A    
C9    H10   S    
C17   C19   A    
C18   C20   A    
C23   C25   A    
C32   H24   S    
C34   H30   S    
C15   C21   A    
C8    C10   D    
C27   C28   A    
C1    O3    A    
O6    Zn2   S    
C20   H3    S    
