data_mof_unit_55932.cif
_audit_creation_date              2013-03-05T16:47:35-0500
_audit_creation_method            fapswitch 2.2
_symmetry_space_group_name_H-M    P1
_symmetry_Int_Tables_number       1
_space_group_crystal_system       triclinic
_cell_length_a                    18.149347
_cell_length_b                    18.189342
_cell_length_c                    18.318789
_cell_angle_alpha                 120.079661
_cell_angle_beta                  89.727229
_cell_angle_gamma                 119.899946
_cell_volume                      4287.58519775

loop_
_atom_site_label
_atom_site_type_symbol
_atom_site_description
_atom_site_fract_x
_atom_site_fract_y
_atom_site_fract_z
_atom_type_partial_charge
Zn1   Zn    Zn3+2 0.207400 0.586780 0.791530 1.001518
Zn2   Zn    Zn3+2 0.792600 0.413220 0.208470 1.036280
Zn3   Zn    Zn3+2 0.208510 0.413230 0.792630 0.984831
Zn4   Zn    Zn3+2 0.791490 0.586770 0.207370 0.979935
Zn5   Zn    Zn3+2 0.383150 0.586740 0.791530 0.979076
Zn6   Zn    Zn3+2 0.616850 0.413260 0.208470 1.001208
Zn7   Zn    Zn3+2 0.207400 0.413250 0.618010 1.036302
Zn8   Zn    Zn3+2 0.792600 0.586750 0.381990 1.045889
O1    O     O_3   0.251620 0.500000 0.748430 -0.504339
O2    O     O_3   0.748380 0.500000 0.251570 -0.509596
O3    O     O_R   0.134680 0.268390 0.572240 -0.630151
O4    O     O_R   0.865320 0.731610 0.427760 -0.633484
O5    O     O_R   0.306670 0.731630 0.863510 -0.638639
O6    O     O_R   0.693330 0.268370 0.136490 -0.622500
O7    O     O_R   0.135450 0.439270 0.865360 -0.647704
O8    O     O_R   0.864550 0.560730 0.134640 -0.650159
O9    O     O_R   0.429670 0.560710 0.692610 -0.643848
O10   O     O_R   0.570330 0.439290 0.307390 -0.643335
O11   O     O_R   0.308540 0.439240 0.865360 -0.648471
O12   O     O_R   0.691460 0.560760 0.134640 -0.648131
O13   O     O_R   0.133580 0.439310 0.571150 -0.575694
O14   O     O_R   0.866420 0.560690 0.428850 -0.586600
O15   O     O_R   0.430770 0.560690 0.864590 -0.635918
O16   O     O_R   0.569230 0.439310 0.135410 -0.638119
O17   O     O_R   0.133580 0.560760 0.692610 -0.668648
O18   O     O_R   0.866420 0.439240 0.307390 -0.654637
O19   O     O_R   0.134680 0.560740 0.864590 -0.627811
O20   O     O_R   0.865320 0.439260 0.135410 -0.633189
O21   O     O_R   0.306670 0.439270 0.571150 -0.624129
O22   O     O_R   0.693330 0.560730 0.428850 -0.627212
O23   O     O_R   0.135450 0.268370 0.694460 -0.642664
O24   O     O_R   0.864550 0.731630 0.305540 -0.647326
O25   O     O_R   0.429670 0.731610 0.863510 -0.632584
O26   O     O_R   0.570330 0.268390 0.136490 -0.637412
C1    C     C_R   0.112280 0.220043 0.609741 0.800069
C2    C     C_R   0.887827 0.779976 0.390265 0.795663
C3    C     C_R   0.392353 0.780689 0.886334 0.892353
C4    C     C_R   0.607481 0.219430 0.112049 0.949075
C5    C     C_R   0.111470 0.501490 0.890258 0.838013
C6    C     C_R   0.888668 0.498687 0.109860 0.838336
C7    C     C_R   0.392204 0.500089 0.607699 0.783769
C8    C     C_R   0.607785 0.500173 0.392328 0.796281
C9    C     C_R   0.393980 0.500955 0.889513 0.811551
C10   C     C_R   0.606051 0.499438 0.110824 0.811538
C11   C     C_R   0.110193 0.501104 0.607864 0.941530
C12   C     C_R   0.889683 0.498687 0.392004 0.971498
C13   C     C_3   0.067373 0.504443 0.469471 0.260959
C14   C     C_3   0.932137 0.494369 0.529580 0.270025
C15   C     C_3   0.046341 0.585298 0.502927 0.254053
C16   C     C_3   0.953331 0.413726 0.496350 0.266507
C17   C     C_3   0.946461 0.498127 0.448312 -0.234579
C18   C     C_3   0.053225 0.500962 0.550994 -0.230517
C19   C     C_3   0.967193 0.415384 0.413536 -0.361361
C20   C     C_3   0.032253 0.583603 0.585713 -0.381418
H1    H     H_    0.941054 0.346465 0.343921 0.195016
H2    H     H_    0.058437 0.652553 0.655288 0.197552
C21   C     C_3   0.445165 0.970019 0.923329 0.454454
C22   C     C_3   0.553942 0.031760 0.069002 0.450396
C23   C     C_3   0.548318 0.039362 0.955861 0.290494
C24   C     C_3   0.451082 0.962904 0.037684 0.267145
C25   C     C_3   0.550204 0.104292 0.051472 -0.222164
C26   C     C_3   0.448435 0.896302 0.941133 -0.284295
C27   C     C_3   0.446175 0.035391 0.019997 -0.353751
C28   C     C_3   0.553341 0.966175 0.972439 -0.481715
H3    H     H_    0.401444 0.061850 0.039486 0.203245
H4    H     H_    0.597155 0.938795 0.950564 0.203423
C29   C     C_3   0.413356 0.431385 0.448049 -0.096427
C30   C     C_3   0.586633 0.569320 0.552068 -0.090620
C31   C     C_3   0.482440 0.405211 0.447781 -0.149436
C32   C     C_3   0.517523 0.595479 0.552343 -0.166149
H5    H     H_    0.469079 0.327254 0.403800 0.173524
H6    H     H_    0.530781 0.673388 0.596346 0.159886
H7    H     H_    0.341310 0.374963 0.406461 0.208179
H8    H     H_    0.658655 0.625811 0.593776 0.203225
C33   C     C_3   0.551030 0.500600 0.449595 0.021091
C34   C     C_3   0.448961 0.500056 0.550497 0.022473
C35   C     C_3   0.482868 0.526832 0.449039 -0.186190
C36   C     C_3   0.517126 0.473865 0.551064 -0.175266
H9    H     H_    0.469790 0.548306 0.406019 0.150157
H10   H     H_    0.530193 0.452407 0.594104 0.153296
H11   H     H_    0.218234 0.220744 0.926804 0.178025
H12   H     H_    0.779906 0.786851 0.076662 0.180415
C37   C     C_R   0.231074 0.190832 0.800147 -0.177955
C38   C     C_R   0.767845 0.810808 0.201856 -0.200329
H13   H     H_    0.303004 0.228866 0.822528 0.153288
H14   H     H_    0.695758 0.771999 0.179989 0.151140
C39   C     C_R   0.186954 0.147175 0.712515 -0.079390
C40   C     C_R   0.812603 0.852286 0.288470 -0.075062
H15   H     H_    0.225196 0.151869 0.667560 0.120649
H16   H     H_    0.774684 0.845282 0.333200 0.116931
C41   C     C_R   0.093767 0.097748 0.683154 0.095948
C42   C     C_R   0.906026 0.902827 0.317233 0.098635
C43   C     C_R   0.045088 0.090937 0.741974 -0.230866
C44   C     C_R   0.954331 0.913187 0.258881 -0.248672
H17   H     H_    0.973024 0.051046 0.718494 0.177525
H18   H     H_    0.026644 0.953805 0.281851 0.173766
C45   C     C_R   0.089148 0.135877 0.830686 0.362036
C46   C     C_R   0.909647 0.871123 0.171350 0.364866
C47   C     C_R   0.182696 0.185848 0.859084 -0.194630
C48   C     C_R   0.815865 0.819632 0.143465 -0.200896
C49   C     C_R   0.988659 0.943314 0.534530 -0.214214
C50   C     C_R   0.012022 0.056744 0.465440 -0.215762
H19   H     H_    0.981261 0.899571 0.561347 0.193677
H20   H     H_    0.019315 0.100545 0.438712 0.193249
C51   C     C_R   0.943092 0.892364 0.445100 -0.064771
C52   C     C_R   0.057379 0.107676 0.554880 -0.069849
C53   C     C_R   0.954337 0.949753 0.409949 0.003403
C54   C     C_R   0.046225 0.050336 0.590028 0.001608
C55   C     C_R   0.667048 0.651116 0.830760 -0.178511
C56   C     C_R   0.334638 0.355232 0.173824 -0.181085
H21   H     H_    0.685269 0.619819 0.771669 0.185271
H22   H     H_    0.317893 0.387939 0.233681 0.185173
C57   C     C_R   0.620539 0.588741 0.860479 -0.199958
C58   C     C_R   0.381983 0.416913 0.143729 -0.201475
H23   H     H_    0.603558 0.510656 0.824071 0.156315
H24   H     H_    0.401027 0.495866 0.180579 0.153685
C59   C     C_R   0.595174 0.626606 0.936201 0.149661
C60   C     C_R   0.405193 0.377068 0.066830 0.137089
C61   C     C_R   0.617600 0.727859 0.982596 -0.195226
C62   C     C_R   0.380070 0.274710 0.019816 -0.180149
H25   H     H_    0.598449 0.758020 0.041290 0.138302
H26   H     H_    0.397437 0.242985 0.960130 0.160368
C63   C     C_R   0.664385 0.790382 0.953147 -0.204627
C64   C     C_R   0.332679 0.212945 0.049766 -0.188989
H27   H     H_    0.681001 0.868217 0.990048 0.150370
H28   H     H_    0.314107 0.134201 0.012297 0.174955
C65   C     C_R   0.689444 0.752649 0.876771 0.408037
C66   C     C_R   0.309369 0.252500 0.127103 0.394064
C67   C     C_R   0.592961 0.554704 0.018958 -0.265017
C68   C     C_R   0.407338 0.447553 0.982878 -0.266456
H29   H     H_    0.665084 0.596167 0.032407 0.186846
H30   H     H_    0.335253 0.406335 0.969592 0.184864
C69   C     C_R   0.550109 0.497703 0.054068 -0.045296
C70   C     C_R   0.450097 0.503988 0.947324 -0.047374
C71   C     C_R   0.455949 0.442400 0.035218 0.001553
C72   C     C_R   0.544372 0.560110 0.966836 0.000039
H31   H     H_    0.152130 0.871982 0.924924 0.179248
H32   H     H_    0.852995 0.133794 0.080740 0.160342
C73   C     C_R   0.165835 0.836414 0.017680 -0.102563
C74   C     C_R   0.828034 0.170468 0.992739 -0.132408
H33   H     H_    0.221928 0.915022 0.068489 0.201705
H34   H     H_    0.764651 0.095558 0.949813 0.184710
C75   C     C_R   0.132946 0.759202 0.033237 0.523796
C76   C     C_R   0.859817 0.245641 0.974381 0.537227
C77   C     C_R   0.062641 0.656142 0.965015 -0.002311
C78   C     C_R   0.938682 0.345379 0.035967 0.010592
C79   C     C_R   0.022174 0.632957 0.884453 -0.140892
C80   C     C_R   0.988087 0.366318 0.110661 -0.162001
H35   H     H_    0.966829 0.554399 0.832287 0.178468
H36   H     H_    0.049607 0.442271 0.157305 0.178652
C81   C     C_R   0.054459 0.710721 0.870216 -0.079701
C82   C     C_R   0.957451 0.289867 0.126265 -0.061144
H37   H     H_    0.023890 0.692202 0.807544 0.175349
H38   H     H_    0.995328 0.306651 0.184401 0.180720
C83   C     C_R   0.126622 0.812120 0.936461 -0.138575
C84   C     C_R   0.877303 0.192319 0.067686 -0.124267
C85   C     C_R   0.974202 0.568195 0.031123 -0.232270
C86   C     C_R   0.027248 0.433534 0.970332 -0.259441
H39   H     H_    0.954419 0.621339 0.054986 0.167702
H40   H     H_    0.047863 0.381203 0.947441 0.174574
C87   C     C_R   0.944763 0.496952 0.052967 -0.045941
C88   C     C_R   0.055739 0.503787 0.947479 -0.053416
C89   C     C_R   0.970903 0.427758 0.021248 0.065194
C90   C     C_R   0.029781 0.573222 0.979296 0.066998
N1    N     N_R   0.100418 0.680144 0.507084 0.240613
O27   O     O_R   0.184321 0.747908 0.557314 -0.395819
O28   O     O_R   0.065867 0.697421 0.460500 -0.399262
N2    N     N_R   0.899193 0.319091 0.492493 0.233697
O29   O     O_R   0.814144 0.253878 0.445963 -0.373914
O30   O     O_R   0.934601 0.300143 0.536626 -0.400025
N3    N     N_R   0.039311 0.130714 0.891406 0.207410
O31   O     O_R   0.080621 0.176451 0.974586 -0.370094
O32   O     O_R   0.952177 0.080395 0.864190 -0.375401
N4    N     N_R   0.959134 0.881147 0.111409 0.204366
O33   O     O_R   0.917249 0.836727 0.028783 -0.366863
O34   O     O_R   0.046578 0.935627 0.139060 -0.376962
N5    N     N_R   0.737246 0.816942 0.846240 0.220347
O35   O     O_R   0.762484 0.783171 0.776892 -0.376804
O36   O     O_R   0.756184 0.909999 0.887613 -0.399357
N6    N     N_R   0.260193 0.188752 0.157740 0.222469
O37   O     O_R   0.235554 0.223797 0.227274 -0.373866
O38   O     O_R   0.238748 0.094618 0.115837 -0.390607
N7    N     N_R   0.140020 0.510559 0.432610 0.227355
O39   O     O_R   0.143665 0.519133 0.366135 -0.370347
O40   O     O_R   0.195977 0.497605 0.459474 -0.386327
N8    N     N_R   0.857874 0.486087 0.564155 0.244569
O41   O     O_R   0.857863 0.488474 0.636297 -0.368129
O42   O     O_R   0.789503 0.471216 0.521346 -0.370700
O43   O     O_3   0.172228 0.782431 0.113020 -0.610693
C91   C     C_3   0.145374 0.837015 0.180557 0.096078
H41   H     H_    0.072459 0.803385 0.156556 0.140150
H42   H     H_    0.185769 0.919810 0.204346 0.194073
C92   C     C_3   0.161629 0.831031 0.258680 -0.296208
H43   H     H_    0.126808 0.748358 0.233929 0.234062
H44   H     H_    0.234931 0.871353 0.288186 0.254302
C93   C     C_3   0.126535 0.880567 0.330729 -0.923737
H45   H     H_    0.158870 0.962836 0.355564 0.266068
H46   H     H_    0.142102 0.877940 0.387622 0.289327
H47   H     H_    0.052421 0.837337 0.303621 0.267740
O44   O     O_3   0.809319 0.228136 0.903684 -0.614751
C94   C     C_3   0.797735 0.146029 0.820403 0.169933
H48   H     H_    0.735000 0.113040 0.772175 0.216276
H49   H     H_    0.788220 0.080887 0.820834 0.167195
C95   C     C_3   0.876204 0.186331 0.786762 -0.409556
H50   H     H_    0.891162 0.257610 0.794744 0.248500
H51   H     H_    0.936763 0.205653 0.826733 0.232530
C96   C     C_3   0.854529 0.105660 0.688531 -0.881912
H52   H     H_    0.834971 0.031648 0.677643 0.267357
H53   H     H_    0.914601 0.134604 0.667812 0.270047
H54   H     H_    0.798480 0.091044 0.646386 0.275891
N9    N     N_R   0.600409 0.080624 0.909045 0.228018
O45   O     O_R   0.638150 0.177106 0.938967 -0.376024
O46   O     O_R   0.602742 0.018717 0.832874 -0.436409
N10   N     N_R   0.400399 0.925648 0.087467 0.223330
O47   O     O_R   0.350848 0.827293 0.054287 -0.385827
O48   O     O_R   0.407231 0.991793 0.167292 -0.349730
O49   O     O_3   0.399110 0.959457 0.852672 -0.612972
C97   C     C_3   0.344583 0.856530 0.776319 0.088303
H55   H     H_    0.301138 0.854273 0.731648 0.208124
H56   H     H_    0.296914 0.803441 0.792318 0.154944
C98   C     C_3   0.400050 0.820869 0.724389 -0.372512
H57   H     H_    0.434720 0.867807 0.697965 0.274161
H58   H     H_    0.452010 0.832042 0.768219 0.236062
C99   C     C_3   0.340278 0.706621 0.646916 -0.824381
H59   H     H_    0.309143 0.657970 0.672396 0.225243
H60   H     H_    0.381210 0.684003 0.608097 0.261386
H61   H     H_    0.286708 0.692550 0.602207 0.303071
O50   O     O_3   0.607770 0.070092 0.151404 -0.598123
C100  C     C_3   0.657126 0.026765 0.136545 0.066415
H62   H     H_    0.701479 0.046808 0.097978 0.132953
H63   H     H_    0.610486 0.940946 0.100046 0.151341
C101  C     C_3   0.716891 0.071676 0.226216 -0.256795
H64   H     H_    0.763771 0.157263 0.262671 0.248166
H65   H     H_    0.674406 0.054261 0.266827 0.264563
C102  C     C_3   0.771478 0.026504 0.213856 -0.924485
H66   H     H_    0.725885 0.941180 0.179000 0.255305
H67   H     H_    0.814480 0.060953 0.280088 0.299972
H68   H     H_    0.815382 0.044126 0.174339 0.267710

loop_
_geom_bond_atom_site_label_1
_geom_bond_atom_site_label_2
_geom_bond_distance
_ccdc_geom_bond_type
C37   C39   1.396169 A    
N3    O31   1.301686 A    
C27   H3    1.110272 S    
Zn4   O8    1.932472 S    
C91   H41   1.116997 S    
Zn7   O21   1.936323 S    
C39   C41   1.402146 A    
O11   C9    1.278158 A    
O10   C8    1.281320 A    
C102  H67   1.110501 S    
C94   H48   1.110854 S    
C57   C59   1.401006 A    
C19   H1    1.110495 S    
C79   C81   1.397906 A    
C68   C71   1.373700 A    
C29   C35   1.546310 S    
C99   H59   1.110534 S    
C59   C61   1.402439 A    
C3    C26   1.491868 S    
C22   O50   1.413904 S    
C21   C26   1.557467 S    
C13   C15   1.529132 S    
C69   C71   1.412507 A    
C30   C33   1.535579 S    
Zn7   O3    1.927839 S    
C51   C53   1.416362 A    
C8    C33   1.466687 S    
N1    O27   1.299994 A    
C52   C54   1.415908 A    
C24   C27   1.548200 S    
O24   C2    1.276088 A    
C79   H35   1.083220 S    
C30   C36   1.546244 S    
C80   H36   1.083201 S    
C98   C99   1.523234 S    
N7    O40   1.299480 A    
C46   N4    1.440034 S    
N10   O48   1.300251 A    
C21   C23   1.534266 S    
Zn5   O9    1.935114 S    
C44   C46   1.406479 A    
C30   H8    1.109816 S    
C15   C20   1.549702 S    
O15   C9    1.267262 A    
C96   H53   1.110859 S    
H31   C83   1.082482 S    
C24   C26   1.546971 S    
C43   C45   1.406296 A    
C85   C87   1.397259 A    
C60   C62   1.402175 A    
C16   C18   1.537465 S    
C31   H5    1.110165 S    
C24   N10   1.458441 S    
N4    O33   1.301691 A    
C26   C28   1.560948 S    
C91   C92   1.529435 S    
C45   C47   1.405447 A    
C73   C75   1.404912 A    
C55   C65   1.407439 A    
C14   C17   1.539215 S    
C82   C84   1.396000 A    
C40   C42   1.402361 A    
C23   N9    1.456936 S    
O44   C94   1.417106 S    
N5    O36   1.301581 A    
Zn5   O25   1.924777 S    
C96   H54   1.110690 S    
Zn8   O14   1.951559 S    
C102  H66   1.110138 S    
C82   H38   1.082497 S    
Zn3   O11   1.956975 S    
C29   H7    1.109636 S    
C81   C83   1.397490 A    
O4    C2    1.287384 A    
C56   C58   1.398348 A    
O13   C11   1.269265 A    
C37   H13   1.082278 S    
C55   C57   1.398604 A    
C44   H18   1.082732 S    
C4    C25   1.486257 S    
O21   C7    1.279569 A    
C49   C54   1.383188 A    
N2    O30   1.300180 A    
C43   H17   1.080977 S    
C37   C47   1.398047 A    
C32   C35   1.547786 S    
C22   C28   1.557000 S    
C94   H49   1.113206 S    
C81   H37   1.082330 S    
C31   C36   1.547477 S    
C68   C70   1.396898 A    
C88   C90   1.417575 A    
C93   H47   1.111169 S    
C101  H65   1.111578 S    
O50   C100  1.408556 S    
C87   C89   1.416447 A    
C18   C20   1.555222 S    
C21   C27   1.554984 S    
C78   C80   1.403626 A    
C35   H9    1.110278 S    
C49   C51   1.397689 A    
Zn6   O10   1.935111 S    
C20   H2    1.110140 S    
C23   C25   1.533105 S    
C16   C19   1.549283 S    
C32   H6    1.110278 S    
C77   C79   1.404604 A    
C34   C36   1.533070 S    
C65   N5    1.439645 S    
C74   C76   1.410055 A    
Zn1   O1    1.940809 S    
C13   N7    1.458550 S    
O19   C5    1.270226 A    
C15   C17   1.537089 S    
O18   C12   1.273209 A    
N10   O47   1.299991 A    
C70   C72   1.412853 A    
H11   C47   1.080750 S    
C11   C18   1.469442 S    
C92   H44   1.112056 S    
O49   C97   1.407785 S    
Zn7   O13   1.951560 S    
C12   C17   1.468706 S    
C101  C102  1.526690 S    
O25   C3    1.287019 A    
C96   H52   1.110499 S    
C62   C64   1.397492 A    
C29   C31   1.546430 S    
C28   H4    1.110263 S    
C14   C20   1.548515 S    
C9    C70   1.434421 S    
C68   H30   1.084061 S    
N7    O39   1.300352 A    
N9    O45   1.300126 A    
C15   N1    1.458167 S    
C100  H62   1.113652 S    
Zn3   O1    1.950028 S    
C41   C43   1.404488 A    
C67   C72   1.373905 A    
N3    O32   1.301624 A    
C76   O44   1.387669 S    
C42   C53   1.482196 S    
C97   H56   1.102388 S    
C98   H57   1.111287 S    
Zn5   O15   1.953895 S    
C95   C96   1.526574 S    
C73   C83   1.397476 A    
C56   H22   1.082497 S    
Zn8   O4    1.927838 S    
C92   C93   1.526949 S    
Zn6   O16   1.953895 S    
Zn7   O1    1.954144 S    
C42   C44   1.405354 A    
C75   O43   1.383274 S    
C50   C53   1.382948 A    
Zn2   O18   1.958044 S    
C58   C60   1.400880 A    
C73   H33   1.082085 S    
C5    C88   1.453185 S    
C50   H20   1.085024 S    
C33   C35   1.533512 S    
C85   C90   1.383184 A    
O7    C5    1.284536 A    
Zn4   O24   1.929917 S    
C61   H25   1.083101 S    
C86   C89   1.381597 A    
O8    C6    1.283864 A    
C66   N6    1.439411 S    
C14   N8    1.457940 S    
C76   C78   1.409841 A    
N2    O29   1.299929 A    
N9    O46   1.299525 A    
C95   H51   1.110082 S    
O12   C10   1.277580 A    
C46   C48   1.405202 A    
C39   H15   1.083121 S    
C32   C34   1.533118 S    
O16   C10   1.267999 A    
C102  H68   1.110943 S    
O23   C1    1.276028 A    
Zn8   O2    1.954144 S    
Zn1   O5    1.932378 S    
C85   H39   1.084150 S    
O6    C4    1.282533 A    
Zn2   O2    1.940812 S    
C99   H61   1.109492 S    
O17   C11   1.275206 A    
C63   C65   1.406426 A    
Zn3   O7    1.932474 S    
N6    O37   1.301400 A    
C62   H26   1.083230 S    
C97   C98   1.537023 S    
C64   H28   1.082426 S    
C49   H19   1.084947 S    
H32   C84   1.082122 S    
C10   C69   1.434583 S    
C75   C77   1.409320 A    
C91   H42   1.113465 S    
C67   C69   1.397595 A    
N6    O38   1.301313 A    
O14   C12   1.270708 A    
C2    C51   1.449496 S    
O26   C4    1.282286 A    
H12   C48   1.080377 S    
C41   C54   1.481858 S    
C25   C27   1.547531 S    
O22   C8    1.279695 A    
C80   C82   1.396660 A    
Zn4   O2    1.950025 S    
C40   H16   1.083109 S    
C93   H45   1.111413 S    
C23   C28   1.548936 S    
C99   H60   1.110508 S    
Zn6   O2    1.955908 S    
C38   C48   1.397590 A    
C58   H24   1.083114 S    
Zn1   O17   1.958046 S    
C13   C18   1.541134 S    
C74   H34   1.081725 S    
C77   C90   1.481946 S    
C61   C63   1.397585 A    
C100  C101  1.526670 S    
C78   C89   1.479812 S    
C45   N3    1.440358 S    
C64   C66   1.407028 A    
C98   H58   1.108090 S    
Zn8   O22   1.936324 S    
N5    O35   1.301430 A    
O3    C1    1.287272 A    
C6    C87   1.453506 S    
C100  H63   1.114496 S    
C1    C52   1.449285 S    
Zn3   O23   1.929917 S    
C16   N2    1.458082 S    
C86   H40   1.084128 S    
C97   H55   1.110534 S    
C38   C40   1.395666 A    
C21   O49   1.418401 S    
O5    C3    1.279886 A    
C22   C25   1.537014 S    
C13   C19   1.548343 S    
C55   H21   1.082474 S    
C14   C16   1.528198 S    
C101  H64   1.111832 S    
C94   C95   1.532656 S    
N4    O34   1.301481 A    
C7    C34   1.465895 S    
C31   C33   1.533112 S    
C36   H10   1.110292 S    
C74   C84   1.397455 A    
O43   C91   1.413978 S    
Zn2   O6    1.932378 S    
N8    O42   1.299980 A    
O9    C7    1.281006 A    
C93   H46   1.111087 S    
C63   H27   1.081318 S    
C86   C88   1.396774 A    
Zn4   O12   1.956976 S    
Zn6   O26   1.924779 S    
C67   H29   1.084210 S    
C95   H50   1.111522 S    
N1    O28   1.300233 A    
C92   H43   1.112686 S    
C50   C52   1.396904 A    
Zn1   O19   1.937236 S    
C30   C32   1.546688 S    
O20   C6    1.271089 A    
C38   H14   1.082268 S    
Zn2   O20   1.937238 S    
Zn5   O1    1.955910 S    
C17   C19   1.553637 S    
N8    O41   1.300338 A    
C59   C72   1.480427 S    
C22   C24   1.530268 S    
C60   C71   1.479684 S    
C29   C34   1.535213 S    
C56   C66   1.407410 A    
C57   H23   1.083097 S    
