data_mof_unit_40992.cif
_audit_creation_date              2012-10-26T18:59:37-0400
_audit_creation_method            fapswitch 2.2
_symmetry_space_group_name_H-M    P1
_symmetry_Int_Tables_number       1
_space_group_crystal_system       triclinic
_cell_length_a                    23.503981
_cell_length_b                    10.852924
_cell_length_c                    9.560288
_cell_angle_alpha                 90.712808
_cell_angle_beta                  90.149349
_cell_angle_gamma                 90.787243
_cell_volume                      2438.2761077

loop_
_atom_site_label
_atom_site_type_symbol
_atom_type_description
_atom_site_fract_x
_atom_site_fract_y
_atom_site_fract_z
_atom_type_partial_charge
C1    C     C_R   0.499207 0.262367 0.499083 0.583485
C2    C     C_R   0.119472 0.585549 0.574008 0.441651
C3    C     C_R   0.237932 0.525296 0.378299 -0.022505
C4    C     C_R   0.390830 0.499554 0.499907 0.595854
C5    C     C_R   0.297279 0.526845 0.377532 0.316840
C6    C     C_R   0.327919 0.498371 0.499878 0.011867
C7    C     C_R   0.297543 0.468608 0.622415 0.320855
C8    C     C_R   0.238234 0.467643 0.622019 -0.022457
C9    C     C_R   0.208291 0.495899 0.500310 0.105816
C10   C     C_R   0.759094 0.408309 0.584221 -0.077505
C11   C     C_R   0.699744 0.409961 0.583646 0.359675
C12   C     C_R   0.968569 0.307473 0.357198 -0.098616
C13   C     C_R   0.671004 0.494906 0.500316 -0.040614
C14   C     C_R   0.702127 0.576030 0.415946 -0.172702
C15   C     C_R   0.761409 0.574540 0.416904 0.445209
C16   C     C_R   0.500212 0.737579 0.500480 0.534405
C17   C     C_R   0.790048 0.490995 0.501610 0.180474
C18   C     C_R   0.490480 0.065326 0.622788 -0.075261
C19   C     C_R   0.494748 0.129006 0.497068 0.023096
C20   C     C_R   0.493592 0.061261 0.370155 0.362119
C21   C     C_R   0.494260 0.933089 0.372047 -0.106785
C22   C     C_R   0.497138 0.870670 0.499763 -0.035856
C23   C     C_R   0.027898 0.308862 0.356265 -0.094000
C24   C     C_R   0.492728 0.938345 0.624162 0.076294
C25   C     C_3   0.528869 0.940994 0.754098 0.187629
C26   C     C_3   0.524282 0.080956 0.754701 -0.187128
C27   C     C_R   0.532610 0.583623 0.075488 0.122454
C28   C     C_R   0.608814 0.498607 0.500091 0.579183
C29   C     C_R   0.463175 0.426788 0.072732 0.227494
C30   C     C_R   0.463175 0.427594 0.923689 0.026742
C31   C     C_R   0.534040 0.580569 0.928131 0.177422
C32   C     C_3   0.597967 0.589466 0.928283 -0.029922
C33   C     C_3   0.595650 0.600548 0.087120 -0.057367
C34   C     C_R   0.058624 0.401460 0.428926 0.038872
C35   C     C_R   0.879777 0.581137 0.576410 0.460244
C36   C     C_R   0.879018 0.399697 0.432217 0.432991
C37   C     C_R   0.938705 0.398717 0.430709 0.045622
C38   C     C_R   0.969085 0.491972 0.504154 -0.043903
C39   C     C_R   0.939468 0.583879 0.577991 -0.030629
C40   C     C_R   0.029172 0.493397 0.503500 -0.079969
C41   C     C_R   0.059625 0.586696 0.577140 0.031421
C42   C     C_R   0.029388 0.677991 0.651059 0.402979
C43   C     C_R   0.970024 0.676212 0.651120 -0.064876
C44   C     C_R   0.118269 0.404355 0.429219 0.420914
Cu1   Cu    Cu3+1 0.500000 0.499980 0.640670 1.044590
Cu2   Cu    Cu3+1 0.500000 0.500020 0.359330 1.055057
F1    F     F_    0.670448 0.326101 0.660347 -0.606305
F2    F     F_    0.791072 0.654258 0.335657 -0.563006
F3    F     F_    0.495474 0.117423 0.244270 -0.638449
F4    F     F_    0.056723 0.769528 0.723571 -0.550403
F5    F     F_    0.324361 0.558393 0.257694 -0.594818
F6    F     F_    0.324834 0.438723 0.742376 -0.607590
H1    H     H_    0.946226 0.234841 0.299945 0.183419
H2    H     H_    0.948093 0.747750 0.708705 0.201399
H3    H     H_    0.214809 0.547920 0.284123 0.186946
H4    H     H_    0.215348 0.444357 0.716464 0.184390
H5    H     H_    0.781148 0.342789 0.648606 0.172786
H6    H     H_    0.521364 0.913611 0.964878 0.234263
H7    H     H_    0.459001 0.906688 0.879607 0.252833
H8    H     H_    0.586229 0.805672 0.707457 0.248261
H9    H     H_    0.610255 0.912575 0.822747 0.248987
H10   H     H_    0.383207 0.371952 0.116869 0.271002
H11   H     H_    0.430556 0.257310 0.106601 0.253749
H12   H     H_    0.680612 0.641873 0.351339 0.167707
H13   H     H_    0.668146 0.481748 0.906592 0.264090
H14   H     H_    0.607978 0.399712 0.935692 0.247378
H15   H     H_    0.589611 0.791002 0.084264 0.233733
H16   H     H_    0.599253 0.731103 0.243101 0.251573
H17   H     H_    0.495105 0.883501 0.273022 0.161858
H18   H     H_    0.498101 0.118980 0.841390 0.136061
H19   H     H_    0.565421 0.130507 0.737979 0.199575
H20   H     H_    0.049575 0.237173 0.298349 0.184808
H21   H     H_    0.434265 0.367249 0.866065 0.162451
H22   H     H_    0.615251 0.671884 0.874772 0.161367
H23   H     H_    0.617910 0.525931 0.142784 0.182250
N1    N     N_R   0.850982 0.490251 0.503908 -0.370486
N2    N     N_R   0.147278 0.495344 0.500973 -0.411185
N3    N     N_R   0.500360 0.500930 0.147930 -0.212386
N4    N     N_R   0.500360 0.500890 0.852020 -0.243136
N5    N     N_3   0.501639 0.880646 0.873446 -0.601086
N6    N     N_3   0.587135 0.899975 0.729947 -0.584419
N7    N     N_3   0.424519 0.346958 0.144266 -0.499688
N8    N     N_3   0.624850 0.475171 0.881745 -0.527089
N9    N     N_3   0.611874 0.723834 0.138625 -0.613919
O1    O     O_R   0.500000 0.319640 0.618810 -0.523040
O2    O     O_R   0.582120 0.500020 0.618760 -0.435800
O3    O     O_R   0.582120 0.500060 0.381180 -0.539521
O4    O     O_2   0.850665 0.668332 0.646834 -0.443465
O5    O     O_2   0.849189 0.311610 0.361862 -0.460201
O6    O     O_2   0.147140 0.316483 0.359274 -0.459016
O7    O     O_2   0.149825 0.674005 0.642309 -0.370938
O8    O     O_R   0.500010 0.319680 0.381230 -0.414752
O9    O     O_R   0.417880 0.499940 0.618820 -0.453893
O10   O     O_R   0.417880 0.499980 0.381240 -0.422879
O11   O     O_R   0.499990 0.680320 0.618770 -0.490689
O12   O     O_R   0.500000 0.680360 0.381190 -0.523887

loop_
_geom_bond_atom_site_label_1
_geom_bond_atom_site_label_2
_ccdc_geom_bond_type
C36   O5    S    
C25   N5    S    
C41   C42   A    
C11   F1    S    
C19   C20   A    
C18   C26   S    
C27   N3    A    
Cu1   O9    S    
C8    H4    S    
C7    C8    A    
Cu1   Cu2   S    
C27   C33   S    
C12   C23   A    
C20   F3    S    
C34   C40   A    
C44   N2    A    
C7    F6    S    
C32   H22   S    
C38   C39   A    
H13   N8    S    
Cu2   O8    S    
C2    C41   A    
C18   C19   A    
C35   O4    S    
C12   C37   A    
C36   N1    A    
H14   N8    S    
C3    H3    S    
C33   H23   S    
C29   N3    A    
C8    C9    A    
C17   N1    S    
C13   C28   S    
C18   C24   A    
C29   C30   A    
C12   H1    S    
H6    N5    S    
H10   N7    S    
H15   N9    S    
C13   C14   A    
C25   N6    S    
C26   H19   S    
C15   F2    S    
C1    O1    A    
C35   N1    A    
C16   O12   A    
C1    C19   S    
H11   N7    S    
C27   C31   A    
H16   N9    S    
C10   H5    S    
C34   C44   A    
C24   C25   S    
C4    C6    S    
Cu2   N3    S    
C30   H21   S    
C39   C43   A    
C25   C26   S    
C21   H17   S    
Cu1   O1    S    
C37   C38   A    
C3    C9    A    
H8    N6    S    
C43   H2    S    
C31   C32   S    
Cu2   O10   S    
C23   C34   A    
C14   H12   S    
C28   O3    A    
Cu1   N4    S    
C9    N2    S    
C42   F4    S    
C4    O10   A    
C30   N4    A    
C40   C41   A    
C1    O8    A    
C28   O2    A    
C26   H18   S    
C22   C24   A    
C42   C43   A    
Cu1   O11   S    
C44   O6    S    
Cu2   O3    S    
C15   C17   A    
C32   N8    S    
C36   C37   A    
C16   O11   A    
C16   C22   S    
C23   H20   S    
C3    C5    A    
H7    N5    S    
C31   N4    A    
C6    C7    A    
C32   C33   S    
Cu1   O2    S    
C29   N7    S    
C2    N2    A    
H9    N6    S    
C38   C40   A    
C11   C13   A    
C5    C6    A    
C35   C39   A    
C2    O7    S    
C33   N9    S    
C10   C11   A    
C4    O9    A    
Cu2   O12   S    
C20   C21   A    
C14   C15   A    
C5    F5    S    
C10   C17   A    
C21   C22   A    
