data_mof_unit_19350.cif
_audit_creation_date              2012-12-11T17:39:28-0500
_audit_creation_method            fapswitch 2.2
_symmetry_space_group_name_H-M    P1
_symmetry_Int_Tables_number       1
_space_group_crystal_system       triclinic
_cell_length_a                    14.875866
_cell_length_b                    15.118285
_cell_length_c                    14.837133
_cell_angle_alpha                 109.1906
_cell_angle_beta                  108.963847
_cell_angle_gamma                 110.224609
_cell_volume                      2569.52753401

loop_
_atom_site_label
_atom_site_type_symbol
_atom_type_description
_atom_site_fract_x
_atom_site_fract_y
_atom_site_fract_z
_atom_type_partial_charge
C1    C     C_R   0.905623 0.978460 0.718480 -0.126015
C2    C     C_R   0.996990 0.322179 0.538543 0.042350
C3    C     C_R   0.361602 0.304382 0.805727 0.135753
C4    C     C_R   0.626338 0.920960 0.421071 0.108041
C5    C     C_R   0.752560 0.687893 0.278633 -0.100564
C6    C     C_R   0.251029 0.031069 0.435889 -0.135350
C7    C     C_R   0.090207 0.789721 0.592068 -0.127760
C8    C     C_R   0.908876 0.000043 0.198887 -0.139356
C9    C     C_R   0.090976 0.090376 0.286578 -0.144454
C10   C     C_R   0.906990 0.702080 0.504282 -0.160151
C11   C     C_R   0.752595 0.779777 0.186893 -0.113089
C12   C     C_R   0.091153 0.314614 0.557485 -0.138684
C13   C     C_R   0.255369 0.940790 0.528630 -0.124284
C14   C     C_R   0.727300 0.678054 0.176566 0.128985
C15   C     C_R   0.284408 0.960314 0.453156 0.055022
C16   C     C_R   0.997073 0.698388 0.562112 0.059965
C17   C     C_R   0.998215 0.053791 0.189272 0.056032
C18   C     C_R   0.491689 0.581080 0.375513 -0.154790
C19   C     C_R   0.469185 0.655540 0.350975 0.539450
C20   C     C_R   0.457561 0.732099 0.426191 -0.063328
C21   C     C_R   0.463697 0.727331 0.521039 -0.208760
C22   C     C_R   0.482640 0.650121 0.542001 -0.086889
C23   C     C_R   0.299853 0.209911 0.801693 -0.138855
C24   C     C_R   0.497620 0.577808 0.469994 -0.219070
C25   C     C_R   0.360150 0.837284 0.421501 -0.231305
C26   C     C_R   0.344411 0.918818 0.405862 0.063215
C27   C     C_R   0.394478 0.963475 0.352662 0.029573
C28   C     C_R   0.468693 0.937722 0.332519 -0.249896
C29   C     C_R   0.508308 0.884205 0.380210 0.056600
C30   C     C_R   0.442704 0.818928 0.409223 0.035008
C31   C     C_R   0.311988 0.027356 0.231837 -0.175231
C32   C     C_R   0.305786 0.111348 0.215734 -0.149408
C33   C     C_R   0.379300 0.219644 0.299747 -0.122587
C34   C     C_R   0.694018 0.988474 0.397991 -0.151228
C35   C     C_R   0.460058 0.243962 0.399447 -0.125663
C36   C     C_R   0.465838 0.160109 0.416368 -0.152413
C37   C     C_R   0.390024 0.051448 0.333398 0.108001
C38   C     C_R   0.787297 0.178649 0.181716 -0.119040
C39   C     C_R   0.863606 0.271518 0.284542 -0.115767
C40   C     C_R   0.827689 0.314878 0.355296 0.106271
C41   C     C_R   0.714444 0.265889 0.320781 -0.182420
C42   C     C_R   0.638507 0.172655 0.218127 -0.116091
C43   C     C_R   0.674884 0.128883 0.148705 -0.110398
C44   C     C_R   0.908022 0.506091 0.477816 -0.240358
C45   C     C_R   0.300582 0.301483 0.710771 -0.129493
C46   C     C_R   0.989819 0.605250 0.572046 0.060323
C47   C     C_R   0.068179 0.611505 0.662295 0.021875
C48   C     C_R   0.067428 0.515821 0.650699 -0.248788
C49   C     C_R   0.989738 0.417677 0.552265 0.072311
C50   C     C_R   0.908038 0.412552 0.465222 0.018034
C51   C     C_R   0.260868 0.746545 0.820565 -0.172410
C52   C     C_R   0.336486 0.845077 0.918821 -0.110643
C53   C     C_R   0.301016 0.912893 0.965360 -0.101501
C54   C     C_R   0.189715 0.881968 0.914352 -0.121796
C55   C     C_R   0.113715 0.783291 0.816585 -0.135497
C56   C     C_R   0.692518 0.899096 0.489944 -0.132720
C57   C     C_R   0.148711 0.715030 0.767975 0.118917
C58   C     C_2   0.538423 0.464782 0.881450 -0.119993
C59   C     C_2   0.474565 0.384977 0.891124 -0.197459
C60   C     C_2   0.630050 0.567190 0.978906 -0.127765
C61   C     C_2   0.678293 0.576159 0.077074 -0.196854
C62   C     C_R   0.372424 0.366517 0.087652 -0.141327
C63   C     C_R   0.286853 0.283463 0.081653 -0.209413
C64   C     C_R   0.180456 0.268889 0.039635 0.131281
C65   C     C_R   0.161220 0.338807 0.003063 -0.139237
C66   C     C_R   0.246935 0.421770 0.009042 -0.104297
C67   C     C_R   0.906855 0.219066 0.474603 -0.111504
C68   C     C_R   0.352424 0.435460 0.051142 0.012096
C69   C     C_R   0.086926 0.164497 0.115795 -0.249733
C70   C     C_R   0.992670 0.080610 0.100833 0.056925
C71   C     C_R   0.892781 0.024001 0.999548 0.006393
C72   C     C_R   0.891850 0.049286 0.917967 -0.221649
C73   C     C_R   0.990934 0.105262 0.922517 0.048711
C74   C     C_R   0.086664 0.177072 0.025809 0.019890
C75   C     C_R   0.799857 0.824878 0.926010 -0.120867
C76   C     C_R   0.703044 0.723734 0.863259 -0.141277
C77   C     C_R   0.601008 0.717239 0.837697 -0.129197
C78   C     C_R   0.088931 0.067917 0.811971 -0.129138
C79   C     C_R   0.595420 0.811950 0.872617 -0.101653
C80   C     C_R   0.691722 0.913268 0.931718 -0.189248
C81   C     C_R   0.794844 0.920485 0.960109 0.110998
C82   C     C_R   0.996192 0.058582 0.821233 0.056439
H1    H     H_    0.819754 0.948724 0.693445 0.100043
H2    H     H_    0.252689 0.060783 0.380350 0.135589
H3    H     H_    0.174932 0.816930 0.646105 0.104725
H4    H     H_    0.825424 0.980552 0.152158 0.109258
H5    H     H_    0.174483 0.150329 0.315815 0.109504
H6    H     H_    0.822111 0.649943 0.479651 0.097649
H7    H     H_    0.744299 0.801417 0.123463 0.107029
H8    H     H_    0.268602 0.889682 0.561534 0.092293
H9    H     H_    0.513449 0.518806 0.487177 0.125838
H10   H     H_    0.503042 0.524201 0.320044 0.133625
H11   H     H_    0.175676 0.380249 0.602180 0.098144
H12   H     H_    0.455842 0.784786 0.580129 0.131707
H13   H     H_    0.486506 0.646893 0.614685 0.124155
H14   H     H_    0.312345 0.791690 0.448555 0.128212
H15   H     H_    0.507783 0.976120 0.295290 0.128871
H16   H     H_    0.254087 0.943837 0.166925 0.127854
H17   H     H_    0.242392 0.091473 0.138645 0.115573
H18   H     H_    0.373681 0.285082 0.288644 0.110415
H19   H     H_    0.517274 0.327654 0.463987 0.103324
H20   H     H_    0.527752 0.179396 0.494411 0.117066
H21   H     H_    0.615815 0.056698 0.069296 0.096828
H22   H     H_    0.329441 0.180276 0.855328 0.096193
H23   H     H_    0.815678 0.145518 0.127963 0.113506
H24   H     H_    0.950506 0.309011 0.309550 0.114888
H25   H     H_    0.685436 0.298860 0.374179 0.122835
H26   H     H_    0.551573 0.134356 0.192608 0.116325
H27   H     H_    0.849058 0.502052 0.407905 0.131428
H28   H     H_    0.127235 0.517391 0.717725 0.129306
H29   H     H_    0.290106 0.695801 0.784772 0.103772
H30   H     H_    0.422737 0.869148 0.958670 0.100885
H31   H     H_    0.359729 0.989337 0.040966 0.105602
H32   H     H_    0.162175 0.934396 0.950458 0.107976
H33   H     H_    0.669576 0.010412 0.335657 0.100177
H34   H     H_    0.027639 0.760340 0.778604 0.112221
H35   H     H_    0.511045 0.465038 0.804351 0.112568
H36   H     H_    0.499679 0.383814 0.967670 0.126553
H37   H     H_    0.642170 0.638882 0.972968 0.141692
H38   H     H_    0.669205 0.505497 0.085662 0.130579
H39   H     H_    0.418604 0.499280 0.055119 0.135688
H40   H     H_    0.453906 0.376327 0.119043 0.101793
H41   H     H_    0.302438 0.227213 0.103642 0.112511
H42   H     H_    0.079578 0.328537 0.969200 0.112723
H43   H     H_    0.231437 0.475077 0.980497 0.109244
H44   H     H_    0.328969 0.355505 0.680719 0.081607
H45   H     H_    0.160879 0.217487 0.195308 0.129706
H46   H     H_    0.814884 0.004431 0.841731 0.129195
H47   H     H_    0.878086 0.828815 0.942814 0.110439
H48   H     H_    0.707030 0.650195 0.834601 0.115201
H49   H     H_    0.526193 0.638712 0.790162 0.092548
H50   H     H_    0.516214 0.806772 0.850759 0.099863
H51   H     H_    0.685646 0.985716 0.951372 0.107098
H52   H     H_    0.666569 0.841331 0.516514 0.108210
H53   H     H_    0.821243 0.195076 0.446468 0.114970
H54   H     H_    0.173677 0.119009 0.875947 0.114751
H55   H     H_    0.743330 0.624263 0.299196 0.087789
N1    N     N_R   0.941940 0.944580 0.650780 -0.042320
N2    N     N_R   0.206190 0.054080 0.497260 -0.043825
N3    N     N_R   0.056380 0.847410 0.553580 -0.040555
N4    N     N_R   0.944890 0.999100 0.292900 -0.040982
N5    N     N_R   0.058060 0.055420 0.349220 -0.041368
N6    N     N_R   0.943200 0.791100 0.497260 -0.039095
N7    N     N_R   0.795540 0.849750 0.292910 -0.044245
N8    N     N_R   0.205730 0.996760 0.553580 -0.040873
N9    N     N_R   0.056800 0.208900 0.502740 -0.040361
N10   N     N_R   0.204460 0.150250 0.707090 -0.041892
N11   N     N_R   0.794270 0.003240 0.446420 -0.042799
N12   N     N_R   0.204920 0.207570 0.650770 -0.042157
N13   N     N_R   0.793810 0.945920 0.502740 -0.044880
N14   N     N_R   0.943620 0.152590 0.446420 -0.041534
N15   N     N_R   0.055110 0.000900 0.707100 -0.041928
N16   N     N_R   0.795080 0.792430 0.349230 -0.039309
Ni1   Ni    Ni4+2 0.869690 0.869690 0.500000 0.219919
Ni2   Ni    Ni4+2 0.130310 0.130310 0.500000 0.209634
Ni3   Ni    Ni4+2 0.129250 0.998840 0.629170 0.214274
Ni4   Ni    Ni4+2 0.870750 0.001160 0.370830 0.218508
O1    O     O_3   0.460370 0.651219 0.254039 -0.786921
H56   H     H_    0.415005 0.682674 0.230868 0.313370

loop_
_geom_bond_atom_site_label_1
_geom_bond_atom_site_label_2
_ccdc_geom_bond_type
C28   H15   S    
C39   H24   S    
C66   C68   A    
C40   C41   A    
C13   H8    S    
C41   C42   A    
C48   H28   S    
C35   C36   A    
N3    N6    A    
C13   N8    A    
C2    C12   A    
C78   N15   A    
C20   C30   S    
C53   C54   A    
C10   H6    S    
C26   C27   A    
C62   C63   A    
C72   H46   S    
C18   C24   A    
N14   Ni4   S    
C36   C37   A    
N10   N12   A    
N11   N13   A    
C34   H33   S    
C77   H49   S    
C7    N3    A    
C80   C81   A    
C11   C14   A    
C5    N16   A    
C31   H16   S    
C55   H34   S    
C52   H30   S    
C58   C60   S    
N7    N16   A    
C60   H37   S    
C36   H20   S    
C18   C19   A    
C73   C74   A    
C65   H42   S    
C12   N9    A    
C6    N2    A    
C3    C23   A    
C78   C82   A    
C44   C50   A    
C6    C15   A    
C54   C55   A    
N8    Ni3   S    
C76   H48   S    
N9    Ni2   S    
N15   Ni3   S    
C53   H31   S    
C70   C71   A    
C51   C57   A    
N5    Ni2   S    
C11   N7    A    
C45   N12   A    
C4    C29   S    
C10   N6    A    
C44   H27   S    
N1    Ni1   S    
C17   C70   S    
N16   Ni1   S    
C21   C22   A    
C4    C56   A    
C61   H38   S    
C34   N11   A    
C44   C46   A    
C77   C79   A    
C38   C39   A    
C4    C34   A    
C6    H2    S    
C67   N14   A    
C51   C52   A    
C47   C48   A    
C76   C77   A    
C2    C67   A    
C16   C46   S    
C39   C40   A    
C75   C81   A    
C15   C26   S    
N1    N15   A    
C25   C26   A    
C63   C64   A    
C14   C61   S    
C23   N10   A    
C3    C45   A    
C58   H35   S    
C80   H51   S    
C31   C37   A    
C60   C61   D    
C67   H53   S    
C75   C76   A    
C29   C30   A    
C2    C49   S    
C47   C57   S    
C11   H7    S    
C63   H41   S    
C31   C32   A    
N2    Ni2   S    
C45   H44   S    
C69   C74   A    
N10   Ni3   S    
C5    C14   A    
C8    N4    A    
N3    Ni3   S    
N6    Ni1   S    
N4    Ni4   S    
C48   C49   A    
C49   C50   A    
C59   H36   S    
C13   C15   A    
N13   Ni1   S    
O1    H56   S    
C22   C24   A    
C79   C80   A    
C58   C59   D    
C42   C43   A    
C56   N13   A    
C28   C29   A    
C24   H9    S    
C73   C82   S    
C62   H40   S    
C52   C53   A    
C9    C17   A    
C25   C30   A    
C46   C47   A    
N2    N8    A    
C51   H29   S    
C41   H25   S    
C19   O1    S    
C7    C16   A    
C72   C73   A    
C35   H19   S    
C68   H39   S    
C56   H52   S    
C9    N5    A    
C66   H43   S    
C5    H55   S    
C1    H1    S    
C8    C17   A    
C32   H17   S    
C62   C68   A    
C33   H18   S    
C18   H10   S    
C32   C33   A    
C19   C20   A    
C55   C57   A    
C1    C82   A    
C38   C43   A    
C10   C16   A    
N4    N5    A    
C64   C65   A    
C7    H3    S    
C78   H54   S    
C38   H23   S    
C40   C50   S    
C79   H50   S    
C54   H32   S    
C33   C35   A    
C8    H4    S    
N11   Ni4   S    
C23   H22   S    
N12   Ni2   S    
C69   C70   A    
C12   H11   S    
C43   H21   S    
N9    N14   A    
C22   H13   S    
C75   H47   S    
C71   C72   A    
C20   C21   A    
C69   H45   S    
C25   H14   S    
C65   C66   A    
C21   H12   S    
C27   C28   A    
C64   C74   S    
N7    Ni4   S    
C42   H26   S    
C9    H5    S    
C1    N1    A    
C27   C37   S    
C71   C81   S    
C3    C59   S    
