data_mof_unit_46293.cif
_audit_creation_date              2012-10-26T20:07:48-0400
_audit_creation_method            fapswitch 2.2
_symmetry_space_group_name_H-M    P1
_symmetry_Int_Tables_number       1
_space_group_crystal_system       triclinic
_cell_length_a                    9.510698
_cell_length_b                    10.795968
_cell_length_c                    17.11232
_cell_angle_alpha                 89.011077
_cell_angle_beta                  93.745354
_cell_angle_gamma                 90.244234
_cell_volume                      1753.02249055

loop_
_atom_site_label
_atom_site_type_symbol
_atom_type_description
_atom_site_fract_x
_atom_site_fract_y
_atom_site_fract_z
_atom_type_partial_charge
C1    C     C_R   0.499469 0.262153 0.499398 0.581575
C2    C     C_R   0.068488 0.569319 0.446252 0.005832
C3    C     C_R   0.517312 0.499630 0.650923 0.533231
C4    C     C_R   0.482725 0.501829 0.349054 0.559325
C5    C     C_R   0.526626 0.503180 0.736691 0.000178
C6    C     C_R   0.473585 0.503850 0.263192 0.012686
C7    C     C_R   0.403079 0.503604 0.777163 -0.164138
C8    C     C_R   0.597232 0.507186 0.222757 -0.160279
C9    C     C_R   0.410712 0.507540 0.858412 -0.093168
C10   C     C_R   0.589731 0.509388 0.141400 -0.089638
C11   C     C_R   0.542936 0.511095 0.900825 0.226934
C12   C     C_R   0.500367 0.737707 0.500484 0.554822
C13   C     C_R   0.457562 0.508225 0.098858 0.227320
C14   C     C_R   0.665860 0.511636 0.860283 -0.119849
C15   C     C_R   0.334548 0.505002 0.139326 -0.110670
C16   C     C_R   0.658207 0.507667 0.778793 -0.170832
C17   C     C_R   0.342050 0.502875 0.220912 -0.147956
C18   C     C_R   0.386023 0.063584 0.461281 0.234911
C19   C     C_R   0.608529 0.936327 0.544643 0.242310
C20   C     C_3   0.150561 0.107896 0.445095 0.024531
C21   C     C_3   0.042172 0.188134 0.398079 -0.257692
C22   C     C_3   0.894475 0.168343 0.426007 -0.461136
C23   C     C_R   0.390130 0.934701 0.461495 -0.169441
C24   C     C_3   0.676723 0.826867 0.657034 0.035136
C25   C     C_3   0.702187 0.920726 0.722551 -0.287728
C26   C     C_3   0.670539 0.863974 0.801849 -0.472758
C27   C     C_R   0.608459 0.064765 0.541040 -0.170452
C28   C     C_R   0.500288 0.871353 0.502584 -0.025205
C29   C     C_R   0.498103 0.128221 0.499941 -0.018443
C30   C     C_R   0.080396 0.430849 0.553875 0.003014
C31   C     C_R   0.919611 0.569261 0.446191 0.019502
C32   C     C_R   0.931547 0.431132 0.553970 0.001580
Cu1   Cu    Cu3+1 0.640660 0.500020 0.500000 0.935575
Cu2   Cu    Cu3+1 0.359340 0.499980 0.500000 0.941107
H1    H     H_    0.700120 0.508093 0.253891 0.122595
H2    H     H_    0.693330 0.114981 0.571898 0.131156
H3    H     H_    0.141238 0.374894 0.596732 0.103334
H4    H     H_    0.858735 0.624941 0.403195 0.111006
H5    H     H_    0.880173 0.375446 0.596940 0.101744
H6    H     H_    0.119870 0.625048 0.403305 0.104639
H7    H     H_    0.152622 0.134798 0.507816 0.132254
H8    H     H_    0.117141 0.009344 0.439625 0.126132
H9    H     H_    0.071830 0.287303 0.404162 0.189028
H10   H     H_    0.041609 0.164590 0.335077 0.170329
H11   H     H_    0.859715 0.071128 0.416340 0.159015
H12   H     H_    0.300152 0.500691 0.746150 0.126550
H13   H     H_    0.819303 0.231203 0.392756 0.173779
H14   H     H_    0.893065 0.188724 0.489287 0.152836
H15   H     H_    0.741809 0.743459 0.671824 0.167754
H16   H     H_    0.564694 0.795188 0.654256 0.116691
H17   H     H_    0.813812 0.952135 0.724842 0.171645
H18   H     H_    0.633304 0.002600 0.710380 0.154495
H19   H     H_    0.559492 0.831314 0.800809 0.159189
H20   H     H_    0.687048 0.934666 0.847937 0.154292
H21   H     H_    0.741971 0.784687 0.816716 0.152688
H22   H     H_    0.687375 0.511663 0.112236 0.132465
H23   H     H_    0.313105 0.507337 0.887611 0.132296
H24   H     H_    0.768031 0.514673 0.892111 0.112661
H25   H     H_    0.232427 0.503878 0.107365 0.113191
H26   H     H_    0.755135 0.508198 0.748899 0.121456
H27   H     H_    0.245053 0.500309 0.250744 0.125519
H28   H     H_    0.309783 0.883879 0.427418 0.128792
N1    N     N_2   0.557288 0.512575 0.983793 -0.254140
N2    N     N_2   0.443323 0.508744 0.015870 -0.254070
N3    N     N_R   0.852070 0.500030 0.499980 -0.222012
N4    N     N_R   0.147930 0.499970 0.500020 -0.226842
O1    O     O_R   0.618740 0.319660 0.500000 -0.522465
O2    O     O_3   0.719960 0.876196 0.585138 -0.556529
O3    O     O_R   0.381260 0.680340 0.500000 -0.517091
O4    O     O_R   0.381170 0.319630 0.500010 -0.464692
O5    O     O_R   0.618830 0.680370 0.499990 -0.457927
O6    O     O_R   0.631780 0.498870 0.613920 -0.516096
O7    O     O_R   0.368220 0.501130 0.386080 -0.503526
O8    O     O_R   0.394210 0.498840 0.613930 -0.511091
O9    O     O_R   0.605790 0.501160 0.386070 -0.514821
O10   O     O_3   0.284008 0.126938 0.415018 -0.546413

loop_
_geom_bond_atom_site_label_1
_geom_bond_atom_site_label_2
_ccdc_geom_bond_type
C22   H14   S    
C12   O3    A    
Cu1   O5    S    
C27   C29   A    
C26   H21   S    
Cu2   N4    S    
C20   H7    S    
Cu1   N3    S    
C12   C28   S    
C11   N1    S    
C11   C14   A    
C20   O10   S    
C7    C9    A    
C16   H26   S    
C32   H5    S    
C3    O8    A    
C4    O9    A    
Cu1   O6    S    
C17   H27   S    
C21   H9    S    
Cu1   O9    S    
C23   H28   S    
C5    C16   A    
C19   C27   A    
Cu2   O4    S    
C22   H13   S    
C21   C22   S    
C26   H20   S    
C24   H16   S    
C14   H24   S    
C18   C23   A    
C7    H12   S    
C24   C25   S    
C4    C6    S    
C5    C7    A    
C31   N3    A    
C6    C8    A    
C3    C5    S    
C25   C26   S    
C30   H3    S    
C2    C31   A    
C8    H1    S    
C25   H17   S    
C21   H10   S    
C1    C29   S    
Cu1   Cu2   S    
C19   O2    S    
C18   C29   A    
C23   C28   A    
C19   C28   A    
C9    C11   A    
Cu2   O3    S    
C4    O7    A    
C30   N4    A    
Cu2   O8    S    
C12   O5    A    
C13   C15   A    
C14   C16   A    
C26   H19   S    
C10   H22   S    
Cu1   O1    S    
C24   H15   S    
C15   C17   A    
C6    C17   A    
C18   O10   S    
C15   H25   S    
C2    N4    A    
C10   C13   A    
C20   H8    S    
C27   H2    S    
C1    O4    A    
C31   H4    S    
C3    O6    A    
C25   H18   S    
C30   C32   A    
C13   N2    S    
C1    O1    A    
C9    H23   S    
C24   O2    S    
Cu2   O7    S    
N1    N2    D    
C2    H6    S    
C22   H11   S    
C20   C21   S    
C8    C10   A    
C32   N3    A    
