data_mof_unit_19662.cif
_audit_creation_date              2012-12-11T20:41:11-0500
_audit_creation_method            fapswitch 2.2
_symmetry_space_group_name_H-M    P1
_symmetry_Int_Tables_number       1
_space_group_crystal_system       triclinic
_cell_length_a                    8.243341
_cell_length_b                    18.866759
_cell_length_c                    27.005055
_cell_angle_alpha                 97.103933
_cell_angle_beta                  92.477491
_cell_angle_gamma                 86.308281
_cell_volume                      4156.43715244

loop_
_atom_site_label
_atom_site_type_symbol
_atom_type_description
_atom_site_fract_x
_atom_site_fract_y
_atom_site_fract_z
_atom_type_partial_charge
Ba1   Ba    Ba6+2 0.852670 0.466460 0.522850 1.654608
Ba2   Ba    Ba6+2 0.337150 0.533490 0.477140 1.644595
C1    C     C_3   0.558174 0.225821 0.665485 -0.370478
C2    C     C_3   0.573596 0.294778 0.642672 0.368715
C3    C     C_3   0.519945 0.646394 0.630044 0.302281
C4    C     C_3   0.509156 0.673287 0.685357 -0.373701
C5    C     C_3   0.075537 0.685211 0.342233 0.342697
C6    C     C_3   0.092818 0.704889 0.289859 -0.312342
C7    C     C_3   0.535307 0.724601 0.364894 0.360261
C8    C     C_3   0.499308 0.796599 0.345658 -0.357456
C9    C     C_R   0.008548 0.446755 0.177507 0.598057
C10   C     C_R   0.918894 0.570256 0.178695 0.572441
C11   C     C_2   0.763249 0.546852 0.272834 -0.082377
C12   C     C_3   0.102581 0.271370 0.649998 0.340278
C13   C     C_3   0.747173 0.570786 0.327834 -0.047401
C14   C     C_1   0.981963 0.488877 0.342550 0.030028
C15   C     C_2   0.021890 0.484707 0.294704 -0.107433
C16   C     C_2   0.904599 0.513331 0.256250 0.194257
C17   C     C_R   0.021955 0.504933 0.101494 -0.079461
C18   C     C_R   0.048500 0.443722 0.126531 -0.036548
C19   C     C_R   0.113688 0.380555 0.099978 -0.059962
C20   C     C_R   0.956480 0.568408 0.127999 -0.024200
C21   C     C_2   0.851324 0.526064 0.360515 -0.292263
C22   C     C_2   0.352168 0.483654 0.641220 -0.280432
C23   C     C_3   0.036992 0.240906 0.694628 -0.182348
C24   C     C_R   0.165406 0.436395 0.972040 0.019803
C25   C     C_R   0.070082 0.563391 0.974113 0.020380
C26   C     C_R   0.136953 0.499012 0.947652 0.049878
C27   C     C_R   0.231985 0.373851 0.943711 -0.098766
C28   C     C_R   0.269290 0.372884 0.893717 -0.062908
C29   C     C_R   0.242467 0.434138 0.869315 -0.033630
C30   C     C_R   0.175925 0.497336 0.896202 -0.078188
C31   C     C_R   0.148512 0.558967 0.871630 -0.033370
C32   C     C_R   0.189093 0.556976 0.821074 0.586112
C33   C     C_R   0.280830 0.433466 0.818540 0.589860
C34   C     C_3   0.184724 0.317903 0.416149 0.311500
C35   C     C_2   0.454188 0.480084 0.729200 -0.078713
C36   C     C_3   0.499841 0.488323 0.676336 -0.065147
C37   C     C_1   0.212459 0.513714 0.657186 0.045322
C38   C     C_2   0.171835 0.513697 0.704317 -0.087683
C39   C     C_2   0.297974 0.494384 0.743142 0.214884
C40   C     C_R   0.126754 0.438290 0.023514 0.019540
C41   C     C_R   0.060478 0.502801 0.049953 0.049632
C42   C     C_R   0.032104 0.565326 0.025473 0.020416
C43   C     C_R   0.151972 0.377782 0.049877 -0.098846
C44   C     C_R   0.929772 0.629461 0.103444 -0.060513
C45   C     C_3   0.200445 0.237057 0.403181 -0.359754
C46   C     C_R   0.043460 0.623988 0.947953 -0.100180
C47   C     C_R   0.081889 0.621701 0.898117 -0.061800
C48   C     C_R   0.966428 0.628111 0.053596 -0.101899
C49   C     C_2   0.411124 0.300692 0.521430 -0.245473
C50   C     C_3   0.327137 0.253231 0.551981 -0.060581
C51   C     C_2   0.363407 0.174359 0.536394 -0.119460
C52   C     C_2   0.490280 0.151399 0.507064 -0.066196
C53   C     C_2   0.580724 0.205925 0.485295 -0.129721
C54   C     C_1   0.530821 0.274642 0.492142 0.061100
C55   C     C_R   0.646036 0.932483 0.488716 0.460524
C56   C     C_3   0.011440 0.682611 0.583065 0.305908
C57   C     C_R   0.543121 0.073787 0.498834 0.460670
C58   C     C_R   0.612206 0.807252 0.507116 -0.124348
C59   C     C_R   0.663382 0.734854 0.504439 0.041213
C60   C     C_R   0.898651 0.756233 0.459525 0.016377
C61   C     C_R   0.848681 0.829247 0.461704 -0.141508
C62   C     C_R   0.702280 0.855363 0.484908 -0.068483
C63   C     C_R   0.801346 0.709277 0.478674 -0.279669
C64   C     C_3   0.993915 0.763352 0.596738 -0.379937
C65   C     C_3   0.667600 0.378841 0.372522 0.301768
C66   C     C_3   0.661789 0.361474 0.315991 -0.354408
H1    H     H_    0.636569 0.281185 0.606828 0.061995
H2    H     H_    0.285917 0.222488 0.372370 0.122089
H3    H     H_    0.247215 0.211474 0.436150 0.076553
H4    H     H_    0.079622 0.216596 0.391414 0.137682
H5    H     H_    0.891773 0.662513 0.570834 0.006815
H6    H     H_    0.096718 0.670438 0.552119 0.074989
H7    H     H_    0.903284 0.777104 0.626192 0.136038
H8    H     H_    0.953058 0.789904 0.563651 0.065161
H9    H     H_    0.112930 0.783744 0.610731 0.126142
H10   H     H_    0.792811 0.391198 0.385231 0.007414
H11   H     H_    0.583082 0.426121 0.382642 0.076663
H12   H     H_    0.679967 0.201557 0.674584 0.114889
H13   H     H_    0.749968 0.315993 0.304566 0.134548
H14   H     H_    0.693209 0.408546 0.298364 0.069793
H15   H     H_    0.537436 0.347064 0.302673 0.133989
H16   H     H_    0.449854 0.319690 0.636288 -0.078344
H17   H     H_    0.494796 0.186802 0.638540 0.061676
H18   H     H_    0.396000 0.633687 0.615344 0.029278
H19   H     H_    0.602655 0.597350 0.625547 0.034646
H20   H     H_    0.433284 0.724310 0.690379 0.139043
H21   H     H_    0.452458 0.633638 0.705146 0.077744
H22   H     H_    0.632759 0.682332 0.702024 0.125048
H23   H     H_    0.488438 0.236913 0.700159 0.135387
H24   H     H_    0.116605 0.255539 0.728156 0.094005
H25   H     H_    0.146246 0.633656 0.345372 0.087157
H26   H     H_    0.944922 0.678932 0.347739 -0.057027
H27   H     H_    0.211559 0.727884 0.286269 0.147729
H28   H     H_    0.087011 0.656099 0.262666 0.120496
H29   H     H_    0.993900 0.744646 0.281007 0.118633
H30   H     H_    0.669568 0.713854 0.365404 -0.066277
H31   H     H_    0.492057 0.728445 0.403593 0.076811
H32   H     H_    0.566339 0.838226 0.369396 0.077074
H33   H     H_    0.367318 0.812061 0.346868 0.152256
H34   H     H_    0.097910 0.330761 0.658168 0.031706
H35   H     H_    0.538813 0.793812 0.306630 0.120809
H36   H     H_    0.140930 0.462064 0.283463 0.129688
H37   H     H_    0.135773 0.332419 0.117965 0.122400
H38   H     H_    0.549244 0.468888 0.756740 0.094990
H39   H     H_    0.320113 0.323381 0.874127 0.117819
H40   H     H_    0.257442 0.324105 0.958958 0.068129
H41   H     H_    0.201395 0.326788 0.032961 0.068952
H42   H     H_    0.671541 0.566280 0.246917 0.118720
H43   H     H_    0.879729 0.679277 0.122827 0.122682
H44   H     H_    0.992677 0.674791 0.964687 0.068984
H45   H     H_    0.230802 0.251154 0.646280 -0.043976
H46   H     H_    0.058928 0.669953 0.880295 0.122476
H47   H     H_    0.048650 0.529625 0.715413 0.118569
H48   H     H_    0.941387 0.677938 0.038477 0.068870
H49   H     H_    0.835662 0.537228 0.400471 0.082604
H50   H     H_    0.360809 0.456459 0.603490 0.070063
H51   H     H_    0.296092 0.136840 0.553568 0.093048
H52   H     H_    0.685970 0.188786 0.463034 0.108828
H53   H     H_    0.504713 0.825961 0.527684 0.108975
H54   H     H_    0.924868 0.865240 0.446449 0.105647
H55   H     H_    0.386434 0.357999 0.529763 0.067046
H56   H     H_    0.914834 0.266619 0.702680 0.135674
H57   H     H_    0.840474 0.653239 0.477349 0.059020
H58   H     H_    0.306158 0.337643 0.426330 -0.001869
H59   H     H_    0.104465 0.331082 0.448276 0.086804
N1    N     N_R   0.944675 0.509794 0.203417 -0.421930
N2    N     N_R   0.254841 0.494702 0.795024 -0.425418
N3    N     N_R   0.506451 0.955742 0.512128 -0.244566
N4    N     N_R   0.456339 0.024664 0.517136 -0.246368
N5    N     N_R   0.682216 0.050630 0.474935 -0.238848
N6    N     N_R   0.732587 0.981448 0.469947 -0.240972
O1    O     O_2   0.914730 0.537460 0.618690 -0.462088
O2    O     O_3   0.622512 0.319263 0.393644 -0.633065
O3    O     O_3   0.010200 0.250743 0.606139 -0.584793
O4    O     O_2   0.274960 0.462520 0.381280 -0.459610
O5    O     O_3   0.042980 0.462530 0.441480 -0.496617
O6    O     O_3   0.523340 0.590550 0.413420 -0.477399
O7    O     O_3   0.119570 0.348354 0.374479 -0.624476
O8    O     O_3   0.635780 0.584660 0.526290 -0.476060
O9    O     O_3   0.116060 0.626590 0.438450 -0.493677
O10   O     O_2   0.235681 0.753333 0.470654 -0.481331
O11   O     O_3   0.135724 0.739349 0.377183 -0.599274
O12   O     O_3   0.146720 0.537410 0.558510 -0.490847
O13   O     O_3   0.553920 0.415280 0.473710 -0.493152
O14   O     O_2   0.383540 0.672140 0.526840 -0.460706
O15   O     O_3   0.581234 0.699937 0.605745 -0.640180
O16   O     O_2   0.417396 0.532887 0.323122 -0.498088
O17   O     O_3   0.454675 0.671193 0.333925 -0.592903
O18   O     O_2   0.028501 0.392874 0.198438 -0.595636
O19   O     O_2   0.336247 0.378207 0.795195 -0.603035
O20   O     O_2   0.863901 0.626420 0.200909 -0.621046
O21   O     O_2   0.167781 0.611119 0.800422 -0.598747
O22   O     O_3   0.666360 0.409390 0.586570 -0.482212
O23   O     O_2   0.835055 0.448001 0.670826 -0.479928
O24   O     O_3   0.069944 0.651662 0.625263 -0.629155
O25   O     O_3   0.664588 0.341049 0.675629 -0.589549
O26   O     O_2   0.806150 0.327840 0.473120 -0.452259
O27   O     O_3   0.073640 0.373350 0.561550 -0.476684
O28   O     O_2   0.012550 0.247255 0.509098 -0.477124
P1    P     P_3+3 0.084800 0.558370 0.611580 0.998204
P2    P     P_3+3 0.628800 0.338360 0.458800 0.987052
P3    P     P_3+3 0.105696 0.280102 0.556398 0.960709
P4    P     P_3+3 0.104900 0.441570 0.388420 0.992465
P5    P     P_3+3 0.097526 0.719591 0.436955 0.951084
P6    P     P_3+3 0.665852 0.423244 0.652095 0.985598
P7    P     P_3+3 0.569031 0.674502 0.541234 0.951057
P8    P     P_3+3 0.534499 0.588134 0.348873 0.945191
C67   C     C_3   0.024662 0.159243 0.686348 -0.201496
C68   C     C_3   0.190450 0.118319 0.681854 -0.391575
H60   H     H_    0.245414 0.125384 0.646153 0.133382
H61   H     H_    0.273514 0.136867 0.713633 0.132326
H62   H     H_    0.175108 0.060338 0.682145 0.130423
H63   H     H_    0.963709 0.143052 0.718751 0.108836
H64   H     H_    0.947952 0.143576 0.652397 0.152215

loop_
_geom_bond_atom_site_label_1
_geom_bond_atom_site_label_2
_ccdc_geom_bond_type
C25   C46   A    
C23   C67   S    
C68   H60   S    
C7    H30   S    
C28   H39   S    
C1    H17   S    
C49   H55   S    
Ba1   O12   S    
C17   C18   A    
C6    H28   S    
C10   O20   D    
C6    H29   S    
C61   H54   S    
O4    P4    D    
C5    C6    S    
C45   H2    S    
C67   H64   S    
C51   C52   D    
Ba2   O12   S    
C68   H61   S    
C54   P2    S    
C57   N4    A    
C60   C61   A    
C11   C16   D    
O5    P4    S    
O16   P8    D    
Ba2   O6    S    
O27   P3    S    
C8    H35   S    
C15   H36   S    
C49   C54   D    
C3    C4    S    
C43   H41   S    
C12   H34   S    
O17   P8    S    
O12   P1    S    
C31   C47   A    
C10   C20   A    
C22   C37   D    
C4    H20   S    
C13   P8    S    
C34   C45   S    
C1    H23   S    
Ba1   Ba2   S    
C53   H52   S    
Ba1   O22   S    
C2    H1    S    
C16   N1    S    
C25   C42   A    
C56   C64   S    
C2    O25   S    
C67   C68   S    
C32   N2    Am   
O22   P6    S    
C14   C15   D    
C23   H24   S    
C22   C36   S    
C27   H40   S    
O6    P8    S    
C7    C8    S    
C33   N2    Am   
C48   H48   S    
C52   C57   S    
C13   C21   S    
C47   H46   S    
C7    H31   S    
C3    O15   S    
C44   H43   S    
Ba2   O4    S    
C55   N6    A    
Ba1   O13   S    
C6    H27   S    
Ba2   P4    S    
Ba1   O27   S    
C65   C66   S    
C1    H12   S    
C5    O11   S    
C17   C41   A    
O25   P6    S    
C15   C16   S    
C19   C43   A    
C67   H63   S    
C32   O21   D    
C36   P6    S    
C5    H25   S    
C68   H62   S    
C9    C18   A    
C49   C50   S    
Ba2   O5    S    
C55   N3    A    
Ba1   O26   S    
C17   C20   A    
C65   H11   S    
C37   C38   D    
N5    N6    A    
O23   P6    D    
Ba2   O14   S    
C4    H22   S    
O1    P1    D    
O11   P5    S    
C58   C59   A    
C40   C43   A    
C63   H57   S    
C35   C36   S    
C65   O2    S    
C41   C42   A    
C46   H44   S    
O10   P5    D    
C27   C28   A    
O9    P5    S    
C29   C30   A    
C2    H16   S    
C26   C30   A    
C14   P4    S    
C64   H8    S    
C53   C54   D    
C31   C32   A    
C5    H26   S    
C37   P1    S    
C8    H32   S    
C34   O7    S    
C11   H42   S    
C45   H3    S    
C50   P3    S    
C3    H18   S    
C9    O18   D    
C46   C47   A    
C20   C44   A    
Ba1   P1    S    
C14   C21   D    
C11   C13   S    
O15   P7    S    
O26   P2    D    
C34   H59   S    
C33   O19   D    
C66   H13   S    
C7    O17   S    
C4    H21   S    
Ba1   O1    S    
O28   P3    D    
C50   C51   S    
C56   H6    S    
C55   C62   S    
O3    P3    S    
C42   C48   A    
O7    P4    S    
C64   H9    S    
C52   C53   S    
C38   C39   S    
O8    P7    S    
C60   C63   A    
C60   P5    S    
C66   H15   S    
O2    P2    S    
C8    H33   S    
C34   H58   S    
C56   O24   S    
C21   H49   S    
C51   H51   S    
C10   N1    Am   
Ba2   O13   S    
C12   H45   S    
O13   P2    S    
C44   C48   A    
C24   C26   A    
C65   H10   S    
C58   C62   A    
C59   P7    S    
C66   H14   S    
C30   C31   A    
N3    N4    A    
C35   H38   S    
C3    H19   S    
C12   C23   S    
C39   N2    S    
C57   N5    A    
C28   C29   A    
C12   O3    S    
Ba2   O9    S    
C64   H7    S    
C22   H50   S    
C9    N1    Am   
C29   C33   A    
C24   C40   A    
C35   C39   D    
C58   H53   S    
C23   H56   S    
C45   H4    S    
Ba1   O8    S    
O14   P7    D    
C61   C62   A    
C38   H47   S    
C59   C63   A    
C18   C19   A    
Ba1   P2    S    
C24   C27   A    
C40   C41   A    
C25   C26   A    
Ba2   O8    S    
O24   P1    S    
C19   H37   S    
Ba1   O5    S    
C1    C2    S    
C56   H5    S    
