data_mof_unit_60268.cif
_audit_creation_date              2012-10-26T17:27:28-0400
_audit_creation_method            fapswitch 2.2
_symmetry_space_group_name_H-M    P1
_symmetry_Int_Tables_number       1
_space_group_crystal_system       triclinic
_cell_length_a                    18.939395
_cell_length_b                    18.742086
_cell_length_c                    18.723278
_cell_angle_alpha                 109.111308
_cell_angle_beta                  109.507461
_cell_angle_gamma                 109.61278
_cell_volume                      5127.54342329

loop_
_atom_site_label
_atom_site_type_symbol
_atom_type_description
_atom_site_fract_x
_atom_site_fract_y
_atom_site_fract_z
_atom_type_partial_charge
C1    C     C_R   0.119128 0.000312 0.619233 0.537057
C2    C     C_R   0.276046 0.048491 0.839520 -0.151740
C3    C     C_R   0.317410 0.003166 0.815906 0.028367
C4    C     C_R   0.121241 0.118797 0.502546 0.541653
C5    C     C_R   0.301810 0.968148 0.730538 0.025821
C6    C     C_3   0.278701 0.878386 0.670381 -0.288705
C7    C     C_3   0.208645 0.878113 0.600518 -0.260401
C8    C     C_R   0.737741 0.750440 0.423209 0.021402
C9    C     C_R   0.814103 0.815785 0.500730 -0.002242
C10   C     C_R   0.820431 0.823294 0.580122 -0.157092
C11   C     C_R   0.755977 0.758839 0.580155 -0.151897
C12   C     C_R   0.263181 0.175324 0.505729 -0.047182
C13   C     C_R   0.683553 0.688172 0.500824 0.014769
C14   C     C_R   0.672998 0.687863 0.423264 -0.024453
C15   C     C_3   0.652076 0.616465 0.340220 -0.244227
C16   C     C_R   0.881074 0.999624 0.381284 0.559334
C17   C     C_3   0.723910 0.685102 0.340395 0.116538
C18   C     C_R   0.815787 0.996761 0.241686 0.019437
C19   C     C_R   0.813120 0.997984 0.315106 0.025234
C20   C     C_R   0.741899 0.998783 0.323288 -0.147223
C21   C     C_R   0.676443 0.997774 0.257921 -0.151883
C22   C     C_R   0.683365 0.999017 0.185526 0.020540
C23   C     C_R   0.192391 0.185248 0.506296 0.010553
C24   C     C_R   0.754906 0.999161 0.180888 0.019321
C25   C     C_3   0.798279 0.000022 0.127677 -0.271968
C26   C     C_3   0.868354 0.998197 0.197658 -0.269000
C27   C     C_R   0.500590 0.619096 0.618929 0.545873
C28   C     C_R   0.881598 0.881230 0.500443 0.557466
C29   C     C_R   0.381537 0.378029 0.497166 0.612024
C30   C     C_R   0.500436 0.382003 0.381352 0.584183
C31   C     C_R   0.618386 0.618824 0.499605 0.543501
C32   C     C_R   0.500305 0.118921 0.118886 0.549022
C33   C     C_R   0.381812 0.000146 0.881062 0.549166
C34   C     C_R   0.185517 0.256188 0.503528 -0.151575
C35   C     C_R   0.500130 0.880918 0.881399 0.547150
C36   C     C_R   0.618249 0.999641 0.118688 0.550795
C37   C     C_R   0.430267 0.666496 0.698667 0.012688
C38   C     C_R   0.501862 0.685160 0.686995 0.025136
C39   C     C_R   0.578653 0.764932 0.748772 -0.149373
C40   C     C_R   0.276765 0.109928 0.518849 -0.115587
C41   C     C_R   0.578834 0.829426 0.813454 -0.153594
C42   C     C_R   0.502792 0.813260 0.818065 0.013245
C43   C     C_R   0.430896 0.729307 0.763567 0.032760
C44   C     C_3   0.338641 0.700772 0.706674 -0.269868
C45   C     C_R   0.247032 0.316857 0.498599 -0.172535
C46   C     C_3   0.338113 0.631647 0.635408 -0.276154
C47   C     C_R   0.426540 0.241096 0.247657 0.027710
C48   C     C_R   0.501856 0.317134 0.315337 0.024328
C49   C     C_R   0.580347 0.327985 0.318310 -0.165011
C50   C     C_R   0.580241 0.263278 0.253098 -0.152692
C51   C     C_R   0.501932 0.186013 0.186192 0.016933
C52   C     C_R   0.342707 0.095884 0.511356 0.224975
C53   C     C_R   0.426754 0.177775 0.187109 0.013522
C54   C     C_3   0.331331 0.119694 0.140648 -0.273814
C55   C     C_3   0.331284 0.191705 0.210501 -0.264039
C56   C     C_R   0.315448 0.306659 0.493834 0.027903
C57   C     C_R   0.393799 0.145576 0.488198 -0.048863
C58   C     C_R   0.383698 0.212960 0.477185 0.200786
C59   C     C_R   0.322171 0.232849 0.492777 0.047887
C60   C     C_R   0.238026 0.967989 0.666918 0.013965
C61   C     C_R   0.189396 0.004691 0.687238 0.007596
C62   C     C_R   0.212557 0.049764 0.775475 -0.149577
Cu1   Cu    Cu3+1 0.000020 0.938200 0.438210 0.951615
Cu2   Cu    Cu3+1 0.999980 0.061800 0.561790 0.932328
Cu3   Cu    Cu3+1 0.438170 0.500030 0.438220 0.936300
Cu4   Cu    Cu3+1 0.561770 0.500000 0.561810 0.968185
Cu5   Cu    Cu3+1 0.561810 0.061820 0.000030 0.940588
Cu6   Cu    Cu3+1 0.438190 0.938280 0.000080 0.932696
H1    H     H_    0.252621 0.830585 0.690496 0.131690
H2    H     H_    0.621848 0.997749 0.264738 0.129953
H3    H     H_    0.759716 0.939488 0.063205 0.137955
H4    H     H_    0.821631 0.062011 0.125965 0.144981
H5    H     H_    0.870682 0.936852 0.173475 0.154471
H6    H     H_    0.931946 0.059375 0.236667 0.135354
H7    H     H_    0.636928 0.778702 0.744425 0.117421
H8    H     H_    0.296282 0.673143 0.730899 0.145174
H9    H     H_    0.331365 0.751116 0.691223 0.125911
H10   H     H_    0.295743 0.564124 0.618777 0.132795
H11   H     H_    0.330254 0.641901 0.578622 0.151855
H12   H     H_    0.220632 0.877275 0.546146 0.141304
H13   H     H_    0.640943 0.272976 0.255731 0.132409
H14   H     H_    0.299025 0.110774 0.074228 0.131736
H15   H     H_    0.298431 0.223955 0.184338 0.143018
H16   H     H_    0.313807 0.172493 0.255049 0.165383
H17   H     H_    0.241567 0.372803 0.499263 0.122872
H18   H     H_    0.179144 0.082505 0.794542 0.138327
H19   H     H_    0.291039 0.080535 0.906658 0.110108
H20   H     H_    0.331211 0.877873 0.656425 0.144142
H21   H     H_    0.131668 0.264221 0.504328 0.130392
H22   H     H_    0.763468 0.763168 0.641630 0.125635
H23   H     H_    0.142079 0.830035 0.580073 0.146197
H24   H     H_    0.647777 0.714852 0.270213 0.333512
H25   H     H_    0.637394 0.892152 0.858185 0.130717
H26   H     H_    0.316422 0.003439 0.540587 0.320906
H27   H     H_    0.640995 0.386410 0.369900 0.120066
H28   H     H_    0.313225 0.058743 0.144506 0.150258
H29   H     H_    0.441729 0.131228 0.478338 0.129159
H30   H     H_    0.467431 0.232293 0.436837 0.315770
H31   H     H_    0.876893 0.876491 0.641627 0.127089
H32   H     H_    0.666893 0.566548 0.349693 0.103154
H33   H     H_    0.586054 0.589756 0.286492 0.155825
H34   H     H_    0.780006 0.674861 0.348598 0.162648
H35   H     H_    0.736441 0.999222 0.379186 0.132217
H36   H     H_    0.237358 0.070262 0.536422 0.131759
O1    O     O_R   0.090180 0.947810 0.537990 -0.522627
O2    O     O_R   0.447830 0.038100 0.090230 -0.511439
O3    O     O_R   0.462030 0.052220 0.909860 -0.498353
O4    O     O_R   0.090150 0.052180 0.642350 -0.516827
O5    O     O_R   0.357640 0.947890 0.909900 -0.515888
O6    O     O_R   0.552170 0.962000 0.909870 -0.514610
O7    O     O_R   0.447780 0.857670 0.909910 -0.505483
O8    O     O_R   0.642360 0.052210 0.090200 -0.513678
O9    O     O_R   0.537970 0.947880 0.090240 -0.508574
O10   O     O_R   0.090190 0.037990 0.447830 -0.515715
O11   O     O_R   0.090170 0.142360 0.552190 -0.508916
O12   O     O_R   0.552150 0.590170 0.642370 -0.513671
O13   O     O_R   0.909850 0.947820 0.357650 -0.491004
O14   O     O_R   0.909820 0.052190 0.462010 -0.515265
O15   O     O_R   0.909830 0.857640 0.447810 -0.497750
O16   O     O_R   0.909810 0.962010 0.552170 -0.512181
O17   O     O_R   0.447770 0.590190 0.538000 -0.515831
O18   O     O_3   0.694038 0.700847 0.270652 -0.675911
O19   O     O_3   0.357363 0.032558 0.524015 -0.694789
O20   O     O_3   0.429374 0.255549 0.446038 -0.697818
O21   O     O_R   0.357600 0.409850 0.447820 -0.522274
O22   O     O_R   0.461980 0.409830 0.552180 -0.461533
O23   O     O_R   0.447790 0.409860 0.357660 -0.512020
O24   O     O_R   0.552170 0.409840 0.462020 -0.488172
O25   O     O_R   0.537960 0.590200 0.447840 -0.506587
O26   O     O_R   0.642340 0.590180 0.552210 -0.522884
O27   O     O_R   0.552220 0.142430 0.090190 -0.512018

loop_
_geom_bond_atom_site_label_1
_geom_bond_atom_site_label_2
_ccdc_geom_bond_type
C6    H1    S    
C37   C43   A    
C29   O21   A    
C41   C42   A    
C4    O11   A    
C19   C20   A    
C33   O3    A    
C15   H32   S    
C43   C44   S    
C27   O17   A    
Cu2   O14   S    
C39   C41   A    
C20   H35   S    
C53   C54   S    
H30   O20   S    
C62   H18   S    
C12   C23   A    
Cu4   O12   S    
C18   C24   A    
Cu3   O23   S    
C30   C48   S    
C44   H9    S    
C31   O26   A    
H24   O18   S    
C46   H11   S    
Cu1   O13   S    
C52   O19   S    
C3    C33   S    
C27   C38   S    
C26   H5    S    
C6    H20   S    
C18   C19   A    
C44   H8    S    
C35   C42   S    
C30   O23   A    
C12   C59   A    
C41   H25   S    
C45   C56   A    
C8    C9    A    
C18   C26   S    
C36   O8    A    
C25   H3    S    
C39   H7    S    
Cu1   O1    S    
C9    C10   A    
C54   H28   S    
Cu6   O9    S    
C47   C53   A    
H26   O19   S    
C7    H23   S    
Cu2   O11   S    
C32   O2    A    
C29   O22   A    
Cu1   O10   S    
C61   C62   A    
Cu6   O2    S    
C36   O9    A    
C44   C46   S    
Cu2   O4    S    
C38   C39   A    
C30   O24   A    
Cu5   Cu6   S    
C24   C25   S    
C28   O16   A    
C46   H10   S    
C4    C23   S    
C25   C26   S    
C40   C52   A    
C15   H33   S    
Cu4   O22   S    
C60   C61   A    
C51   C53   A    
Cu6   O7    S    
Cu3   O21   S    
C12   C40   A    
C45   H17   S    
C17   H34   S    
C32   C51   S    
C37   C38   A    
C16   O14   A    
C40   H36   S    
Cu1   O15   S    
Cu5   O8    S    
Cu5   O6    S    
C47   C48   A    
C23   C34   A    
C57   H29   S    
C50   C51   A    
C2    H19   S    
C25   H4    S    
C49   H27   S    
C35   O6    A    
C34   C45   A    
C48   C49   A    
C49   C50   A    
Cu3   O17   S    
C22   C24   A    
C33   O5    A    
C42   C43   A    
C55   H15   S    
C52   C57   A    
C7    C60   S    
C54   H14   S    
C35   O7    A    
C47   C55   S    
C4    O10   A    
C15   C17   S    
C54   C55   S    
C8    C14   A    
C5    C60   A    
C13   C31   S    
Cu5   O27   S    
C3    C5    A    
C28   O15   A    
C1    C61   S    
Cu3   O25   S    
C6    C7    S    
C29   C56   S    
C22   C36   S    
C58   O20   S    
C8    C17   S    
Cu2   O16   S    
C56   C59   A    
C21   H2    S    
C21   C22   A    
C2    C3    A    
C58   C59   A    
C34   H21   S    
C31   O25   A    
C16   O13   A    
C27   O12   A    
C11   C13   A    
C11   H22   S    
Cu5   O3    S    
C57   C58   A    
C5    C6    S    
C16   C19   S    
C26   H6    S    
Cu4   O24   S    
Cu6   O5    S    
C10   H31   S    
C10   C11   A    
C1    O4    A    
Cu1   Cu2   S    
C17   O18   S    
C20   C21   A    
C50   H13   S    
Cu3   Cu4   S    
C14   C15   S    
C37   C46   S    
C13   C14   A    
C55   H16   S    
C32   O27   A    
C2    C62   A    
C9    C28   S    
C1    O1    A    
C7    H12   S    
Cu4   O26   S    
