data_mof_unit_12544.cif
_audit_creation_date              2012-12-10T20:38:20-0500
_audit_creation_method            fapswitch 2.2
_symmetry_space_group_name_H-M    P1
_symmetry_Int_Tables_number       1
_space_group_crystal_system       triclinic
_cell_length_a                    9.843011
_cell_length_b                    10.685264
_cell_length_c                    16.639093
_cell_angle_alpha                 89.753836
_cell_angle_beta                  85.212528
_cell_angle_gamma                 89.84425
_cell_volume                      1743.89288128

loop_
_atom_site_label
_atom_site_type_symbol
_atom_type_description
_atom_site_fract_x
_atom_site_fract_y
_atom_site_fract_z
_atom_type_partial_charge
C1    C     C_R   0.499382 0.739921 0.501702 0.901736
C2    C     C_R   0.342755 0.446164 0.781069 -0.196737
C3    C     C_R   0.436862 0.324022 0.161334 -0.208900
C4    C     C_R   0.423810 0.377282 0.237108 -0.219362
C5    C     C_R   0.652889 0.460654 0.215445 -0.252272
C6    C     C_R   0.666886 0.408985 0.138005 0.216848
C7    C     C_R   0.554950 0.343995 0.109898 0.176763
C8    C     C_2   0.443909 0.366287 0.986926 -0.246569
C9    C     C_2   0.549318 0.319897 0.023699 -0.249503
C10   C     C_R   0.530305 0.448378 0.263860 -0.064819
C11   C     C_R   0.380426 0.937202 0.496009 0.129172
C12   C     C_R   0.481013 0.498575 0.653766 0.842958
C13   C     C_R   0.495280 0.870845 0.513696 -0.142308
C14   C     C_R   0.600746 0.930822 0.549511 -0.268715
C15   C     C_R   0.602739 0.061068 0.553828 0.151588
C16   C     C_R   0.496984 0.128041 0.518638 -0.142704
C17   C     C_R   0.381629 0.064360 0.497969 0.111635
C18   C     C_3   0.303588 0.075245 0.424792 -0.489103
C19   C     C_3   0.302746 0.933413 0.422713 -0.475382
C20   C     C_R   0.924173 0.599047 0.531128 0.226763
C21   C     C_R   0.933571 0.408580 0.461968 -0.149207
C22   C     C_R   0.077717 0.408717 0.461851 -0.133729
C23   C     C_R   0.499867 0.259969 0.504894 0.885789
C24   C     C_R   0.066856 0.599060 0.531010 0.218533
C25   C     C_3   0.061533 0.645558 0.615433 -0.510912
C26   C     C_3   0.907221 0.644924 0.615896 -0.520360
C27   C     C_R   0.518830 0.492633 0.346734 0.872480
C28   C     C_R   0.469304 0.476628 0.740592 -0.041818
C29   C     C_R   0.587505 0.471844 0.781817 -0.216182
C30   C     C_R   0.580485 0.433022 0.861452 -0.149492
C31   C     C_R   0.454809 0.397969 0.901156 0.208158
C32   C     C_R   0.335651 0.407670 0.861240 -0.177881
H1    H     H_    0.686095 0.495568 0.752227 0.147985
H2    H     H_    0.683080 0.876524 0.571568 0.156762
H3    H     H_    0.200428 0.115858 0.439062 0.197135
H4    H     H_    0.364108 0.118489 0.372469 0.199025
H5    H     H_    0.199398 0.892666 0.435773 0.203178
H6    H     H_    0.363275 0.893672 0.369348 0.198164
H7    H     H_    0.883489 0.333666 0.432514 0.144844
H8    H     H_    0.136605 0.334338 0.432008 0.139764
H9    H     H_    0.101139 0.576176 0.657681 0.212218
H10   H     H_    0.330548 0.361450 0.275113 0.158844
H11   H     H_    0.104968 0.741150 0.618720 0.201975
H12   H     H_    0.858062 0.574713 0.658135 0.211455
H13   H     H_    0.861659 0.740112 0.620255 0.191682
H14   H     H_    0.737108 0.511347 0.237832 0.151489
H15   H     H_    0.640514 0.287988 0.988641 0.163563
H16   H     H_    0.237488 0.384360 0.891938 0.124926
H17   H     H_    0.351692 0.272119 0.141128 0.146085
H18   H     H_    0.249999 0.448827 0.750397 0.148890
H19   H     H_    0.352249 0.397815 0.022130 0.157475
H20   H     H_    0.673371 0.433204 0.891861 0.120344
N1    N     N_R   0.857140 0.500860 0.500530 -0.103770
N2    N     N_R   0.142780 0.500820 0.500530 -0.104611
O1    O     O_R   0.385310 0.683210 0.499990 -0.611957
O2    O     O_R   0.614650 0.683240 0.500000 -0.618097
O3    O     O_R   0.371780 0.500000 0.615800 -0.618253
O4    O     O_R   0.601120 0.500040 0.615800 -0.617279
O5    O     O_R   0.385350 0.316760 0.500000 -0.618057
O6    O     O_R   0.614690 0.316790 0.500010 -0.622571
O7    O     O_R   0.398880 0.499960 0.384200 -0.617157
O8    O     O_R   0.628220 0.500000 0.384200 -0.612171
Zn1   Zn    Zn3+2 0.346870 0.499980 0.499990 0.939590
Zn2   Zn    Zn3+2 0.653130 0.500020 0.500010 0.937756
C33   C     C_3   0.798730 0.430011 0.086068 -0.442641
C34   C     C_3   0.887544 0.312521 0.082862 -0.883803
H21   H     H_    0.914744 0.287510 0.144395 0.263120
H22   H     H_    0.833696 0.232463 0.057654 0.255271
H23   H     H_    0.982926 0.330213 0.044025 0.246431
H24   H     H_    0.777785 0.459480 0.024254 0.199898
H25   H     H_    0.857992 0.507361 0.110692 0.206026
C35   C     C_3   0.717851 0.121518 0.595017 -0.394492
C36   C     C_3   0.664524 0.184866 0.673438 -0.804396
H26   H     H_    0.749082 0.234522 0.699849 0.240323
H27   H     H_    0.583477 0.253310 0.662601 0.257445
H28   H     H_    0.621940 0.113758 0.717396 0.248789
H29   H     H_    0.793868 0.050150 0.610673 0.186592
H30   H     H_    0.776357 0.187997 0.554441 0.225744

loop_
_geom_bond_atom_site_label_1
_geom_bond_atom_site_label_2
_ccdc_geom_bond_type
C10   C27   S    
C8    C9    D    
C34   H22   S    
C32   H16   S    
C36   H26   S    
C25   H11   S    
C3    H17   S    
C26   H12   S    
C22   N2    A    
C23   O5    A    
C15   C35   S    
C11   C19   S    
C29   C30   A    
C20   C26   S    
C12   C28   S    
C28   C29   A    
C27   O8    A    
C1    O2    A    
C3    C7    A    
C5    C6    A    
N1    Zn2   S    
C34   H23   S    
N2    Zn1   S    
C24   N2    A    
C15   C16   A    
C29   H1    S    
C2    C32   A    
C18   C19   S    
O7    Zn1   S    
C35   H30   S    
C2    H18   S    
C26   H13   S    
C6    C33   S    
C20   C24   A    
C16   C17   A    
O1    Zn1   S    
O8    Zn2   S    
O2    Zn2   S    
C27   O7    A    
C18   H3    S    
C12   O4    A    
C34   H21   S    
C13   C14   A    
C36   H27   S    
O3    Zn1   S    
O4    Zn2   S    
C23   O6    A    
C24   C25   S    
C25   H9    S    
C20   N1    A    
C25   C26   S    
C33   H25   S    
C35   H29   S    
C19   H5    S    
C19   H6    S    
C31   C32   A    
C21   H7    S    
C22   H8    S    
C17   C18   S    
C8    H19   S    
C12   O3    A    
C9    H15   S    
C16   C23   S    
C36   H28   S    
C1    C13   S    
C4    C10   A    
C3    C4    A    
C7    C9    S    
C30   H20   S    
C11   C17   A    
C8    C31   S    
C35   C36   S    
C14   H2    S    
C6    C7    A    
C5    H14   S    
O5    Zn1   S    
O6    Zn2   S    
C1    O1    A    
C5    C10   A    
C21   N1    A    
C11   C13   A    
C30   C31   A    
C4    H10   S    
C33   C34   S    
C14   C15   A    
C2    C28   A    
C21   C22   A    
C18   H4    S    
C33   H24   S    
