data_mof_unit_11016.cif
_audit_creation_date              2012-12-10T19:11:32-0500
_audit_creation_method            fapswitch 2.2
_symmetry_space_group_name_H-M    P1
_symmetry_Int_Tables_number       1
_space_group_crystal_system       triclinic
_cell_length_a                    10.744599
_cell_length_b                    9.957494
_cell_length_c                    10.459809
_cell_angle_alpha                 89.917548
_cell_angle_beta                  89.904446
_cell_angle_gamma                 87.95769
_cell_volume                      1118.37395033

loop_
_atom_site_label
_atom_site_type_symbol
_atom_type_description
_atom_site_fract_x
_atom_site_fract_y
_atom_site_fract_z
_atom_type_partial_charge
C1    C     C_R   0.258258 0.501742 0.503596 0.974356
C2    C     C_3   0.499327 0.501243 0.122547 0.023940
C3    C     C_3   0.063602 0.647623 0.500236 1.060140
C4    C     C_3   0.070574 0.428502 0.623198 1.087371
C5    C     C_3   0.922561 0.643992 0.506731 -0.424467
C6    C     C_3   0.927749 0.422691 0.616197 -0.519611
C7    C     C_3   0.080356 0.430237 0.378978 -0.510991
C8    C     C_3   0.121109 0.502599 0.502646 -0.254857
C9    C     C_3   0.878887 0.496763 0.494611 -0.199546
C10   C     C_3   0.936505 0.431750 0.367564 0.218190
C11   C     C_3   0.382298 0.086645 0.442249 -0.175913
C12   C     C_3   0.392642 0.927440 0.423531 -0.229964
C13   C     C_3   0.607801 0.074932 0.420899 0.666609
C14   C     C_3   0.616562 0.914711 0.436139 0.675649
C15   C     C_3   0.511392 0.080838 0.630398 -0.050493
C16   C     C_3   0.492598 0.921811 0.630261 0.045716
C17   C     C_R   0.499731 0.500320 0.257981 0.828895
C18   C     C_R   0.741862 0.498312 0.496492 0.880480
C19   C     C_R   0.499954 0.499637 0.741843 0.881374
C20   C     C_3   0.497531 0.628051 0.039685 -0.162086
C21   C     C_3   0.397721 0.438759 0.042693 -0.139051
C22   C     C_3   0.396042 0.565331 0.957151 -0.124076
C23   C     C_3   0.499543 0.498404 0.877155 0.021279
C24   C     C_3   0.601068 0.560816 0.957012 -0.178577
C25   C     C_3   0.501137 0.371483 0.959844 -0.139560
C26   C     C_3   0.602744 0.434115 0.042397 -0.197869
H1    H     H_    0.312111 0.618529 0.917429 0.189586
H2    H     H_    0.366316 0.134489 0.347559 0.162161
H3    H     H_    0.406467 0.911607 0.320096 0.138853
H4    H     H_    0.438054 0.128999 0.691898 0.152674
H5    H     H_    0.397733 0.906987 0.668319 0.119123
H6    H     H_    0.494703 0.733316 0.074085 0.140806
H7    H     H_    0.315120 0.389338 0.082579 0.146973
H8    H     H_    0.683675 0.610356 0.917289 0.153921
H9    H     H_    0.501911 0.266731 0.923788 0.137002
H10   H     H_    0.686747 0.380626 0.081570 0.147573
H11   H     H_    0.889413 0.688062 0.599198 0.240856
H12   H     H_    0.885844 0.470928 0.702979 0.185898
H13   H     H_    0.881805 0.709918 0.430782 0.234168
H14   H     H_    0.898072 0.317058 0.619276 0.226325
H15   H     H_    0.122794 0.477683 0.293589 0.216031
H16   H     H_    0.119116 0.325269 0.379125 0.216979
N1    N     N_3   0.499750 0.138610 0.497240 -0.128222
N2    N     N_3   0.499750 0.861390 0.497240 -0.125703
O1    O     O_R   0.314910 0.616040 0.499970 -0.541270
O2    O     O_R   0.314910 0.383960 0.499970 -0.575636
O3    O     O_R   0.500080 0.616020 0.313900 -0.641709
O4    O     O_R   0.500080 0.383980 0.313900 -0.656743
O5    O     O_R   0.685320 0.616040 0.499930 -0.599422
O6    O     O_R   0.685320 0.383960 0.499930 -0.596257
O7    O     O_R   0.500150 0.616060 0.686000 -0.591432
O8    O     O_R   0.500150 0.383940 0.686000 -0.649719
Zn1   Zn    Zn3+2 0.500150 0.654960 0.499940 0.991491
Zn2   Zn    Zn3+2 0.500150 0.345040 0.499940 0.957895
N3    N     N_3   0.897819 0.508882 0.252826 -0.429203
H17   H     H_    0.937000 0.603219 0.250094 0.237834
H18   H     H_    0.801014 0.523579 0.251395 0.145348
N4    N     N_3   0.900880 0.292578 0.347335 -0.397015
H19   H     H_    0.807417 0.290682 0.322381 0.235845
H20   H     H_    0.918192 0.233094 0.427916 0.265041
N5    N     N_3   0.273078 0.130893 0.517823 -0.322733
H21   H     H_    0.263975 0.078881 0.603589 0.211565
H22   H     H_    0.192019 0.118429 0.464687 0.207347
N6    N     N_3   0.275501 0.863967 0.447951 -0.288670
H23   H     H_    0.246794 0.877123 0.541976 0.256653
H24   H     H_    0.207693 0.908707 0.388464 0.241044
N7    N     N_3   0.604138 0.110071 0.283801 -0.476727
H25   H     H_    0.522473 0.088773 0.235749 0.109875
H26   H     H_    0.630706 0.207366 0.266142 0.228627
N8    N     N_3   0.647201 0.851709 0.311622 -0.441802
H27   H     H_    0.573747 0.847701 0.247688 0.128582
H28   H     H_    0.687635 0.755907 0.321435 0.233051
N9    N     N_3   0.630602 0.112935 0.690454 -0.360649
H29   H     H_    0.652615 0.212060 0.672731 0.277973
H30   H     H_    0.621570 0.104507 0.789708 0.136110
N10   N     N_3   0.574500 0.849476 0.722084 -0.358946
H31   H     H_    0.667303 0.875822 0.718522 0.272284
H32   H     H_    0.543361 0.871463 0.814848 0.141003
F1    F     F_    0.718602 0.123134 0.465687 -0.638120
F2    F     F_    0.718469 0.883700 0.512798 -0.636197
F3    F     F_    0.095355 0.710153 0.387192 -0.707099
F4    F     F_    0.118994 0.298842 0.632256 -0.673802
F5    F     F_    0.104407 0.720847 0.603631 -0.655946
F6    F     F_    0.104071 0.495335 0.733526 -0.650414

loop_
_geom_bond_atom_site_label_1
_geom_bond_atom_site_label_2
_ccdc_geom_bond_type
C7    C10   S    
N3    H17   S    
C13   F1    S    
C5    H11   S    
C12   H3    S    
C1    C8    S    
N9    H30   S    
N9    H29   S    
C17   O4    A    
C4    C8    S    
C6    C9    S    
C7    C8    S    
C16   H5    S    
O4    Zn2   S    
O6    Zn2   S    
C10   N4    S    
C24   C26   S    
C13   N7    S    
C12   N6    S    
C1    O2    A    
C21   H7    S    
N4    H20   S    
C15   C16   S    
C7    H16   S    
N5    H22   S    
C19   O8    A    
C20   C24   S    
C3    F3    S    
C23   C24   S    
C6    H12   S    
C11   N1    S    
N8    H27   S    
C14   F2    S    
C9    C10   S    
C16   N2    S    
O3    Zn1   S    
C23   C25   S    
O1    Zn1   S    
C21   C22   S    
C2    C17   S    
C14   N8    S    
N2    Zn1   S    
O8    Zn2   S    
C2    C20   S    
N7    H25   S    
N10   H31   S    
C4    C6    S    
C3    C8    S    
C3    C5    S    
C25   C26   S    
C24   H8    S    
O7    Zn1   S    
N6    H24   S    
C19   C23   S    
C5    C9    S    
N1    Zn2   S    
C4    F6    S    
O2    Zn2   S    
C2    C21   S    
C2    C26   S    
C10   N3    S    
C25   H9    S    
C26   H10   S    
C15   N9    S    
C20   C22   S    
C22   H1    S    
N3    H18   S    
C3    F5    S    
C6    H14   S    
C13   N1    S    
C18   O6    A    
C15   H4    S    
C14   N2    S    
C20   H6    S    
C21   C25   S    
C16   N10   S    
C17   O3    A    
N10   H32   S    
C11   N5    S    
C11   C12   S    
N6    H23   S    
C5    H13   S    
N4    H19   S    
C15   N1    S    
C12   N2    S    
C1    O1    A    
C11   H2    S    
O5    Zn1   S    
C7    H15   S    
N5    H21   S    
C19   O7    A    
C9    C18   S    
C4    F4    S    
C22   C23   S    
N8    H28   S    
N7    H26   S    
C13   C14   S    
C18   O5    A    
