data_mof_unit_62375.cif
_audit_creation_date              2012-12-10T20:53:18-0500
_audit_creation_method            fapswitch 2.2
_symmetry_space_group_name_H-M    P1
_symmetry_Int_Tables_number       1
_space_group_crystal_system       triclinic
_cell_length_a                    15.854639
_cell_length_b                    15.076734
_cell_length_c                    10.750749
_cell_angle_alpha                 89.998075
_cell_angle_beta                  90.018379
_cell_angle_gamma                 89.997357
_cell_volume                      2569.81778154

loop_
_atom_site_label
_atom_site_type_symbol
_atom_type_description
_atom_site_fract_x
_atom_site_fract_y
_atom_site_fract_z
_atom_type_partial_charge
C1    C     C_R   0.338886 0.500001 0.500243 0.913239
C2    C     C_R   0.661114 0.499996 0.499955 0.914460
C3    C     C_R   0.472360 0.953141 0.395371 -0.150758
C4    C     C_R   0.527639 0.953127 0.604636 -0.149761
C5    C     C_R   0.500000 0.905040 0.500004 0.075046
C6    C     C_R   0.527639 0.046862 0.604639 -0.155762
C7    C     C_R   0.472362 0.046876 0.395372 -0.156660
C8    C     C_R   0.500000 0.094962 0.500005 0.078191
C9    C     C_1   0.500000 0.807159 0.500002 0.064469
C10   C     C_1   0.500000 0.192842 0.500003 0.045833
C11   C     C_R   0.494564 0.499878 0.262193 0.780060
C12   C     C_R   0.505450 0.499867 0.737801 0.779589
C13   C     C_2   0.497140 0.427463 0.933318 -0.172650
C14   C     C_2   0.502864 0.427465 0.066683 -0.173478
C15   C     C_2   0.522372 0.498503 0.868804 0.379692
C16   C     C_2   0.477692 0.498534 0.131171 0.379435
C17   C     C_R   0.955969 0.567467 0.591354 0.449138
C18   C     C_R   0.044008 0.567490 0.591361 0.449164
C19   C     C_R   0.912866 0.502231 0.521249 -0.054383
C20   C     C_R   0.087125 0.502265 0.521273 -0.054642
C21   C     C_R   0.956483 0.437677 0.454500 -0.212617
C22   C     C_R   0.043525 0.437695 0.454515 -0.213883
C23   C     C_1   0.824029 0.500970 0.513227 -0.032992
C24   C     C_1   0.175964 0.501005 0.513336 -0.033575
C25   C     C_1   0.250631 0.500201 0.506424 -0.170108
C26   C     C_1   0.749367 0.500179 0.506228 -0.171405
H1    H     H_    0.469645 0.369520 0.888873 0.126592
H2    H     H_    0.530274 0.369480 0.111152 0.126321
H3    H     H_    0.923051 0.387821 0.401064 0.178664
H4    H     H_    0.076967 0.387848 0.401094 0.178278
H5    H     H_    0.450707 0.081854 0.313361 0.136652
H6    H     H_    0.549293 0.081831 0.686649 0.137058
H7    H     H_    0.450702 0.918172 0.313362 0.141845
H8    H     H_    0.549297 0.918149 0.686645 0.142308
N1    N     N_1   0.500000 0.270550 0.500000 -0.085574
N2    N     N_1   0.500000 0.729450 0.500000 -0.082516
O1    O     O_R   0.378020 0.573650 0.500040 -0.604504
O2    O     O_R   0.621980 0.573650 0.499960 -0.604421
O3    O     O_R   0.378020 0.426320 0.500100 -0.604347
O4    O     O_R   0.621980 0.426320 0.499900 -0.604496
O5    O     O_R   0.500000 0.573650 0.319080 -0.605847
O6    O     O_R   0.500000 0.573650 0.680920 -0.606522
O7    O     O_R   0.500000 0.426320 0.319140 -0.634497
O8    O     O_R   0.500000 0.426320 0.680860 -0.633702
Zn1   Zn    Zn3+2 0.500000 0.598370 0.500000 1.001986
Zn2   Zn    Zn3+2 0.500000 0.401630 0.500000 0.979932
O9    O     O_3   0.566940 0.566509 0.925758 -0.719285
H9    H     H_    0.584835 0.609988 0.861863 0.338524
O10   O     O_3   0.433225 0.566608 0.074167 -0.719410
H10   H     H_    0.415381 0.610125 0.138028 0.338747
O11   O     O_3   0.084565 0.632470 0.659906 -0.699027
H11   H     H_    0.146381 0.624399 0.655660 0.337121
O12   O     O_3   0.915389 0.632423 0.659897 -0.700168
H12   H     H_    0.853581 0.624289 0.655703 0.334645

loop_
_geom_bond_atom_site_label_1
_geom_bond_atom_site_label_2
_ccdc_geom_bond_type
C9    N2    T    
O4    Zn2   S    
C11   O7    A    
C10   N1    T    
C14   C16   D    
C1    O1    A    
C11   C16   S    
C2    O2    A    
C1    O3    A    
C3    C7    A    
O9    H9    S    
C12   C15   S    
C15   O9    S    
C14   H2    S    
C21   C22   A    
C17   C18   A    
C17   O12   S    
N2    Zn1   S    
C2    C26   S    
C13   C14   S    
C24   C25   T    
C1    C25   S    
C5    C9    S    
O3    Zn2   S    
C6    C8    A    
C4    C6    A    
C19   C21   A    
O8    Zn2   S    
C18   O11   S    
C11   O5    A    
C18   C20   A    
C13   C15   D    
O7    Zn2   S    
C4    H8    S    
C7    H5    S    
C3    H7    S    
O1    Zn1   S    
O11   H11   S    
C2    O4    A    
C7    C8    A    
C16   O10   S    
C8    C10   S    
C6    H6    S    
C23   C26   T    
O10   H10   S    
O5    Zn1   S    
C19   C23   S    
C12   O8    A    
O2    Zn1   S    
C12   O6    A    
C22   H4    S    
C17   C19   A    
O12   H12   S    
N1    Zn2   S    
C21   H3    S    
C13   H1    S    
C20   C24   S    
C20   C22   A    
C4    C5    A    
C3    C5    A    
O6    Zn1   S    
