data_mof_unit_18176.cif
_audit_creation_date              2013-03-05T15:42:07-0500
_audit_creation_method            fapswitch 2.2
_symmetry_space_group_name_H-M    P1
_symmetry_Int_Tables_number       1
_space_group_crystal_system       triclinic
_cell_length_a                    21.979519
_cell_length_b                    7.204484
_cell_length_c                    14.897
_cell_angle_alpha                 90.00421
_cell_angle_beta                  106.797558
_cell_angle_gamma                 90.008762
_cell_volume                      2258.30380861

loop_
_atom_site_label
_atom_site_type_symbol
_atom_site_description
_atom_site_fract_x
_atom_site_fract_y
_atom_site_fract_z
_atom_type_partial_charge
O1    O     O_R   0.584770 0.505770 0.002090 -0.547156
O2    O     O_R   0.415230 0.005770 0.997910 -0.547049
O3    O     O_R   0.467060 0.173340 0.861950 -0.555725
O4    O     O_R   0.532940 0.673340 0.138050 -0.555716
C1    C     C_R   0.455154 0.344200 0.825949 0.811703
C2    C     C_R   0.544849 0.844226 0.174048 0.811581
O5    O     O_R   0.587510 0.175890 0.993210 -0.562705
O6    O     O_R   0.412490 0.675890 0.006790 -0.562783
O7    O     O_R   0.536540 0.008150 0.130100 -0.550984
O8    O     O_R   0.463460 0.508150 0.869900 -0.550853
C3    C     C_R   0.613193 0.344509 0.999317 0.826698
C4    C     C_R   0.386808 0.844484 0.000683 0.826628
O9    O     O_3   0.483140 0.340040 0.044760 -0.273483
O10   O     O_3   0.516860 0.840040 0.955240 -0.273393
V1    V     V_3+5 0.503130 0.064190 0.991700 1.197829
V2    V     V_3+5 0.496870 0.564190 0.008300 1.197747
C5    C     C_2   0.213799 0.734189 0.000376 -0.086283
C6    C     C_2   0.786237 0.234212 0.999874 -0.086212
C7    C     C_2   0.183588 0.890670 0.015069 0.206794
C8    C     C_2   0.816403 0.390543 0.984841 0.207356
C9    C     C_2   0.283315 0.718381 0.011077 -0.019731
C10   C     C_2   0.716722 0.218324 0.989164 -0.019670
C11   C     C_2   0.318443 0.858989 0.993055 -0.161452
C12   C     C_2   0.681554 0.359083 0.006905 -0.161398
H1    H     H_    0.304913 0.582697 0.029029 0.148744
H2    H     H_    0.695165 0.082490 0.971484 0.148555
C13   C     C_R   0.925203 0.883562 0.724303 -0.146613
C14   C     C_R   0.074824 0.383771 0.275690 -0.146404
C15   C     C_R   0.573214 0.850536 0.275539 -0.081676
C16   C     C_R   0.426809 0.350364 0.724449 -0.081386
C17   C     C_R   0.936268 0.822237 0.570633 0.005228
C18   C     C_R   0.063705 0.324550 0.429513 0.005231
C19   C     C_R   0.962534 0.831396 0.667215 -0.116453
C20   C     C_R   0.037433 0.332928 0.332910 -0.116213
C21   C     C_R   0.859754 0.918494 0.684976 0.299911
C22   C     C_R   0.140325 0.418112 0.314917 0.299616
C23   C     C_R   0.830639 0.878831 0.588099 -0.029851
C24   C     C_R   0.169397 0.379245 0.411880 -0.030027
C25   C     C_R   0.870723 0.850390 0.529536 -0.059184
C26   C     C_R   0.129290 0.352215 0.470526 -0.058984
C27   C     C_R   0.763400 0.860904 0.548172 -0.012617
C28   C     C_R   0.236610 0.360783 0.451830 -0.012590
C29   C     C_R   0.736630 0.857108 0.449126 -0.022819
C30   C     C_R   0.263394 0.357938 0.550879 -0.022814
C31   C     C_R   0.778397 0.851611 0.392728 -0.110808
C32   C     C_R   0.221637 0.353891 0.607310 -0.110933
C33   C     C_R   0.844268 0.843843 0.431442 0.351580
C34   C     C_R   0.155755 0.346589 0.568635 0.351694
C35   C     C_R   0.723153 0.826279 0.604738 -0.017450
C36   C     C_R   0.276786 0.324655 0.395331 -0.017691
C37   C     C_R   0.657464 0.810628 0.567580 0.325417
C38   C     C_R   0.342443 0.308183 0.432517 0.325747
C39   C     C_R   0.629571 0.829650 0.470231 -0.039969
C40   C     C_R   0.370387 0.327990 0.529813 -0.039636
C41   C     C_R   0.669020 0.851083 0.409889 0.031735
C42   C     C_R   0.330995 0.351229 0.590111 0.031657
C43   C     C_R   0.562884 0.826134 0.431750 0.002130
C44   C     C_R   0.437064 0.323388 0.568290 0.002341
C45   C     C_R   0.535175 0.833018 0.335253 -0.055481
C46   C     C_R   0.464795 0.330926 0.664768 -0.054764
C47   C     C_R   0.639109 0.863871 0.312160 -0.082112
C48   C     C_R   0.360946 0.364901 0.687799 -0.082299
O11   O     O_R   0.036450 0.233070 0.130130 -0.554820
O12   O     O_R   0.963550 0.733070 0.869870 -0.554847
O13   O     O_R   0.912470 0.560570 0.006790 -0.513227
O14   O     O_R   0.087530 0.060570 0.993210 -0.513012
C49   C     C_R   0.886360 0.392660 0.999333 0.775326
C50   C     C_R   0.113639 0.892685 0.000649 0.775169
O15   O     O_R   0.032920 0.562940 0.138050 -0.538548
O16   O     O_R   0.967080 0.062940 0.861950 -0.538288
O17   O     O_R   0.084790 0.730500 0.002090 -0.559758
O18   O     O_R   0.915210 0.230500 0.997910 -0.559555
C51   C     C_R   0.045189 0.394336 0.174431 0.885257
C52   C     C_R   0.954807 0.894306 0.825569 0.885248
O19   O     O_3   0.016820 0.396170 0.955260 -0.273884
O20   O     O_3   0.983180 0.896170 0.044740 -0.274060
V3    V     V_3+5 0.996880 0.672090 0.008300 1.280863
V4    V     V_3+5 0.003120 0.172090 0.991700 1.281148
H3    H     H_    0.186381 0.607911 0.979560 0.143437
H4    H     H_    0.813699 0.108142 0.021019 0.142550
H5    H     H_    0.012761 0.803379 0.697400 0.125516
H6    H     H_    0.987159 0.305429 0.302810 0.124783
N1    N     N_R   0.825478 0.014239 0.740093 0.065696
O21   O     O_R   0.791726 0.160144 0.706231 -0.333000
O22   O     O_R   0.827831 0.957117 0.823911 -0.322994
N2    N     N_R   0.174720 0.512658 0.259579 0.065603
O23   O     O_R   0.208694 0.658392 0.293133 -0.332900
O24   O     O_R   0.172231 0.454670 0.175849 -0.322850
H7    H     H_    0.761433 0.845505 0.317462 0.112552
H8    H     H_    0.238613 0.348520 0.682589 0.112591
H9    H     H_    0.742512 0.796533 0.678473 0.178579
H10   H     H_    0.257365 0.294276 0.321668 0.178446
H11   H     H_    0.531454 0.817386 0.475613 0.150233
H12   H     H_    0.468466 0.313144 0.524445 0.149369
N3    N     N_R   0.219118 0.053319 0.055426 0.087354
O25   O     O_R   0.203332 0.215597 0.017556 -0.327117
O26   O     O_R   0.263617 0.041562 0.134821 -0.284908
N4    N     N_R   0.780824 0.552775 0.944034 0.087146
O27   O     O_R   0.796630 0.715520 0.981347 -0.326888
O28   O     O_R   0.736284 0.540111 0.864722 -0.285308
H13   H     H_    0.296212 0.991311 0.969020 0.126002
H14   H     H_    0.703758 0.491589 0.030690 0.125862
N5    N     N_R   0.883604 0.834671 0.369343 0.078913
O29   O     O_R   0.929905 0.952422 0.378378 -0.380509
O30   O     O_R   0.866848 0.730596 0.294821 -0.359887
N6    N     N_R   0.116425 0.338822 0.630773 0.079000
O31   O     O_R   0.070264 0.457123 0.621453 -0.381457
O32   O     O_R   0.133075 0.235506 0.705562 -0.359190
H15   H     H_    0.665319 0.883653 0.261988 0.053003
H16   H     H_    0.334783 0.386117 0.737919 0.053214
H17   H     H_    0.483960 0.824280 0.307056 0.128532
H18   H     H_    0.515986 0.321176 0.692977 0.127617
N7    N     N_R   0.620260 0.768415 0.630073 0.090795
O33   O     O_R   0.582008 0.626448 0.613453 -0.374102
O34   O     O_R   0.633219 0.849031 0.711612 -0.292609
N8    N     N_R   0.379553 0.264217 0.370131 0.090787
O35   O     O_R   0.417430 0.121448 0.387033 -0.375122
O36   O     O_R   0.366789 0.344048 0.288425 -0.292103
H19   H     H_    0.967474 0.785908 0.528991 0.159239
H20   H     H_    0.032459 0.289272 0.471253 0.158561

loop_
_geom_bond_atom_site_label_1
_geom_bond_atom_site_label_2
_geom_bond_distance
_ccdc_geom_bond_type
O14   C50   1.329670 A    
O16   V4    2.023989 S    
O12   V3    2.027161 S    
C8    C49   1.489700 S    
O15   V3    2.024195 S    
N3    O25   1.300998 A    
O1    C3    1.325477 A    
C47   H15   1.076894 S    
C2    O7    1.337083 A    
C7    N3    1.439669 S    
C13   C19   1.393236 A    
O5    C3    1.331463 A    
C4    C11   1.477537 S    
C37   N7    1.437991 S    
C21   C23   1.428289 A    
C35   H9    1.078643 S    
C24   C28   1.430473 A    
N2    O24   1.301481 A    
C43   C45   1.390629 A    
N6    O31   1.301515 A    
C44   C46   1.390594 A    
C3    C12   1.477587 S    
C5    H3    1.085724 S    
N8    O35   1.301383 A    
C49   O18   1.332445 A    
C35   C37   1.393451 A    
O18   V4    2.005661 S    
C34   N6    1.438675 S    
C15   C45   1.391436 A    
C17   C25   1.407746 A    
O13   C49   1.329661 A    
C16   C46   1.391466 A    
O16   C52   1.325831 A    
C36   C38   1.393397 A    
C17   C19   1.388400 A    
O15   C51   1.325771 A    
C13   C52   1.462103 S    
C31   H7    1.075397 S    
C12   H14   1.083925 S    
C42   C48   1.416725 A    
C38   N8    1.437889 S    
O2    C4    1.325464 A    
O6    V2    2.015968 S    
C43   H11   1.081227 S    
C27   C29   1.422043 A    
C28   C30   1.422026 A    
C18   H20   1.081520 S    
C14   C51   1.462079 S    
C27   C35   1.409140 A    
C38   C40   1.408477 A    
C15   C47   1.395638 A    
C31   C33   1.396184 A    
C9    C11   1.346845 D    
O14   V4    2.016053 S    
C40   C42   1.426198 A    
C33   N5    1.438724 S    
O13   V3    2.015828 S    
O20   V3    1.756724 S    
O4    C2    1.338090 A    
C39   C43   1.411384 A    
N2    O23   1.301458 A    
O11   C51   1.322440 A    
C13   C21   1.410313 A    
C5    C9    1.494062 S    
C37   C39   1.408518 A    
C18   C20   1.388446 A    
O4    V2    2.024067 S    
C46   H18   1.083637 S    
C30   C42   1.431693 A    
C45   H17   1.083622 S    
N1    O21   1.301465 A    
C48   H16   1.076886 S    
O6    C4    1.331456 A    
C7    C50   1.489715 S    
N5    O30   1.301459 A    
O1    V2    2.005460 S    
O2    V1    2.005342 S    
C29   C31   1.412795 A    
C17   H19   1.081541 S    
C28   C36   1.409080 A    
C36   H10   1.078657 S    
N1    O22   1.301492 A    
N4    O28   1.301581 A    
C16   C48   1.395677 A    
C10   H2    1.085922 S    
C10   C12   1.346849 D    
C39   C41   1.426255 A    
O17   V3    2.005539 S    
O3    V1    2.024270 S    
C25   C33   1.408772 A    
N7    O33   1.301419 A    
C40   C44   1.411364 A    
C29   C41   1.431714 A    
C26   C34   1.408791 A    
C9    H1    1.085932 S    
C21   N1    1.440535 S    
C6    C10   1.494036 S    
O3    C1    1.338074 A    
N3    O26   1.301578 A    
C32   H8    1.075405 S    
C22   N2    1.440545 S    
C22   C24   1.428227 A    
C44   H12   1.081209 S    
C1    O8    1.337135 A    
C23   C25   1.422529 A    
O8    V2    2.019346 S    
C24   C26   1.422462 A    
C11   H13   1.083898 S    
N6    O32   1.301456 A    
C50   O17   1.332459 A    
C41   C47   1.416707 A    
O5    V1    2.015736 S    
C5    C7    1.357938 D    
N8    O36   1.301451 A    
C6    C8    1.357910 D    
C18   C26   1.407778 A    
C23   C27   1.430531 A    
O19   V4    1.756713 S    
C14   C20   1.393224 A    
C32   C34   1.396202 A    
C2    C15   1.460067 S    
C8    N4    1.439720 S    
C14   C22   1.410312 A    
C6    H4    1.085732 S    
N4    O27   1.300989 A    
C1    C16   1.460115 S    
O9    V2    1.757455 S    
N5    O29   1.301537 A    
O12   C52   1.322386 A    
O10   V1    1.757466 S    
C20   H6    1.083911 S    
C19   H5    1.083911 S    
C30   C32   1.412732 A    
O7    V1    2.019453 S    
N7    O34   1.301464 A    
O11   V4    2.027048 S    
