data_mof_unit_8475.cif
_audit_creation_date              2013-03-05T16:12:28-0500
_audit_creation_method            fapswitch 2.2
_symmetry_space_group_name_H-M    P1
_symmetry_Int_Tables_number       1
_space_group_crystal_system       triclinic
_cell_length_a                    10.915744
_cell_length_b                    9.884513
_cell_length_c                    23.428121
_cell_angle_alpha                 90.120544
_cell_angle_beta                  94.730393
_cell_angle_gamma                 91.089641
_cell_volume                      2518.73663431

loop_
_atom_site_label
_atom_site_type_symbol
_atom_site_description
_atom_site_fract_x
_atom_site_fract_y
_atom_site_fract_z
_atom_type_partial_charge
O1    O     O_R   0.316770 0.614620 0.500000 -0.594737
O2    O     O_R   0.683230 0.385380 0.500000 -0.598940
O3    O     O_R   0.683230 0.614620 0.500000 -0.596858
O4    O     O_R   0.316770 0.385380 0.500000 -0.584313
C1    C     C_R   0.261138 0.498600 0.504791 0.893828
C2    C     C_R   0.739825 0.501061 0.496792 0.868603
O5    O     O_R   0.499970 0.614690 0.416160 -0.592453
O6    O     O_R   0.500030 0.385310 0.583840 -0.586801
O7    O     O_R   0.500030 0.614690 0.583840 -0.585786
O8    O     O_R   0.499970 0.385310 0.416160 -0.593147
C3    C     C_R   0.504723 0.499665 0.389292 0.897179
C4    C     C_R   0.502497 0.499814 0.610590 0.869842
Zn1   Zn    Zn3+2 0.500000 0.653120 0.500000 1.068202
Zn2   Zn    Zn3+2 0.500000 0.346880 0.500000 1.071582
C5    C     C_R   0.656923 0.512153 0.887629 0.567498
C6    C     C_R   0.407644 0.533098 0.111605 0.561798
N1    N     N_R   0.552779 0.530285 0.852584 -0.354169
N2    N     N_R   0.511958 0.515666 0.146520 -0.357493
C7    C     C_R   0.445653 0.567407 0.873411 0.534272
C8    C     C_R   0.625175 0.512112 0.126326 0.528844
C9    C     C_R   0.432177 0.559984 0.932492 -0.085184
C10   C     C_R   0.637992 0.522793 0.067137 -0.078539
C11   C     C_R   0.538773 0.540935 0.969917 -0.040110
C12   C     C_R   0.530084 0.535208 0.029660 -0.039488
C13   C     C_R   0.654087 0.526582 0.947402 -0.126132
C14   C     C_R   0.413402 0.540943 0.051813 -0.134446
C15   C     C_R   0.315955 0.564828 0.954712 -0.173672
C16   C     C_R   0.754282 0.522821 0.044374 -0.182380
C17   C     C_R   0.306650 0.553520 0.013790 0.307407
C18   C     C_R   0.761776 0.523735 0.984963 0.305465
O9    O     O_2   0.760924 0.476793 0.864549 -0.469545
O10   O     O_2   0.299690 0.543378 0.135299 -0.465765
O11   O     O_2   0.352977 0.609484 0.836365 -0.546362
O12   O     O_2   0.724147 0.497497 0.164133 -0.555752
C19   C     C_R   0.527901 0.383153 0.235556 -0.000714
C20   C     C_R   0.474048 0.406700 0.765304 -0.001476
C21   C     C_R   0.537321 0.380427 0.295762 -0.070114
C22   C     C_R   0.454112 0.404213 0.705322 -0.056204
C23   C     C_R   0.512311 0.499129 0.326655 -0.121176
C24   C     C_R   0.517574 0.498778 0.673001 -0.089309
C25   C     C_R   0.494873 0.621103 0.296832 -0.151113
C26   C     C_R   0.602607 0.590146 0.700477 -0.137188
H1    H     H_    0.488245 0.715742 0.318966 0.226872
H2    H     H_    0.657445 0.656924 0.676074 0.230567
C27   C     C_R   0.490143 0.624348 0.237729 -0.089832
C28   C     C_R   0.618200 0.596293 0.759649 -0.068217
H3    H     H_    0.478170 0.719949 0.215637 0.169313
H4    H     H_    0.679130 0.672714 0.780283 0.185877
C29   C     C_R   0.504374 0.506001 0.206942 0.242818
C30   C     C_R   0.552313 0.507380 0.792251 0.222619
C31   C     C_R   0.060832 0.373417 0.502798 -0.061887
C32   C     C_R   0.942298 0.623775 0.504377 -0.062478
C33   C     C_R   0.934504 0.377882 0.490131 -0.044624
C34   C     C_R   0.068315 0.618258 0.517907 -0.049586
C35   C     C_R   0.873397 0.502072 0.494685 -0.154135
C36   C     C_R   0.129116 0.495639 0.510827 -0.162874
C37   C     C_R   0.566275 0.074018 0.542230 0.223016
C38   C     C_R   0.426132 0.925874 0.460472 0.222618
C39   C     C_R   0.431560 0.069424 0.458140 0.210335
C40   C     C_R   0.565781 0.930168 0.542477 0.232353
N3    N     N_R   0.500000 0.857200 0.500000 -0.228086
N4    N     N_R   0.500000 0.142800 0.500000 -0.225363
C41   C     C_1   0.203868 0.566182 0.916978 0.456018
N5    N     N_1   0.115971 0.566608 0.885815 -0.017714
C42   C     C_1   0.867582 0.527734 0.081244 0.458823
N6    N     N_1   0.956578 0.532111 0.111703 -0.007440
N7    N     N_R   0.187125 0.546093 0.034292 0.242379
O13   O     O_R   0.119685 0.653227 0.033615 -0.335969
O14   O     O_R   0.141649 0.429134 0.047994 -0.315900
N8    N     N_R   0.879897 0.533739 0.963166 0.242616
O15   O     O_R   0.946657 0.426731 0.960391 -0.311930
O16   O     O_R   0.916187 0.648176 0.942359 -0.328603
C43   C     C_1   0.545757 0.261663 0.202723 0.251066
N9    N     N_1   0.559989 0.164732 0.176471 -0.146726
C44   C     C_1   0.412409 0.308970 0.799651 0.228593
N10   N     N_1   0.363224 0.231046 0.827126 -0.134586
C45   C     C_1   0.586231 0.261143 0.324610 0.291081
N11   N     N_1   0.626811 0.166060 0.347216 -0.147122
C46   C     C_1   0.364998 0.309482 0.677523 0.265699
N12   N     N_1   0.293915 0.233959 0.655322 -0.145833
C47   C     C_1   0.116346 0.241863 0.512198 0.330346
N13   N     N_1   0.159531 0.136828 0.520151 -0.119244
C48   C     C_1   0.888713 0.756101 0.495244 0.338140
N14   N     N_1   0.847187 0.861936 0.487352 -0.132014
C49   C     C_1   0.871123 0.255321 0.468204 0.300717
N15   N     N_1   0.821201 0.157744 0.450593 -0.148528
C50   C     C_1   0.132247 0.736189 0.544071 0.301459
N16   N     N_1   0.182891 0.829636 0.565330 -0.130911
N17   N     N_R   0.638918 0.147159 0.585958 0.262860
O17   O     O_R   0.598642 0.160361 0.636342 -0.328785
O18   O     O_R   0.754764 0.170486 0.580062 -0.364296
N18   N     N_R   0.328364 0.855598 0.427664 0.267525
O19   O     O_R   0.346194 0.808243 0.377459 -0.349645
O20   O     O_R   0.215938 0.876028 0.439568 -0.367512
N19   N     N_R   0.367997 0.135089 0.409986 0.251582
O21   O     O_R   0.282919 0.221515 0.417437 -0.343336
O22   O     O_R   0.374914 0.086450 0.358743 -0.342161
N20   N     N_R   0.621780 0.862452 0.591377 0.247826
O23   O     O_R   0.723367 0.797743 0.588168 -0.390499
O24   O     O_R   0.580377 0.881656 0.641193 -0.352433

loop_
_geom_bond_atom_site_label_1
_geom_bond_atom_site_label_2
_geom_bond_distance
_ccdc_geom_bond_type
C50   N16   1.157616 T    
C15   C17   1.400672 A    
C43   N9    1.157288 T    
C1    C36   1.459342 S    
N19   O21   1.295765 A    
C2    C35   1.462773 S    
O3    C2    1.296508 A    
C47   N13   1.157488 T    
C37   N4    1.366719 A    
C23   C25   1.402976 A    
C45   N11   1.157262 T    
O5    C3    1.302397 A    
C37   N17   1.429024 S    
O1    C1    1.296852 A    
C7    C9    1.405870 A    
C12   C14   1.416497 A    
C40   N20   1.427377 S    
C34   C50   1.455021 S    
C5    C13   1.410235 A    
C22   C46   1.451031 S    
Zn2   N4    2.017231 S    
C31   C36   1.411440 A    
C26   C28   1.383772 A    
O7    Zn1   2.001367 S    
C17   N7    1.427659 S    
C19   C29   1.405972 A    
C11   C12   1.411856 A    
N8    O15   1.300348 A    
N17   O18   1.299683 A    
C31   C47   1.454565 S    
O3    Zn1   2.043069 S    
C32   C35   1.414440 A    
C8    O12   1.349524 S    
C38   N3    1.367065 A    
C24   C26   1.399525 A    
C9    C15   1.412062 A    
C10   C16   1.416820 A    
C25   H1    1.075148 S    
O2    C2    1.294576 A    
C26   H2    1.078831 S    
C18   N8    1.427244 S    
C32   C34   1.388045 A    
C28   H4    1.083034 S    
C27   H3    1.083286 S    
C6    C14   1.409618 A    
C34   C36   1.408875 A    
N7    O13   1.300527 A    
O8    Zn2   2.001369 S    
C37   C40   1.421821 A    
C38   C39   1.420387 A    
C49   N15   1.157034 T    
C21   C45   1.449067 S    
C46   N12   1.157419 T    
C40   N3    1.373160 A    
C31   C33   1.387952 A    
C4    C24   1.457950 S    
C32   C48   1.452009 S    
C44   N10   1.157261 T    
C20   C44   1.449553 S    
C48   N14   1.157191 T    
C27   C29   1.390926 A    
O6    C4    1.291338 A    
N18   O20   1.300093 A    
C3    C23   1.476609 S    
C15   C41   1.449479 S    
C39   N19   1.437544 S    
C8    C10   1.409147 A    
C42   N6    1.157049 T    
N20   O24   1.300674 A    
C9    C11   1.413812 A    
C7    O11   1.349967 S    
C10   C12   1.417303 A    
O1    Zn1   2.028852 S    
C33   C35   1.416174 A    
C20   C30   1.412392 A    
C13   C18   1.409868 A    
C5    N1    1.361234 A    
C19   C43   1.449655 S    
C39   N4    1.378946 A    
O6    Zn2   1.999795 S    
C19   C21   1.406138 A    
O4    C1    1.292427 A    
N1    C30   1.430617 S    
C33   C49   1.455010 S    
N19   O22   1.300773 A    
C5    O9    1.348658 S    
C6    O10   1.348819 S    
C28   C30   1.393714 A    
C20   C22   1.404279 A    
C16   C42   1.448924 S    
C21   C23   1.419933 A    
C22   C24   1.411321 A    
C16   C18   1.401063 A    
N18   O19   1.295900 A    
N1    C7    1.360072 A    
N2    C8    1.360293 A    
C11   C13   1.413789 A    
O4    Zn2   2.043070 S    
O2    Zn2   2.028851 S    
O7    C4    1.297760 A    
O8    C3    1.297204 A    
C41   N5    1.156814 T    
O5    Zn1   1.999797 S    
Zn1   N3    2.017231 S    
C14   C17   1.414796 A    
C6    N2    1.360070 A    
N20   O23   1.298057 A    
C25   C27   1.381845 A    
N8    O16   1.300452 A    
N7    O14   1.300768 A    
N17   O17   1.300290 A    
C38   N18   1.430560 S    
N2    C29   1.428079 S    
