data_mof_unit_29088.cif
_audit_creation_date              2012-10-26T20:58:25-0400
_audit_creation_method            fapswitch 2.2
_symmetry_space_group_name_H-M    P1
_symmetry_Int_Tables_number       1
_space_group_crystal_system       triclinic
_cell_length_a                    10.626679
_cell_length_b                    14.714724
_cell_length_c                    14.546651
_cell_angle_alpha                 65.326919
_cell_angle_beta                  103.285438
_cell_angle_gamma                 102.5726
_cell_volume                      1992.50474739

loop_
_atom_site_label
_atom_site_type_symbol
_atom_type_description
_atom_site_fract_x
_atom_site_fract_y
_atom_site_fract_z
_atom_type_partial_charge
C1    C     C_R   0.481962 0.119237 0.311339 0.558215
C2    C     C_R   0.497199 0.534586 0.948179 0.041243
C3    C     C_R   0.475019 0.495614 0.871128 -0.142764
C4    C     C_R   0.524972 0.504386 0.128871 -0.142765
C5    C     C_R   0.470706 0.393626 0.895170 -0.105340
C6    C     C_R   0.529285 0.606374 0.104829 -0.105338
C7    C     C_R   0.709349 0.280684 0.675546 -0.105791
C8    C     C_R   0.290650 0.719315 0.324454 -0.105791
C9    C     C_R   0.678753 0.200786 0.643165 0.070088
C10   C     C_R   0.321247 0.799214 0.356835 0.070086
C11   C     C_R   0.520947 0.286427 0.507017 0.028649
C12   C     C_R   0.518037 0.880763 0.688660 0.558216
C13   C     C_R   0.479053 0.713572 0.492983 0.028648
C14   C     C_R   0.548564 0.371196 0.535328 -0.001036
C15   C     C_R   0.451436 0.628804 0.464672 -0.001036
C16   C     C_R   0.259685 0.000864 0.499582 0.587630
C17   C     C_R   0.740315 0.999136 0.500417 0.587630
C18   C     C_R   0.644000 0.365610 0.622622 0.047195
C19   C     C_R   0.356000 0.634390 0.377378 0.047195
C20   C     C_R   0.484375 0.459769 0.481786 0.021464
C21   C     C_R   0.515625 0.540230 0.518214 0.021464
C22   C     C_R   0.609407 0.529141 0.607095 -0.146628
C23   C     C_R   0.480246 0.288264 0.174945 -0.143062
C24   C     C_R   0.390593 0.470859 0.392905 -0.146629
C25   C     C_R   0.672613 0.444009 0.657463 -0.108261
C26   C     C_R   0.327387 0.555991 0.342537 -0.108261
C27   C     C_3   0.015610 0.016443 0.406111 0.016061
C28   C     C_3   0.984390 0.983557 0.593889 0.016061
C29   C     C_3   0.962134 0.089463 0.433809 -0.157639
C30   C     C_3   0.037866 0.910536 0.566191 -0.157639
C31   C     C_3   0.876713 0.998125 0.500864 0.042759
C32   C     C_3   0.123287 0.001875 0.499136 0.042759
C33   C     C_3   0.928204 0.925279 0.471924 -0.147629
C34   C     C_R   0.519751 0.711736 0.825055 -0.143062
C35   C     C_3   0.071796 0.074721 0.528076 -0.147629
C36   C     C_R   0.479828 0.185604 0.201427 -0.025724
C37   C     C_R   0.520170 0.814396 0.798573 -0.025722
C38   C     C_R   0.482085 0.219996 0.021822 0.013124
C39   C     C_R   0.517908 0.780004 0.978177 0.013122
C40   C     C_R   0.481909 0.150407 0.124716 -0.013473
C41   C     C_R   0.518087 0.849593 0.875283 -0.013477
C42   C     C_2   0.029165 0.036052 0.298936 0.219633
C43   C     C_2   0.970835 0.963947 0.701064 0.219633
C44   C     C_2   0.506764 0.957111 0.847218 0.246210
C45   C     C_R   0.489568 0.359667 0.075438 0.011717
C46   C     C_2   0.493235 0.042890 0.152780 0.246212
C47   C     C_2   0.491369 0.183865 0.942334 0.244189
C48   C     C_2   0.508618 0.816135 0.057664 0.244184
C49   C     C_R   0.510426 0.640333 0.924562 0.011716
C50   C     C_R   0.482423 0.324300 0.997116 0.040600
C51   C     C_R   0.517570 0.675700 0.002883 0.040604
C52   C     C_R   0.502794 0.465414 0.051820 0.041243
Cu1   Cu    Cu3+1 0.465750 0.918270 0.475680 0.967546
Cu2   Cu    Cu3+1 0.534250 0.081730 0.524320 0.967547
H1    H     H_    0.928534 0.162310 0.379178 0.114296
H2    H     H_    0.132319 0.135543 0.551437 0.123587
H3    H     H_    0.453747 0.369708 0.831900 0.159835
H4    H     H_    0.546243 0.630292 0.168100 0.159838
H5    H     H_    0.744307 0.439206 0.725159 0.131729
H6    H     H_    0.255693 0.560793 0.274841 0.131731
H7    H     H_    0.636193 0.585071 0.640348 0.094047
H8    H     H_    0.363806 0.414929 0.359652 0.094047
H9    H     H_    0.942897 0.042661 0.240958 0.105114
H10   H     H_    0.057103 0.957338 0.759042 0.105113
H11   H     H_    0.530367 0.689243 0.766058 0.126031
H12   H     H_    0.071466 0.837690 0.620822 0.114296
H13   H     H_    0.469631 0.310756 0.233942 0.126031
H14   H     H_    0.429620 0.992253 0.787368 0.114681
H15   H     H_    0.570378 0.007748 0.212632 0.114683
H16   H     H_    0.427261 0.118140 0.935255 0.177934
H17   H     H_    0.572720 0.881865 0.064739 0.177942
H18   H     H_    0.457997 0.541610 0.790471 0.102585
H19   H     H_    0.541994 0.458391 0.209528 0.102584
H20   H     H_    0.553575 0.717584 0.555733 0.121731
H21   H     H_    0.446425 0.282416 0.444267 0.121731
H22   H     H_    0.272351 0.865444 0.314980 0.181467
H23   H     H_    0.727649 0.134556 0.685020 0.181468
H24   H     H_    0.782683 0.275590 0.742386 0.135405
H25   H     H_    0.217316 0.724410 0.257614 0.135407
H26   H     H_    0.867681 0.864457 0.448563 0.123587
N1    N     N_R   0.585750 0.204560 0.560800 -0.248358
N2    N     N_R   0.414250 0.795440 0.439200 -0.248357
O1    O     O_R   0.454850 0.022100 0.338110 -0.484879
O2    O     O_2   0.864015 0.954994 0.723918 -0.491529
O3    O     O_2   0.585894 0.007912 0.888200 -0.497749
O4    O     O_2   0.414109 0.992089 0.111797 -0.497758
O5    O     O_2   0.573893 0.225741 0.886120 -0.506471
O6    O     O_2   0.426095 0.774254 0.113879 -0.506473
O7    O     O_R   0.545150 0.977900 0.661890 -0.484877
O8    O     O_R   0.512700 0.160150 0.379180 -0.519083
O9    O     O_R   0.487300 0.839850 0.620820 -0.519083
O10   O     O_R   0.287930 0.931000 0.479440 -0.477582
O11   O     O_R   0.712070 0.069000 0.520560 -0.477583
O12   O     O_R   0.345780 0.069050 0.520520 -0.521768
O13   O     O_R   0.654220 0.930950 0.479480 -0.521768
O14   O     O_2   0.135985 0.045006 0.276082 -0.491530

loop_
_geom_bond_atom_site_label_1
_geom_bond_atom_site_label_2
_ccdc_geom_bond_type
C39   C51   A    
C1    O8    A    
C23   C45   A    
C27   C29   S    
C34   C37   A    
C14   C18   A    
C12   O9    A    
C39   C41   A    
Cu1   Cu2   S    
C27   C33   S    
C15   C19   A    
C4    C52   A    
C42   O14   D    
C38   C40   A    
C24   C26   A    
Cu2   O8    S    
C11   C14   A    
Cu1   O13   S    
C23   H13   S    
C12   C37   S    
C19   C26   A    
C6    H4    S    
Cu2   O11   S    
C10   H22   S    
C20   C24   A    
C28   C35   S    
C49   C51   A    
C22   C25   A    
Cu1   O9    S    
C8    H25   S    
C31   C33   S    
C17   O13   A    
C6    C51   A    
C35   H2    S    
C21   C22   A    
C43   O2    D    
C18   C25   A    
C34   H11   S    
C43   H10   S    
C8    C19   A    
C32   C35   S    
C14   C20   A    
C12   O7    A    
C36   C40   A    
Cu2   O7    S    
C4    C6    A    
C29   H1    S    
C45   C52   A    
C13   N2    A    
C10   N2    A    
C11   N1    A    
Cu1   N2    S    
C47   O5    D    
C40   C46   S    
C47   H16   S    
C2    C49   A    
C7    C18   A    
Cu1   O10   S    
C48   O6    D    
C4    H19   S    
C9    H23   S    
C13   H20   S    
C38   C47   S    
C30   H12   S    
C2    C52   A    
C7    H24   S    
C16   O10   A    
C13   C15   A    
C17   C31   S    
C41   C44   S    
C5    C50   A    
C44   H14   S    
C16   C32   S    
C48   H17   S    
C44   O3    D    
C7    C9    A    
C34   C49   A    
C24   H8    S    
C30   C33   S    
C27   C32   S    
C28   C31   S    
C3    C5    A    
C33   H26   S    
C38   C50   A    
C1    O1    A    
C29   C35   S    
C28   C43   S    
C16   O12   A    
C5    H3    S    
Cu1   O1    S    
C28   C30   S    
C3    H18   S    
C29   C31   S    
C11   H21   S    
C22   H7    S    
C30   C32   S    
C27   C42   S    
C45   C50   A    
C2    C3    A    
C37   C41   A    
Cu2   O12   S    
C15   C21   A    
C17   O11   A    
C20   C21   A    
C8    C10   A    
C23   C36   A    
C46   H15   S    
C25   H5    S    
C26   H6    S    
C42   H9    S    
Cu2   N1    S    
C1    C36   S    
C9    N1    A    
C39   C48   S    
C46   O4    D    
