data_mof_unit_6441.cif
_audit_creation_date              2013-03-05T15:50:13-0500
_audit_creation_method            fapswitch 2.2
_symmetry_space_group_name_H-M    P1
_symmetry_Int_Tables_number       1
_space_group_crystal_system       triclinic
_cell_length_a                    14.967303
_cell_length_b                    14.948829
_cell_length_c                    34.908462
_cell_angle_alpha                 90.368686
_cell_angle_beta                  90.135256
_cell_angle_gamma                 60.507434
_cell_volume                      6798.30919964

loop_
_atom_site_label
_atom_site_type_symbol
_atom_site_description
_atom_site_fract_x
_atom_site_fract_y
_atom_site_fract_z
_atom_type_partial_charge
O1    O     O_R   0.502070 0.323090 0.541280 -0.458979
O2    O     O_R   0.338340 0.520690 0.539540 -0.464749
C1    C     C_R   0.301076 0.608574 0.555531 0.558793
O3    O     O_R   0.324760 0.674070 0.543580 -0.486775
O4    O     O_R   0.522400 0.640310 0.540110 -0.453253
C2    C     C_R   0.611814 0.589290 0.554838 0.554017
O5    O     O_R   0.675940 0.500630 0.542210 -0.491233
O6    O     O_R   0.641790 0.337020 0.538150 -0.427434
C3    C     C_R   0.569925 0.337696 0.558472 0.545329
O7    O     O_R   0.500260 0.324550 0.456580 -0.467208
O8    O     O_R   0.336660 0.522040 0.461020 -0.476654
C4    C     C_R   0.297136 0.611534 0.446494 0.567591
O9    O     O_R   0.322940 0.675540 0.458880 -0.455071
O10   O     O_R   0.520720 0.641670 0.461580 -0.489631
C5    C     C_R   0.608606 0.590774 0.445712 0.527172
O11   O     O_R   0.674120 0.502090 0.457500 -0.523741
O12   O     O_R   0.640110 0.338380 0.459630 -0.470794
C6    C     C_R   0.560266 0.352092 0.440021 0.543132
Cr1   Cr    Cr6+3 0.421670 0.426920 0.499620 1.172074
Cr2   Cr    Cr6+3 0.427030 0.651190 0.500980 1.144391
Cr3   Cr    Cr6+3 0.651280 0.421870 0.499380 1.119238
O13   O     O_3   0.499990 0.499990 0.499990 -0.342847
N1    N     N_R   0.708179 0.582685 0.770058 -0.172503
N2    N     N_R   0.705864 0.577195 0.732129 -0.234556
C7    C     C_R   0.635934 0.623750 0.591252 0.006362
C8    C     C_R   0.721143 0.551120 0.612135 -0.141060
C9    C     C_R   0.732013 0.566962 0.650579 -0.112194
C10   C     C_R   0.658745 0.656261 0.669016 -0.000580
C11   C     C_R   0.579779 0.734400 0.647653 -0.091570
C12   C     C_R   0.568238 0.719792 0.608576 0.196631
N3    N     N_R   0.619304 0.756419 0.728742 -0.218766
N4    N     N_R   0.622477 0.761687 0.766730 -0.180823
C13   C     C_R   0.667009 0.674960 0.788201 0.390022
C14   C     C_R   0.662058 0.663872 0.710775 0.348227
C15   C     C_R   0.755825 0.597079 0.850305 0.225500
C16   C     C_R   0.774745 0.609728 0.888655 -0.137903
C17   C     C_R   0.627533 0.780527 0.889407 -0.131244
C18   C     C_R   0.610857 0.772549 0.850360 0.226884
C19   C     C_R   0.676531 0.680827 0.830249 0.049039
C20   C     C_R   0.712761 0.702047 0.908031 -0.068001
H1    H     H_    0.776382 0.478251 0.599577 0.197923
H2    H     H_    0.841591 0.548764 0.902572 0.149227
H3    H     H_    0.795708 0.507169 0.666297 0.162483
H4    H     H_    0.525267 0.805496 0.661591 0.176488
H5    H     H_    0.576685 0.850781 0.904620 0.149961
C21   C     C_R   0.713401 0.091576 0.909751 -0.024273
C22   C     C_R   0.612676 0.145172 0.895620 -0.121288
C23   C     C_R   0.592161 0.192139 0.859775 0.200784
C24   C     C_R   0.675131 0.182895 0.837583 0.002508
C25   C     C_R   0.774264 0.137260 0.853150 -0.160780
C26   C     C_R   0.793276 0.092239 0.889180 -0.138826
C27   C     C_R   0.689818 0.272209 0.780015 -0.086250
C28   C     C_R   0.678377 0.289908 0.740724 -0.056547
C29   C     C_R   0.641810 0.237589 0.717691 0.069741
C30   C     C_R   0.615755 0.168426 0.734139 -0.075118
C31   C     C_R   0.626856 0.151015 0.773328 -0.052327
C32   C     C_R   0.663128 0.203430 0.796432 0.063382
C33   C     C_R   0.529665 0.296869 0.661077 -0.131569
C34   C     C_R   0.513184 0.320141 0.622450 -0.151683
C35   C     C_R   0.696379 0.255359 0.613283 0.212724
C36   C     C_R   0.712032 0.235807 0.652869 0.280337
C37   C     C_R   0.628008 0.256933 0.676517 -0.009670
C38   C     C_R   0.595225 0.300986 0.598171 -0.045335
H6    H     H_    0.550007 0.148350 0.912148 0.168211
H7    H     H_    0.871250 0.052645 0.899825 0.136549
H8    H     H_    0.696560 0.345291 0.728406 0.127395
H9    H     H_    0.717989 0.312825 0.797641 0.101493
H10   H     H_    0.587415 0.127724 0.716581 0.135298
H11   H     H_    0.607421 0.096497 0.785713 0.113551
H12   H     H_    0.465108 0.312106 0.679254 0.219728
H13   H     H_    0.435363 0.355472 0.611637 0.199241
H14   H     H_    0.838199 0.130077 0.836289 0.141155
C39   C     C_R   0.008330 0.745150 0.902194 -0.028974
C40   C     C_R   0.022077 0.815514 0.880032 -0.106329
C41   C     C_R   0.035977 0.802345 0.840334 0.278048
C42   C     C_R   0.032938 0.719325 0.822187 0.031264
C43   C     C_R   0.017978 0.649720 0.844252 -0.151586
C44   C     C_R   0.005170 0.662794 0.883843 -0.138232
C45   C     C_R   0.135918 0.607397 0.768134 -0.095072
C46   C     C_R   0.166598 0.593017 0.729634 0.257337
C47   C     C_R   0.110195 0.672703 0.703136 0.043870
C48   C     C_R   0.025029 0.764269 0.715711 -0.123645
C49   C     C_R   0.996903 0.778273 0.754245 -0.069530
C50   C     C_R   0.053342 0.700638 0.780765 -0.003789
C51   C     C_R   0.183124 0.725867 0.650725 -0.133694
C52   C     C_R   0.230242 0.709724 0.615204 -0.137177
C53   C     C_R   0.191600 0.572462 0.601570 0.189150
C54   C     C_R   0.143640 0.588846 0.637821 0.246893
C55   C     C_R   0.142672 0.664126 0.662780 0.016618
C56   C     C_R   0.238045 0.631367 0.590699 -0.027303
H15   H     H_    0.022500 0.880851 0.893401 0.134103
H16   H     H_    0.992283 0.608619 0.900027 0.155309
H17   H     H_    0.180735 0.548288 0.788818 0.168822
H18   H     H_    0.981643 0.825816 0.695704 0.151252
H19   H     H_    0.932463 0.850519 0.763554 0.158992
H20   H     H_    0.182718 0.783625 0.669761 0.151282
H21   H     H_    0.264735 0.756152 0.607658 0.194384
H22   H     H_    0.015945 0.585293 0.830740 0.163251
C57   C     C_R   0.749177 0.756063 0.100497 0.010948
C58   C     C_R   0.656300 0.824862 0.118521 -0.122750
C59   C     C_R   0.645937 0.821112 0.158204 -0.115518
C60   C     C_R   0.728690 0.749559 0.180345 0.028055
C61   C     C_R   0.822932 0.685075 0.162410 -0.117722
C62   C     C_R   0.832847 0.688036 0.122946 -0.122947
C63   C     C_R   0.758470 0.637002 0.236611 -0.112587
C64   C     C_R   0.745371 0.622507 0.275022 -0.113479
C65   C     C_R   0.689144 0.707114 0.299304 0.024149
C66   C     C_R   0.646266 0.806917 0.284389 -0.098534
C67   C     C_R   0.659625 0.821529 0.245733 -0.104758
C68   C     C_R   0.715828 0.736487 0.221522 0.023626
C69   C     C_R   0.573181 0.743175 0.355668 -0.102033
C70   C     C_R   0.553541 0.714624 0.391322 -0.102107
C71   C     C_R   0.731801 0.581829 0.395956 -0.110647
C72   C     C_R   0.751474 0.610705 0.360510 -0.108707
C73   C     C_R   0.671681 0.689269 0.339467 0.023024
C74   C     C_R   0.632055 0.631522 0.411184 0.014727
H23   H     H_    0.591203 0.879722 0.101970 0.132968
H24   H     H_    0.906191 0.636478 0.109894 0.178811
H25   H     H_    0.828532 0.569238 0.348920 0.126857
H26   H     H_    0.776880 0.544706 0.285491 0.108774
H27   H     H_    0.799960 0.569965 0.218449 0.114889
H28   H     H_    0.572396 0.871662 0.171356 0.112672
H29   H     H_    0.602788 0.873360 0.302623 0.142251
H30   H     H_    0.626582 0.899035 0.234827 0.129099
H31   H     H_    0.510182 0.803529 0.339892 0.138427
H32   H     H_    0.475902 0.754248 0.402406 0.184549
H33   H     H_    0.888824 0.631184 0.178884 0.120309
H34   H     H_    0.794080 0.518290 0.410830 0.159637
C75   C     C_R   0.698509 0.105811 0.087118 0.021254
C76   C     C_R   0.773500 0.124492 0.103667 -0.124598
C77   C     C_R   0.755318 0.175472 0.138816 -0.121060
C78   C     C_R   0.661818 0.208864 0.158054 0.031858
C79   C     C_R   0.584501 0.195856 0.140414 -0.117462
C80   C     C_R   0.602689 0.144715 0.105272 -0.129347
C81   C     C_R   0.555442 0.327267 0.211135 -0.101680
C82   C     C_R   0.539707 0.351455 0.250154 -0.064200
C83   C     C_R   0.617685 0.294041 0.276604 0.059454
C84   C     C_R   0.713136 0.216386 0.263462 -0.094351
C85   C     C_R   0.728752 0.192135 0.224586 -0.105978
C86   C     C_R   0.649262 0.245629 0.198151 0.032162
C87   C     C_R   0.663353 0.334376 0.339994 -0.161266
C88   C     C_R   0.651172 0.346951 0.379531 -0.132860
C89   C     C_R   0.507868 0.314688 0.376306 -0.098426
C90   C     C_R   0.520482 0.299836 0.336508 0.217374
C91   C     C_R   0.599028 0.310531 0.318162 0.004749
C92   C     C_R   0.574339 0.335776 0.398185 -0.034366
H35   H     H_    0.847845 0.096147 0.090247 0.129687
H36   H     H_    0.543284 0.131738 0.093199 0.128597
H37   H     H_    0.465978 0.412702 0.259863 0.125098
H38   H     H_    0.493876 0.370700 0.191173 0.085682
H39   H     H_    0.815684 0.185724 0.151616 0.109592
H40   H     H_    0.774076 0.171445 0.283531 0.125250
H41   H     H_    0.801378 0.128055 0.215478 0.110911
H42   H     H_    0.723394 0.343268 0.326296 0.123926
H43   H     H_    0.701841 0.365895 0.395477 0.156510
H44   H     H_    0.512116 0.219859 0.154811 0.104897
H45   H     H_    0.447656 0.306833 0.390310 0.207027
C93   C     C_R   0.090026 0.703649 0.093114 -0.030871
C94   C     C_R   0.121940 0.602561 0.106046 0.271858
C95   C     C_R   0.160761 0.573635 0.143287 0.293034
C96   C     C_R   0.169513 0.645266 0.167343 -0.022441
C97   C     C_R   0.148453 0.740774 0.152761 -0.185200
C98   C     C_R   0.108913 0.769806 0.116072 -0.190417
C99   C     C_R   0.263903 0.642764 0.226407 -0.136081
C100  C     C_R   0.272566 0.639488 0.266135 -0.117221
C101  C     C_R   0.205439 0.621485 0.288656 0.041684
C102  C     C_R   0.132815 0.601713 0.270821 -0.094122
C103  C     C_R   0.124123 0.605056 0.231018 -0.072220
C104  C     C_R   0.188338 0.627581 0.208679 0.035848
C105  C     C_R   0.206008 0.554566 0.354090 -0.103765
C106  C     C_R   0.218623 0.556815 0.393815 0.157503
C107  C     C_R   0.224480 0.716493 0.386858 0.169248
C108  C     C_R   0.212727 0.711753 0.347344 -0.119054
C109  C     C_R   0.208687 0.628641 0.330650 -0.062770
C110  C     C_R   0.238812 0.632613 0.409983 -0.004888
H46   H     H_    0.087004 0.846819 0.106675 0.152499
H47   H     H_    0.206237 0.773635 0.329439 0.162518
H48   H     H_    0.330379 0.653062 0.279386 0.114155
H49   H     H_    0.314396 0.659590 0.209510 0.110800
H50   H     H_    0.079932 0.588302 0.287679 0.117804
H51   H     H_    0.064391 0.594559 0.217757 0.137317
H52   H     H_    0.195946 0.493880 0.341358 0.192514
H53   H     H_    0.155518 0.796180 0.170827 0.136423
O14   O     O_R   0.017640 0.822070 0.960410 -0.513261
O15   O     O_R   0.822000 0.989470 0.960340 -0.515057
C111  C     C_R   0.734771 0.028074 0.944030 0.540431
O16   O     O_R   0.666920 0.007430 0.955290 -0.517387
O17   O     O_R   0.694410 0.812480 0.959650 -0.495253
C112  C     C_R   0.745590 0.722862 0.945132 0.550909
O18   O     O_R   0.831550 0.656950 0.958960 -0.523008
O19   O     O_R   0.998590 0.685540 0.963930 -0.496754
C113  C     C_R   0.989109 0.762551 0.943769 0.566914
O20   O     O_R   0.008220 0.831200 0.045060 -0.518767
O21   O     O_R   0.813270 0.997930 0.038810 -0.503245
C114  C     C_R   0.723386 0.038675 0.053037 0.536148
O22   O     O_R   0.657500 0.016560 0.039940 -0.524261
O23   O     O_R   0.685680 0.820940 0.038120 -0.497667
C115  C     C_R   0.763210 0.755768 0.058773 0.562634
O24   O     O_R   0.822130 0.666070 0.043610 -0.493149
O25   O     O_R   0.989860 0.694000 0.042400 -0.471037
C116  C     C_R   0.028653 0.743915 0.057837 0.552288
Cr4   Cr    Cr6+3 0.910810 0.908010 0.001130 1.003953
Cr5   Cr    Cr6+3 0.682800 0.909890 0.998370 1.011413
Cr6   Cr    Cr6+3 0.908370 0.682300 0.002180 1.038194
O26   O     O_3   0.833990 0.833400 0.000560 -0.287492
O27   O     O_3   0.809977 0.187799 0.668365 -0.539774
C117  C     C_3   0.849679 0.256260 0.669195 -0.062064
H54   H     H_    0.789952 0.339201 0.668798 0.080367
H55   H     H_    0.903574 0.239147 0.644955 0.211288
H56   H     H_    0.894275 0.243161 0.696007 0.148355
N5    N     N_R   0.488061 0.246002 0.845887 0.072259
O28   O     O_R   0.420155 0.223214 0.858695 -0.350306
O29   O     O_R   0.458117 0.324374 0.823196 -0.293517
N6    N     N_R   0.487870 0.802158 0.587294 0.093860
O30   O     O_R   0.506925 0.825136 0.553508 -0.272273
O31   O     O_R   0.401007 0.864294 0.603825 -0.312559
N7    N     N_R   0.783783 0.222745 0.588800 0.102426
O32   O     O_R   0.844944 0.125097 0.582982 -0.252073
O33   O     O_R   0.812679 0.288053 0.578438 -0.335083
N8    N     N_R   0.094807 0.530841 0.649070 0.103733
O34   O     O_R   0.141689 0.431517 0.644788 -0.224080
O35   O     O_R   0.005083 0.576635 0.665478 -0.322158
N9    N     N_R   0.258166 0.500425 0.718588 0.091802
O36   O     O_R   0.284093 0.414726 0.736301 -0.282530
O37   O     O_R   0.323231 0.504116 0.694899 -0.373541
O38   O     O_3   0.049543 0.872645 0.819205 -0.583550
C118  C     C_3   0.154126 0.845031 0.820622 -0.101375
H57   H     H_    0.203780 0.766532 0.808667 0.137530
H58   H     H_    0.178219 0.850394 0.850338 0.125683
H59   H     H_    0.165690 0.899587 0.802756 0.164684
N10   N     N_R   0.187859 0.500621 0.575175 0.111127
O39   O     O_R   0.251428 0.402789 0.578783 -0.259174
O40   O     O_R   0.132119 0.533943 0.544400 -0.248129
N11   N     N_R   0.456300 0.269682 0.315706 0.074288
O41   O     O_R   0.494986 0.199776 0.288956 -0.329219
O42   O     O_R   0.362707 0.300988 0.327041 -0.317497
O43   O     O_3   0.107341 0.533861 0.083861 -0.532834
C119  C     C_3   0.191884 0.482784 0.058912 -0.080037
H60   H     H_    0.264057 0.435414 0.075123 0.111801
H61   H     H_    0.200628 0.537607 0.039926 0.111888
H62   H     H_    0.178659 0.430050 0.040249 0.144208
O44   O     O_3   0.823910 0.507965 0.831141 -0.539608
C120  C     C_3   0.809900 0.426337 0.843932 -0.094239
H63   H     H_    0.728058 0.445433 0.841805 0.122111
H64   H     H_    0.838275 0.404141 0.873740 0.112555
H65   H     H_    0.855522 0.358444 0.825291 0.151693
O45   O     O_3   0.180236 0.478504 0.156511 -0.543239
C121  C     C_3   0.286742 0.414912 0.162254 -0.108325
H66   H     H_    0.309535 0.429544 0.190856 0.136766
H67   H     H_    0.334198 0.423327 0.139504 0.083388
H68   H     H_    0.304282 0.333667 0.161711 0.150593
N12   N     N_R   0.210040 0.482620 0.417276 0.089461
O46   O     O_R   0.233800 0.392535 0.403457 -0.289012
O47   O     O_R   0.163761 0.510228 0.450285 -0.246469
N13   N     N_R   0.221698 0.806642 0.402861 0.098604
O48   O     O_R   0.259773 0.854769 0.383866 -0.342993
O49   O     O_R   0.165740 0.850578 0.433006 -0.253499
O50   O     O_3   0.527725 0.852343 0.832083 -0.546176
C122  C     C_3   0.541115 0.939519 0.830803 -0.071598
H69   H     H_    0.619322 0.919911 0.820717 0.111136
H70   H     H_    0.524882 0.978857 0.859107 0.134314
H71   H     H_    0.485307 0.994964 0.810094 0.183306

loop_
_geom_bond_atom_site_label_1
_geom_bond_atom_site_label_2
_geom_bond_distance
_ccdc_geom_bond_type
C33   C37   1.395944 A    
C89   C92   1.405226 A    
C30   C31   1.388435 A    
N13   O49   1.301468 A    
C107  N13   1.437036 S    
C100  C101  1.404510 A    
C48   H18   1.083450 S    
C79   H44   1.082840 S    
C54   N8    1.438778 S    
C39   C40   1.404121 A    
C88   C92   1.403016 A    
C63   C64   1.389293 A    
C16   H2    1.083141 S    
C69   C70   1.396315 A    
C53   C54   1.415583 A    
C122  H71   1.109271 S    
C42   C50   1.474802 S    
N8    O35   1.301360 A    
C47   C48   1.402906 A    
C24   C32   1.462984 S    
C81   C82   1.397470 A    
C71   H34   1.083028 S    
C28   C29   1.403219 A    
C31   C32   1.402784 A    
Cr5   O26   1.971458 S    
C119  H62   1.109708 S    
O8    Cr1   1.921367 S    
C8    C9    1.384339 A    
O11   Cr3   2.029983 S    
C21   C26   1.400312 A    
C35   C38   1.421186 A    
C5    C74   1.472751 S    
C83   C91   1.474043 S    
C10   C11   1.401852 A    
C8    H1    1.082178 S    
C63   C68   1.403712 A    
C51   C55   1.397110 A    
C45   H17   1.083705 S    
C17   C20   1.399514 A    
C51   C52   1.387753 A    
O4    C2    1.278205 A    
C51   H20   1.083781 S    
N6    O31   1.301396 A    
C87   H42   1.083693 S    
C2    C7    1.477855 S    
C64   C65   1.402848 A    
C85   H41   1.082946 S    
C120  H63   1.114918 S    
O21   Cr4   1.929363 S    
O16   Cr5   2.032108 S    
C103  H51   1.083264 S    
O20   C116  1.268433 A    
C66   C67   1.398812 A    
C1    O3    1.267283 A    
C26   H7    1.082172 S    
C24   C25   1.402324 A    
C52   H21   1.083242 S    
C25   H14   1.083683 S    
C61   C62   1.389249 A    
C107  C108  1.395877 A    
C29   C30   1.398710 A    
C77   H39   1.083084 S    
C20   C112  1.469013 S    
C49   C50   1.400844 A    
O25   C116  1.266595 A    
N1    C13   1.355451 A    
Cr4   O26   1.956695 S    
C69   H31   1.082911 S    
C117  H56   1.109314 S    
Cr6   O26   1.967232 S    
N1    N2    1.327474 A    
O14   C113  1.295274 A    
C89   H45   1.082572 S    
C115  O24   1.297920 A    
C88   H43   1.082878 S    
C61   H33   1.083215 S    
C67   C68   1.405227 A    
C70   H32   1.082756 S    
C72   H25   1.083140 S    
C107  C110  1.420333 A    
C87   C91   1.402068 A    
C36   O27   1.386403 S    
C71   C74   1.403551 A    
C96   C104  1.470074 S    
C36   C37   1.404729 A    
C102  H50   1.083035 S    
C76   H35   1.083002 S    
C10   C14   1.464074 S    
C108  C109  1.396923 A    
Cr3   O13   1.971785 S    
C105  H52   1.082690 S    
C100  H48   1.083368 S    
C99   C104  1.400472 A    
O23   C115  1.306688 A    
C87   C88   1.391968 A    
N11   O42   1.301026 A    
C39   C44   1.405473 A    
C98   H46   1.083125 S    
C18   O50   1.386628 S    
N8    O34   1.300414 A    
C75   C114  1.476488 S    
C59   C60   1.406155 A    
C121  H67   1.114892 S    
C25   C26   1.391570 A    
C62   H24   1.082348 S    
C41   O38   1.382184 S    
C81   C86   1.405409 A    
C119  H61   1.114024 S    
C101  C109  1.471582 S    
O14   Cr4   2.047520 S    
C40   C41   1.400017 A    
C117  H54   1.116004 S    
C39   C113  1.476542 S    
C22   C23   1.396478 A    
O10   Cr2   1.920536 S    
C16   C20   1.397525 A    
Cr1   O13   1.956517 S    
O1    C3    1.285720 A    
C42   C43   1.402367 A    
N9    O36   1.301419 A    
C120  H64   1.112133 S    
C52   C56   1.403691 A    
C102  C103  1.394147 A    
O4    Cr2   1.922223 S    
C30   H10   1.083464 S    
N6    O30   1.301422 A    
O6    C3    1.285737 A    
C29   C37   1.461956 S    
C84   H40   1.083418 S    
C7    C8    1.406832 A    
C43   C44   1.394956 A    
O1    Cr1   2.038108 S    
C106  C110  1.421910 A    
C106  N12   1.438707 S    
C97   C98   1.389098 A    
O12   Cr3   1.921762 S    
O20   Cr4   2.039504 S    
C114  O22   1.267953 A    
C35   C36   1.409317 A    
C15   C16   1.398513 A    
C18   C19   1.415244 A    
O15   Cr4   1.922734 S    
C17   C18   1.400045 A    
C15   C19   1.417896 A    
C41   C42   1.410283 A    
N5    O28   1.301545 A    
C11   C12   1.403751 A    
C78   C79   1.404576 A    
O25   Cr6   1.920489 S    
C12   N6    1.436718 S    
C79   C80   1.395750 A    
N11   O41   1.301343 A    
C76   C77   1.394871 A    
C94   C95   1.403907 A    
C23   N5    1.441260 S    
C108  H47   1.083762 S    
O7    Cr1   2.046765 S    
C85   C86   1.405025 A    
C120  H65   1.109485 S    
C49   H19   1.083311 S    
N9    O37   1.301009 A    
O12   C6    1.302113 A    
C94   O43   1.382809 S    
N3    C14   1.354961 A    
C63   H27   1.082963 S    
C43   H22   1.083478 S    
O38   C118  1.409519 S    
C13   C19   1.480591 S    
C27   C28   1.392682 A    
C4    O9    1.268590 A    
O22   Cr5   2.042106 S    
C28   H8    1.082295 S    
C27   H9    1.082157 S    
C40   H15   1.082594 S    
C65   C73   1.476583 S    
C99   H49   1.083281 S    
C93   C98   1.401535 A    
C4    C110  1.488256 S    
C112  O18   1.270493 A    
O21   C114  1.272788 A    
C103  C104  1.403864 A    
N5    O29   1.301580 A    
Cr2   O13   1.967580 S    
C48   C49   1.393833 A    
C1    C56   1.482175 S    
C11   H4    1.083230 S    
O24   Cr6   2.034287 S    
C122  H69   1.114827 S    
C60   C68   1.477648 S    
N7    O33   1.300796 A    
O19   Cr6   1.918964 S    
C65   C66   1.405166 A    
C17   H5    1.082569 S    
N13   O48   1.301416 A    
C70   C74   1.405281 A    
C121  H66   1.109135 S    
C118  H57   1.113539 S    
N12   O47   1.301589 A    
C71   C72   1.392068 A    
C105  C109  1.397451 A    
C66   H29   1.082852 S    
C7    C12   1.418828 A    
C82   H37   1.083443 S    
C21   C22   1.403688 A    
C99   C100  1.391537 A    
C57   C62   1.402954 A    
O9    Cr2   2.038937 S    
C118  H58   1.112727 S    
O2    Cr1   1.929791 S    
C3    C38   1.472367 S    
C53   N10   1.432368 S    
N3    N4    1.330037 A    
C33   H12   1.082797 S    
C46   C47   1.416898 A    
C6    C92   1.477496 S    
O6    Cr3   1.913408 S    
C27   C32   1.399354 A    
O45   C121  1.412051 S    
C22   H6    1.083196 S    
C67   H30   1.082833 S    
C72   C73   1.403984 A    
C2    O5    1.270460 A    
C78   C86   1.478607 S    
C81   H38   1.081642 S    
C80   H36   1.082971 S    
C83   C84   1.400851 A    
O17   Cr5   1.924635 S    
C34   C38   1.401310 A    
C59   H28   1.082746 S    
C57   C58   1.405036 A    
C90   N11   1.439500 S    
C90   C91   1.416937 A    
C44   H16   1.082785 S    
C95   C96   1.412429 A    
O2    C1    1.272493 A    
C33   C34   1.385684 A    
C47   C55   1.475427 S    
C97   H53   1.083570 S    
C122  H70   1.110862 S    
C96   C97   1.400845 A    
C77   C78   1.403885 A    
N4    C13   1.358751 A    
C46   N9    1.438973 S    
O5    Cr3   2.039721 S    
O18   Cr6   2.038478 S    
O15   C111  1.273035 A    
C45   C50   1.401158 A    
C101  C102  1.402603 A    
C75   C76   1.405365 A    
O7    C6    1.296107 A    
C23   C24   1.412651 A    
C5    O11   1.270247 A    
O44   C120  1.411281 S    
N7    O32   1.300532 A    
C119  H60   1.112516 S    
C58   C59   1.398846 A    
O23   Cr5   1.913750 S    
C64   H26   1.083137 S    
C93   C94   1.418656 A    
C60   C61   1.403018 A    
O19   C113  1.299954 A    
N2    C14   1.355763 A    
C75   C80   1.405347 A    
O27   C117  1.414093 S    
C121  H68   1.109107 S    
C57   C115  1.471758 S    
C84   C85   1.392663 A    
N10   O40   1.300679 A    
C45   C46   1.401898 A    
O3    Cr2   2.039659 S    
C9    H3    1.083364 S    
C118  H59   1.109101 S    
C54   C55   1.413201 A    
C21   C111  1.466022 S    
C15   O44   1.384107 S    
C31   H11   1.083641 S    
C105  C106  1.401506 A    
C53   C56   1.418061 A    
O50   C122  1.413638 S    
N10   O39   1.300646 A    
C117  H55   1.108789 S    
C93   C116  1.477274 S    
O10   C5    1.276167 A    
O17   C112  1.273199 A    
C69   C73   1.403946 A    
C58   H23   1.082757 S    
C95   O45   1.385667 S    
C111  O16   1.262175 A    
O43   C119  1.409976 S    
C35   N7    1.432287 S    
C82   C83   1.403617 A    
C89   C90   1.403956 A    
O8    C4    1.274731 A    
C34   H13   1.083009 S    
N12   O46   1.301366 A    
C9    C10   1.396318 A    
