data_mof_unit_37315.cif
_audit_creation_date              2012-12-11T17:05:28-0500
_audit_creation_method            fapswitch 2.2
_symmetry_space_group_name_H-M    P1
_symmetry_Int_Tables_number       1
_space_group_crystal_system       triclinic
_cell_length_a                    6.954554
_cell_length_b                    14.521168
_cell_length_c                    16.015476
_cell_angle_alpha                 90.210766
_cell_angle_beta                  89.986991
_cell_angle_gamma                 90.013491
_cell_volume                      1617.3638169

loop_
_atom_site_label
_atom_site_type_symbol
_atom_type_description
_atom_site_fract_x
_atom_site_fract_y
_atom_site_fract_z
_atom_type_partial_charge
O1    O     O_R   0.494380 0.415640 0.412830 -0.539478
O2    O     O_R   0.823960 0.405540 0.586560 -0.517130
O3    O     O_R   0.994270 0.584360 0.587170 -0.541986
C1    C     C_R   0.655303 0.383837 0.615508 0.773249
O4    O     O_R   0.824090 0.404620 0.413450 -0.547435
O5    O     O_R   0.994400 0.583430 0.412820 -0.542162
C2    C     C_R   0.655304 0.382429 0.384520 0.695093
O6    O     O_R   0.494250 0.416570 0.587180 -0.537134
O7    O     O_3   0.660800 0.558670 0.500000 -0.382076
V1    V     V_3+5 0.935650 0.489120 0.500000 1.451961
O8    O     O_R   0.324110 0.594460 0.413440 -0.544605
C3    C     C_R   0.155110 0.616519 0.384665 0.682579
O9    O     O_R   0.323980 0.595380 0.586550 -0.542354
C4    C     C_R   0.155222 0.617664 0.615437 0.763508
V2    V     V_3+5 0.435660 0.510880 0.500000 1.425101
O10   O     O_3   0.160640 0.441330 0.500000 -0.369642
C5    C     C_3   0.050184 0.643574 0.765047 0.474489
H1    H     H_    0.902618 0.619713 0.748934 0.122012
C6    C     C_3   0.038358 0.714589 0.838023 0.420450
H2    H     H_    0.121063 0.688528 0.892518 0.109847
H3    H     H_    0.874456 0.749796 0.643451 0.153014
H4    H     H_    0.856452 0.855234 0.749677 0.182904
C7    C     C_3   0.022288 0.772102 0.660845 -0.451498
C8    C     C_3   0.347939 0.722785 0.711403 -0.304308
C9    C     C_3   0.144759 0.687289 0.686501 -0.070800
H5    H     H_    0.418226 0.755898 0.656739 0.140739
H6    H     H_    0.440910 0.664207 0.730663 0.209648
C10   C     C_3   0.122574 0.809258 0.811065 -0.054591
C11   C     C_3   0.009998 0.843341 0.733306 -0.316579
C12   C     C_3   0.335153 0.793110 0.783759 -0.400446
H7    H     H_    0.420928 0.767399 0.837530 0.205292
H8    H     H_    0.400965 0.859279 0.763517 0.164226
H9    H     H_    0.086608 0.805289 0.604890 0.154664
H10   H     H_    0.069749 0.910437 0.712174 0.128925
C13   C     C_R   0.274157 0.750318 0.187497 0.127848
C14   C     C_R   0.118211 0.810695 0.179562 -0.108563
C15   C     C_R   0.966014 0.800846 0.236887 -0.176865
H11   H     H_    0.843078 0.846092 0.233442 0.124599
C16   C     C_R   0.977611 0.737323 0.303079 -0.181201
H12   H     H_    0.862204 0.734718 0.348239 0.125816
C17   C     C_R   0.142356 0.682243 0.314234 -0.110366
C18   C     C_R   0.286017 0.687753 0.253178 0.123998
C19   C     C_3   0.496260 0.703613 0.263385 -0.419955
C20   C     C_3   0.483425 0.771384 0.191554 -0.400399
H13   H     H_    0.582150 0.641210 0.248189 0.189121
H14   H     H_    0.530458 0.736924 0.324175 0.163124
H15   H     H_    0.561239 0.748005 0.134670 0.197526
H16   H     H_    0.510983 0.843917 0.210514 0.155680
C21   C     C_R   0.504599 0.245653 0.683139 -0.023754
C22   C     C_R   0.647968 0.313458 0.682067 -0.213569
C23   C     C_R   0.790532 0.309465 0.744743 0.620566
C24   C     C_R   0.779994 0.243289 0.808803 -0.240208
H17   H     H_    0.887926 0.244037 0.857521 0.169292
C25   C     C_R   0.624167 0.181375 0.813431 -0.172266
C26   C     C_R   0.492063 0.181833 0.747512 0.073808
C27   C     C_3   0.277797 0.185846 0.748563 -0.368442
C28   C     C_3   0.291613 0.255087 0.677747 -0.311758
H18   H     H_    0.220771 0.215967 0.807452 0.204827
H19   H     H_    0.211405 0.119439 0.729315 0.140560
H20   H     H_    0.243375 0.325395 0.695144 0.257838
H21   H     H_    0.233925 0.228501 0.617594 0.144486
C29   C     C_R   0.494233 0.316739 0.256622 0.024632
C30   C     C_R   0.647402 0.316556 0.313510 -0.100439
C31   C     C_R   0.798110 0.253832 0.298394 -0.168632
H22   H     H_    0.919957 0.251303 0.340168 0.114668
C32   C     C_R   0.786740 0.189194 0.232658 -0.098048
H23   H     H_    0.900516 0.139003 0.225761 0.120052
C33   C     C_R   0.624408 0.185287 0.179978 -0.173772
C34   C     C_R   0.483031 0.252808 0.191543 0.110492
C35   C     C_3   0.271567 0.242059 0.202458 0.517383
C36   C     C_3   0.283527 0.312167 0.272937 -0.454137
H24   H     H_    0.229259 0.171708 0.222329 -0.002167
H25   H     H_    0.251214 0.282665 0.335318 0.116992
H26   H     H_    0.210099 0.378339 0.258943 0.208470
O11   O     O_R   0.771490 0.080820 0.910070 -0.546204
O12   O     O_R   0.441590 0.092730 0.083780 -0.535207
O13   O     O_R   0.271350 0.913900 0.084390 -0.545808
C37   C     C_R   0.610609 0.114802 0.112853 0.706717
O14   O     O_R   0.441780 0.091820 0.910670 -0.537140
O15   O     O_R   0.271540 0.912980 0.910040 -0.552285
C38   C     C_R   0.610864 0.114093 0.882257 0.732939
O16   O     O_R   0.771300 0.081740 0.084420 -0.532172
O17   O     O_3   0.604960 0.938700 0.997240 -0.368032
V3    V     V_3+5 0.330090 0.008230 0.997220 1.464670
O18   O     O_R   0.941820 0.901930 0.910640 -0.509776
C39   C     C_R   0.110979 0.879514 0.881785 0.708222
O19   O     O_R   0.941630 0.902840 0.083750 -0.541713
C40   C     C_R   0.110343 0.880913 0.112650 0.683703
V4    V     V_3+5 0.830090 0.986410 0.997190 1.483340
O20   O     O_3   0.105080 0.055990 0.997200 -0.357490
F1    F     F_    0.930343 0.374458 0.748412 -0.659936
F2    F     F_    0.154062 0.567050 0.790271 -0.653821
F3    F     F_    0.171476 0.274940 0.134091 -0.641583
F4    F     F_    0.848386 0.724135 0.863012 -0.701142

loop_
_geom_bond_atom_site_label_1
_geom_bond_atom_site_label_2
_ccdc_geom_bond_type
C32   C33   A    
O19   C40   A    
H4    C11   S    
C17   C18   A    
C13   C14   A    
C8    H6    S    
O15   V3    S    
O12   V3    S    
C16   C17   A    
O18   C39   A    
C14   C40   S    
C15   H11   S    
O16   V4    S    
C7    C11   S    
C14   C15   A    
C8    H5    S    
O5    C3    A    
C12   H7    S    
V2    O10   S    
C21   C28   S    
C27   C28   S    
C13   C18   A    
O15   C39   A    
C23   F1    S    
O8    V2    S    
C6    H2    S    
O13   C40   A    
C33   C34   A    
C7    H9    S    
C35   C36   S    
O1    V2    S    
O7    V1    S    
C20   H15   S    
C1    O6    A    
C32   H23   S    
O9    C4    A    
C5    F2    S    
V3    O20   S    
C24   C25   A    
C5    H1    S    
H3    C7    S    
C33   C37   S    
O17   V4    S    
C23   C24   A    
C35   F3    S    
C8    C9    S    
C16   H12   S    
O4    C2    A    
O18   V4    S    
O11   C38   A    
C28   H20   S    
O13   V3    S    
C21   C26   A    
C11   H10   S    
C29   C34   A    
C1    C22   S    
C31   C32   A    
O2    C1    A    
C19   C20   S    
C29   C30   A    
C13   C20   S    
C37   O16   A    
O17   V3    S    
C26   C27   S    
C22   C23   A    
C6    C10   S    
C19   H13   S    
C2    C30   S    
C6    F4    S    
O6    V2    S    
O9    V2    S    
C10   C39   S    
C18   C19   S    
O2    V1    S    
C24   H17   S    
C3    C17   S    
C36   H25   S    
C25   C26   A    
C10   C11   S    
O1    C2    A    
O12   C37   A    
O5    V1    S    
C36   H26   S    
O8    C3    A    
C28   H21   S    
O3    C4    A    
O14   C38   A    
C27   H19   S    
C5    C9    S    
C31   H22   S    
O19   V4    S    
O7    V2    S    
O4    V1    S    
C15   C16   A    
O3    V1    S    
V1    O10   S    
C12   H8    S    
O14   V3    S    
C10   C12   S    
C5    C6    S    
C27   H18   S    
C29   C36   S    
C7    C9    S    
C4    C9    S    
C34   C35   S    
C19   H14   S    
C8    C12   S    
O11   V4    S    
C30   C31   A    
C21   C22   A    
C35   H24   S    
V4    O20   S    
C25   C38   S    
C20   H16   S    
