data_mof_unit_9684.cif
_audit_creation_date              2012-12-10T19:13:32-0500
_audit_creation_method            fapswitch 2.2
_symmetry_space_group_name_H-M    P1
_symmetry_Int_Tables_number       1
_space_group_crystal_system       triclinic
_cell_length_a                    9.704271
_cell_length_b                    10.652122
_cell_length_c                    16.570098
_cell_angle_alpha                 90.224994
_cell_angle_beta                  84.808429
_cell_angle_gamma                 90.088327
_cell_volume                      1705.82787452

loop_
_atom_site_label
_atom_site_type_symbol
_atom_type_description
_atom_site_fract_x
_atom_site_fract_y
_atom_site_fract_z
_atom_type_partial_charge
C1    C     C_R   0.500411 0.742323 0.499627 0.846201
C2    C     C_R   0.531243 0.447818 0.263457 -0.010304
C3    C     C_3   0.427104 0.927589 0.428021 -0.386546
C4    C     C_R   0.480436 0.498730 0.653918 0.874079
C5    C     C_3   0.431660 0.071395 0.426574 -0.378777
C6    C     C_3   0.424577 0.924780 0.581193 -0.451613
C7    C     C_3   0.651867 0.928774 0.494441 -0.404926
C8    C     C_3   0.501113 0.878280 0.500675 0.160419
C9    C     C_3   0.499086 0.120720 0.501973 0.072700
C10   C     C_3   0.421635 0.069707 0.582509 -0.149042
C11   C     C_3   0.650688 0.071362 0.496535 -0.404360
C12   C     C_R   0.343734 0.434918 0.780775 -0.156128
C13   C     C_3   0.923724 0.614736 0.461893 -0.231264
C14   C     C_3   0.086584 0.612039 0.456753 -0.212791
C15   C     C_3   0.906045 0.501170 0.585337 -0.282415
C16   C     C_R   0.499791 0.257398 0.501142 0.859406
C17   C     C_3   0.927352 0.386914 0.460152 -0.059001
C18   C     C_3   0.068657 0.507390 0.584819 -0.242285
C19   C     C_3   0.089585 0.387748 0.462448 -0.275933
C20   C     C_R   0.519371 0.493324 0.346484 0.865136
C21   C     C_R   0.468086 0.479687 0.741189 -0.043857
C22   C     C_R   0.585146 0.493577 0.784040 -0.224413
C23   C     C_R   0.445889 0.309365 0.163366 -0.195714
C24   C     C_R   0.579810 0.457708 0.864491 -0.169958
C25   C     C_R   0.458629 0.404266 0.902231 0.187304
C26   C     C_R   0.339163 0.397438 0.861255 -0.157526
C27   C     C_2   0.274724 0.116888 0.600791 0.920315
C28   C     C_2   0.891296 0.370870 0.373489 0.930428
C29   C     C_3   0.671433 0.242341 0.976962 -0.396869
C30   C     C_3   0.687984 0.112855 0.013999 -0.859852
C31   C     C_R   0.431451 0.362953 0.239949 -0.191396
C32   C     C_R   0.648155 0.475197 0.210745 -0.188469
C33   C     C_R   0.662159 0.422067 0.133577 -0.174796
C34   C     C_R   0.559508 0.341085 0.109289 0.184349
C35   C     C_2   0.451153 0.370995 0.987766 -0.299499
C36   C     C_2   0.554568 0.314761 0.023013 0.129484
H1    H     H_    0.681338 0.530296 0.755097 0.142931
H2    H     H_    0.710432 0.106415 0.440789 0.233726
H3    H     H_    0.342645 0.337312 0.280972 0.150059
H4    H     H_    0.704015 0.104743 0.549428 0.175031
H5    H     H_    0.478709 0.890267 0.633270 0.144504
H6    H     H_    0.480544 0.101904 0.633483 0.117789
H7    H     H_    0.886438 0.699753 0.496449 0.142595
H8    H     H_    0.887324 0.626731 0.400853 0.185262
H9    H     H_    0.129443 0.608854 0.392209 0.181196
H10   H     H_    0.124366 0.700991 0.482305 0.149040
H11   H     H_    0.859400 0.582783 0.619831 0.156941
H12   H     H_    0.748617 0.449657 0.091422 0.121756
H13   H     H_    0.098792 0.594772 0.615806 0.149052
H14   H     H_    0.887247 0.302009 0.493718 0.109854
H15   H     H_    0.726185 0.539819 0.228610 0.149377
H16   H     H_    0.144875 0.377274 0.401009 0.168902
H17   H     H_    0.119988 0.304345 0.496656 0.183892
H18   H     H_    0.866617 0.415815 0.618417 0.150993
H19   H     H_    0.104998 0.428031 0.620646 0.158409
H20   H     H_    0.243400 0.361366 0.891171 0.129311
H21   H     H_    0.365387 0.247987 0.144683 0.138604
H22   H     H_    0.251663 0.424855 0.748962 0.160697
H23   H     H_    0.317256 0.895971 0.432905 0.193245
H24   H     H_    0.365186 0.412557 0.025353 0.146888
H25   H     H_    0.670353 0.471572 0.897191 0.128910
H26   H     H_    0.141231 0.216930 0.675846 0.319456
H27   H     H_    0.929226 0.420611 0.256152 0.335910
H28   H     H_    0.717234 0.121595 0.077063 0.264255
H29   H     H_    0.589816 0.058998 0.014169 0.261040
H30   H     H_    0.770819 0.060299 0.977672 0.246336
H31   H     H_    0.651760 0.227968 0.912596 0.223357
H32   H     H_    0.769848 0.295322 0.978419 0.187855
H33   H     H_    0.478022 0.889819 0.370069 0.150047
H34   H     H_    0.493016 0.103261 0.370294 0.174055
H35   H     H_    0.325438 0.109124 0.424050 0.202225
H36   H     H_    0.318246 0.884337 0.588610 0.189683
H37   H     H_    0.707668 0.893668 0.545720 0.179331
H38   H     H_    0.709451 0.895936 0.437022 0.178255
N1    N     N_3   0.861190 0.500250 0.501720 -0.073944
N2    N     N_3   0.138550 0.503270 0.501080 -0.044829
O1    O     O_R   0.383960 0.685090 0.500020 -0.632392
O2    O     O_R   0.242844 0.193657 0.668438 -0.830942
O3    O     O_2   0.813054 0.286753 0.356495 -0.652648
O4    O     O_R   0.953936 0.446763 0.311914 -0.857815
O5    O     O_R   0.616040 0.685320 0.499960 -0.639998
O6    O     O_R   0.370240 0.499890 0.615830 -0.614291
O7    O     O_R   0.602330 0.500120 0.615770 -0.629918
O8    O     O_R   0.383960 0.314680 0.500040 -0.624443
O9    O     O_R   0.616040 0.314910 0.499980 -0.612497
O10   O     O_R   0.397670 0.499880 0.384230 -0.629039
O11   O     O_R   0.629760 0.500110 0.384170 -0.594080
O12   O     O_2   0.183912 0.086003 0.558070 -0.675780
Zn1   Zn    Zn3+2 0.345040 0.499850 0.500040 0.918440
Zn2   Zn    Zn3+2 0.654960 0.500150 0.499960 0.931323

loop_
_geom_bond_atom_site_label_1
_geom_bond_atom_site_label_2
_ccdc_geom_bond_type
C10   C27   S    
C15   C18   S    
C15   N1    S    
C24   H25   S    
C30   H28   S    
C10   H6    S    
C1    C8    S    
C1    O1    A    
C35   C36   D    
C15   H11   S    
C27   O2    S    
C7    C8    S    
C14   H10   S    
C6    H36   S    
C29   C36   S    
O1    Zn1   S    
C29   C30   S    
O6    Zn1   S    
C19   N2    S    
C3    H33   S    
C9    C16   S    
C1    O5    A    
C20   O11   A    
C16   O8    A    
C2    C32   A    
C28   O3    D    
N1    Zn2   S    
C29   H31   S    
C19   H16   S    
C13   N1    S    
C6    H5    S    
C20   O10   A    
C14   H9    S    
C9    C10   S    
N2    Zn1   S    
C12   H22   S    
C19   H17   S    
C13   C14   S    
C27   O12   D    
C7    H38   S    
H27   O4    S    
C2    C20   S    
C15   H18   S    
C24   C25   A    
C7    H37   S    
C3    C8    S    
C6    C8    S    
C25   C26   A    
C22   H1    S    
C12   C21   A    
C12   C26   A    
C35   H24   S    
C23   C31   A    
C11   H2    S    
C7    C11   S    
C32   H15   S    
C5    C9    S    
C5    H34   S    
C29   H32   S    
C23   C34   A    
C33   C34   A    
C9    C11   S    
C30   H30   S    
C18   H19   S    
C25   C35   S    
O5    Zn2   S    
C16   O9    A    
C22   C24   A    
O8    Zn1   S    
C13   H7    S    
C23   H21   S    
O7    Zn2   S    
C18   N2    S    
C17   C28   S    
H26   O2    S    
C3    C5    S    
O10   Zn1   S    
C26   H20   S    
C17   H14   S    
C6    C10   S    
O9    Zn2   S    
C32   C33   A    
C5    H35   S    
C4    C21   S    
C4    O7    A    
C17   C19   S    
C31   H3    S    
C34   C36   S    
C11   H4    S    
C28   O4    S    
C30   H29   S    
C4    O6    A    
O11   Zn2   S    
C17   N1    S    
C33   H12   S    
C2    C31   A    
C21   C22   A    
C13   H8    S    
C18   H13   S    
C14   N2    S    
C3    H23   S    
