data_mof_unit_51403.cif
_audit_creation_date              2012-12-11T15:39:14-0500
_audit_creation_method            fapswitch 2.2
_symmetry_space_group_name_H-M    P1
_symmetry_Int_Tables_number       1
_space_group_crystal_system       triclinic
_cell_length_a                    17.276681
_cell_length_b                    24.229187
_cell_length_c                    14.875634
_cell_angle_alpha                 89.972237
_cell_angle_beta                  125.35804
_cell_angle_gamma                 89.958617
_cell_volume                      5078.38726852

loop_
_atom_site_label
_atom_site_type_symbol
_atom_type_description
_atom_site_fract_x
_atom_site_fract_y
_atom_site_fract_z
_atom_type_partial_charge
C1    C     C_R   0.351533 0.347940 0.908500 -0.136734
C2    C     C_R   0.690374 0.375903 0.092125 -0.125098
C3    C     C_R   0.851538 0.847941 0.908497 -0.136739
C4    C     C_R   0.190373 0.875903 0.092127 -0.125098
C5    C     C_R   0.382847 0.684602 0.999963 0.054045
C6    C     C_R   0.688529 0.636837 0.999957 0.036773
C7    C     C_R   0.882847 0.184602 0.999959 0.054046
C8    C     C_R   0.188537 0.136831 0.999962 0.036773
C9    C     C_R   0.448438 0.500026 0.274033 0.038722
C10   C     C_R   0.433153 0.500045 0.631204 0.050328
C11   C     C_R   0.948441 0.000030 0.274039 0.038723
C12   C     C_R   0.933145 0.000048 0.631199 0.050326
C13   C     C_R   0.174268 0.501093 0.721843 0.048169
C14   C     C_R   0.801321 0.501198 0.368517 0.055489
C15   C     C_R   0.674270 0.001093 0.721841 0.048168
C16   C     C_R   0.301325 0.001198 0.368511 0.055493
C17   C     C_R   0.023098 0.553388 0.616729 -0.105754
C18   C     C_R   0.927969 0.553657 0.530797 -0.044460
C19   C     C_R   0.523099 0.053387 0.616724 -0.105751
C20   C     C_R   0.427971 0.053656 0.530791 -0.044475
C21   C     C_R   0.071579 0.503589 0.663256 0.096768
C22   C     C_R   0.880669 0.503629 0.484619 0.068592
C23   C     C_R   0.571581 0.003588 0.663255 0.096767
C24   C     C_R   0.380673 0.003629 0.484613 0.068594
C25   C     C_R   0.017607 0.455139 0.636729 -0.181767
C26   C     C_R   0.922058 0.455039 0.546634 -0.174117
C27   C     C_R   0.517611 0.955139 0.636727 -0.181764
C28   C     C_R   0.422063 0.955039 0.546627 -0.174122
C29   C     C_3   0.938680 0.603835 0.478914 0.231119
C30   C     C_3   0.043575 0.602761 0.571665 0.235159
C31   C     C_3   0.438681 0.103835 0.478911 0.231112
C32   C     C_3   0.543576 0.102760 0.571663 0.235171
C33   C     C_R   0.291594 0.768863 0.900022 -0.170546
C34   C     C_R   0.842945 0.685352 0.099694 -0.157371
C35   C     C_R   0.791577 0.268858 0.900008 -0.170542
C36   C     C_R   0.342941 0.185356 0.099717 -0.157362
C37   C     C_R   0.743676 0.314655 0.900019 -0.165626
C38   C     C_R   0.390380 0.231367 0.099783 -0.162531
C39   C     C_R   0.243691 0.814660 0.900032 -0.165631
C40   C     C_R   0.890395 0.731357 0.099757 -0.162549
C41   C     C_R   0.762358 0.333641 0.999776 0.141447
C42   C     C_R   0.357855 0.257904 0.999982 0.135087
C43   C     C_R   0.262362 0.833640 0.999785 0.141446
C44   C     C_R   0.857854 0.757904 0.999964 0.135088
C45   C     C_R   0.443660 0.652337 0.091360 -0.135571
C46   C     C_R   0.598266 0.624082 0.907774 -0.121833
C47   C     C_R   0.943661 0.152338 0.091357 -0.135568
C48   C     C_R   0.098273 0.124077 0.907777 -0.121832
C49   C     C_R   0.843299 0.314693 0.099524 -0.166329
C50   C     C_R   0.290896 0.231497 0.900168 -0.170316
C51   C     C_R   0.343294 0.814687 0.099533 -0.166326
C52   C     C_R   0.790865 0.731512 0.900147 -0.170319
C53   C     C_R   0.391255 0.768889 0.099624 -0.168399
C54   C     C_R   0.743419 0.685534 0.900182 -0.163993
C55   C     C_R   0.891260 0.268894 0.099614 -0.168399
C56   C     C_R   0.243457 0.185513 0.900201 -0.163994
C57   C     C_R   0.358893 0.742464 0.999868 0.140106
C58   C     C_R   0.762230 0.666366 0.999932 0.135657
C59   C     C_R   0.858889 0.242464 0.999858 0.140107
C60   C     C_R   0.262247 0.166355 0.999948 0.135648
C61   C     C_R   0.390010 0.550047 0.462643 -0.160014
C62   C     C_R   0.391914 0.550017 0.370912 -0.167742
C63   C     C_R   0.890029 0.050059 0.462656 -0.159996
C64   C     C_R   0.891936 0.050029 0.370928 -0.167730
C65   C     C_R   0.404035 0.500061 0.332966 0.140006
C66   C     C_R   0.399127 0.500072 0.515555 0.140509
C67   C     C_R   0.904032 0.000069 0.332964 0.140006
C68   C     C_R   0.899116 0.000080 0.515547 0.140514
C69   C     C_R   0.391948 0.450125 0.371014 -0.163597
C70   C     C_R   0.390042 0.450105 0.462738 -0.169032
C71   C     C_R   0.891919 0.950135 0.370991 -0.163607
C72   C     C_R   0.890005 0.950114 0.462711 -0.169036
C73   C     C_R   0.479875 0.453846 0.248393 -0.124366
C74   C     C_R   0.449918 0.454255 0.695512 -0.139855
C75   C     C_R   0.979876 0.953848 0.248397 -0.124368
C76   C     C_R   0.949916 0.954256 0.695508 -0.139850
C77   C     C_R   0.232700 0.546557 0.753400 -0.030497
C78   C     C_R   0.752141 0.546233 0.304136 -0.176301
C79   C     C_R   0.732701 0.046556 0.753399 -0.030505
C80   C     C_R   0.252143 0.046233 0.304134 -0.176306
C81   C     C_R   0.479877 0.546165 0.248354 -0.120585
C82   C     C_R   0.449922 0.545787 0.695521 -0.128857
C83   C     C_R   0.979881 0.046167 0.248357 -0.120585
C84   C     C_R   0.949917 0.045789 0.695521 -0.128866
C85   C     C_R   0.230371 0.454310 0.747653 -0.144303
C86   C     C_R   0.755089 0.454818 0.305237 -0.129873
C87   C     C_R   0.730372 0.954310 0.747651 -0.144301
C88   C     C_R   0.255092 0.954818 0.305233 -0.129872
C89   C     C_R   0.352634 0.652465 0.908587 -0.159261
C90   C     C_R   0.690384 0.624029 0.092251 -0.121236
C91   C     C_R   0.852634 0.152464 0.908585 -0.159261
C92   C     C_R   0.190386 0.124025 0.092253 -0.121230
C93   C     C_R   0.443286 0.347733 0.091456 -0.139436
C94   C     C_R   0.598195 0.375817 0.907676 -0.123968
C95   C     C_R   0.943285 0.847732 0.091452 -0.139428
C96   C     C_R   0.098197 0.875818 0.907677 -0.123970
C97   C     C_R   0.381792 0.315735 0.999989 0.050925
C98   C     C_R   0.688505 0.363054 0.999838 0.040034
C99   C     C_R   0.881797 0.815734 0.999982 0.050929
C100  C     C_R   0.188507 0.863055 0.999841 0.040033
H1    H     H_    0.313718 0.334341 0.823984 0.086062
H2    H     H_    0.748471 0.371017 0.177664 0.093288
H3    H     H_    0.813727 0.834344 0.823980 0.086063
H4    H     H_    0.248469 0.871017 0.177665 0.093286
H5    H     H_    0.922656 0.596614 0.395885 0.111725
H6    H     H_    0.069074 0.639329 0.626897 0.106732
H7    H     H_    0.422658 0.096616 0.395884 0.111736
H8    H     H_    0.569076 0.139329 0.626895 0.106734
H9    H     H_    0.268696 0.751568 0.821336 0.112851
H10   H     H_    0.863753 0.668935 0.178314 0.122018
H11   H     H_    0.768663 0.251558 0.821316 0.112846
H12   H     H_    0.363734 0.168949 0.178339 0.122017
H13   H     H_    0.685826 0.330897 0.821400 0.111456
H14   H     H_    0.445856 0.248650 0.178491 0.114963
H15   H     H_    0.185849 0.830907 0.821415 0.111460
H16   H     H_    0.945902 0.748625 0.178456 0.114973
H17   H     H_    0.863952 0.330967 0.178123 0.108657
H18   H     H_    0.267974 0.248862 0.821472 0.107878
H19   H     H_    0.363939 0.830956 0.178132 0.108656
H20   H     H_    0.767926 0.748886 0.821453 0.107877
H21   H     H_    0.446964 0.751607 0.178327 0.109122
H22   H     H_    0.685765 0.669273 0.821576 0.108851
H23   H     H_    0.946981 0.251617 0.178317 0.109123
H24   H     H_    0.185823 0.169238 0.821595 0.108853
H25   H     H_    0.390913 0.589445 0.497205 0.110268
H26   H     H_    0.394141 0.589372 0.338277 0.109403
H27   H     H_    0.890965 0.089461 0.497238 0.110251
H28   H     H_    0.894190 0.089386 0.338316 0.109394
H29   H     H_    0.394215 0.410764 0.338476 0.113330
H30   H     H_    0.390977 0.410700 0.497365 0.112342
H31   H     H_    0.894165 0.910774 0.338434 0.113336
H32   H     H_    0.890916 0.910709 0.497322 0.112347
H33   H     H_    0.490593 0.666074 0.175724 0.089361
H34   H     H_    0.570965 0.629100 0.822224 0.092573
H35   H     H_    0.990591 0.166075 0.175721 0.089359
H36   H     H_    0.070977 0.129097 0.822228 0.092576
H37   H     H_    0.469548 0.411027 0.258469 0.095634
H38   H     H_    0.431339 0.412020 0.668048 0.088285
H39   H     H_    0.969548 0.911030 0.258479 0.095637
H40   H     H_    0.931345 0.912021 0.668042 0.088284
H41   H     H_    0.214167 0.589236 0.750367 0.112578
H42   H     H_    0.756491 0.587964 0.331950 0.156735
H43   H     H_    0.714168 0.089236 0.750363 0.112578
H44   H     H_    0.256494 0.087964 0.331949 0.156733
H45   H     H_    0.469551 0.588996 0.258381 0.093502
H46   H     H_    0.431350 0.588057 0.668040 0.091187
H47   H     H_    0.969557 0.088999 0.258380 0.093499
H48   H     H_    0.931342 0.088059 0.668046 0.091195
H49   H     H_    0.208285 0.411689 0.734993 0.099632
H50   H     H_    0.765765 0.412737 0.334312 0.085170
H51   H     H_    0.708286 0.911689 0.734989 0.099631
H52   H     H_    0.265769 0.912737 0.334308 0.085167
H53   H     H_    0.315650 0.666336 0.824256 0.100230
H54   H     H_    0.748429 0.628903 0.177823 0.108134
H55   H     H_    0.815652 0.166333 0.824253 0.100230
H56   H     H_    0.248428 0.128898 0.177826 0.108127
H57   H     H_    0.490259 0.333833 0.175768 0.087983
H58   H     H_    0.570846 0.370786 0.822132 0.094893
H59   H     H_    0.990249 0.833830 0.175765 0.087982
H60   H     H_    0.070852 0.870787 0.822134 0.094894
H61   H     H_    0.050975 0.416205 0.675736 0.119130
H62   H     H_    0.885353 0.415922 0.518693 0.116715
H63   H     H_    0.550979 0.916205 0.675736 0.119128
H64   H     H_    0.385360 0.915922 0.518684 0.116716
N1    N     N_R   0.394180 0.396910 0.943210 -0.038138
N2    N     N_R   0.605820 0.396910 0.056790 -0.040582
N3    N     N_R   0.894180 0.896910 0.943210 -0.038138
N4    N     N_R   0.105820 0.896910 0.056790 -0.040582
N5    N     N_R   0.450950 0.603070 0.056740 -0.039046
N6    N     N_R   0.549050 0.603070 0.943260 -0.040369
N7    N     N_R   0.950950 0.103070 0.056740 -0.039046
N8    N     N_R   0.049050 0.103070 0.943260 -0.040370
N9    N     N_R   0.525650 0.471570 0.206150 -0.040490
N10   N     N_R   0.474350 0.471570 0.793850 -0.038700
N11   N     N_R   0.025650 0.971570 0.206150 -0.040489
N12   N     N_R   0.974350 0.971570 0.793850 -0.038700
N13   N     N_R   0.319480 0.528420 0.793810 -0.048747
N14   N     N_R   0.680520 0.528420 0.206190 -0.040136
N15   N     N_R   0.819480 0.028420 0.793810 -0.048746
N16   N     N_R   0.180520 0.028420 0.206190 -0.040135
N17   N     N_R   0.525640 0.528390 0.206120 -0.039674
N18   N     N_R   0.474360 0.528390 0.793880 -0.039534
N19   N     N_R   0.025640 0.028390 0.206120 -0.039674
N20   N     N_R   0.974360 0.028390 0.793880 -0.039535
N21   N     N_R   0.319490 0.471590 0.793840 -0.043027
N22   N     N_R   0.680510 0.471590 0.206160 -0.037940
N23   N     N_R   0.819490 0.971590 0.793840 -0.043026
N24   N     N_R   0.180510 0.971590 0.206160 -0.037939
N25   N     N_R   0.394130 0.603080 0.943110 -0.043508
N26   N     N_R   0.605870 0.603080 0.056890 -0.040072
N27   N     N_R   0.894130 0.103080 0.943110 -0.043508
N28   N     N_R   0.105870 0.103080 0.056890 -0.040073
N29   N     N_R   0.450990 0.396900 0.056840 -0.038879
N30   N     N_R   0.549010 0.396900 0.943160 -0.040366
N31   N     N_R   0.950990 0.896900 0.056840 -0.038879
N32   N     N_R   0.049010 0.896900 0.943160 -0.040365
Ni1   Ni    Ni4+2 0.434860 0.434850 0.869700 0.211377
Ni2   Ni    Ni4+2 0.565140 0.434850 0.130300 0.210767
Ni3   Ni    Ni4+2 0.934860 0.934850 0.869700 0.211377
Ni4   Ni    Ni4+2 0.065140 0.934850 0.130300 0.210767
Ni5   Ni    Ni4+2 0.565130 0.565140 0.130240 0.219358
Ni6   Ni    Ni4+2 0.434870 0.565140 0.869760 0.222320
Ni7   Ni    Ni4+2 0.065130 0.065140 0.130240 0.219357
Ni8   Ni    Ni4+2 0.934870 0.065140 0.869760 0.222320
O1    O     O_3   0.891921 0.650769 0.481733 -0.760537
H65   H     H_    0.903385 0.652883 0.555264 0.317195
O2    O     O_3   0.099990 0.591001 0.533627 -0.751502
H66   H     H_    0.078029 0.555763 0.491808 0.319979
O3    O     O_3   0.391923 0.150768 0.481733 -0.760547
H67   H     H_    0.403378 0.152876 0.555259 0.317199
O4    O     O_3   0.599991 0.091001 0.533624 -0.751504
H68   H     H_    0.578035 0.055761 0.491810 0.319982

loop_
_geom_bond_atom_site_label_1
_geom_bond_atom_site_label_2
_ccdc_geom_bond_type
C13   C21   S    
C51   C53   A    
N20   Ni8   S    
C55   C59   A    
C94   N30   A    
C6    C58   S    
C19   C20   A    
N3    N31   A    
N5    N25   A    
N16   Ni7   S    
N10   N18   A    
N2    Ni2   S    
C82   N18   A    
C3    N3    A    
C66   C70   A    
O1    H65   S    
N8    N28   A    
C12   C68   S    
C33   C39   A    
C73   H37   S    
C75   H39   S    
C37   C41   A    
C34   C40   A    
C56   H24   S    
C95   N31   A    
C35   C37   A    
C74   N10   A    
C86   H50   S    
C54   C58   A    
C38   H14   S    
C44   C99   S    
C95   C99   A    
N30   Ni1   S    
C37   H13   S    
N24   Ni4   S    
N29   Ni2   S    
C2    H2    S    
C96   C100  A    
C70   H30   S    
N13   N21   A    
C12   C84   A    
C35   C59   A    
C63   H27   S    
C96   N32   A    
C41   C49   A    
N8    Ni8   S    
N16   N24   A    
C27   H63   S    
C48   N8    A    
C61   C66   A    
C79   H43   S    
C20   C24   A    
C25   H61   S    
C80   H44   S    
C17   C18   A    
C36   H12   S    
C51   H19   S    
C78   N14   A    
C8    C92   A    
C81   N17   A    
C90   H54   S    
C6    C46   A    
C2    N2    A    
C67   C71   A    
C10   C74   A    
C53   H21   S    
C44   C52   A    
C15   C23   S    
C54   H22   S    
N9    N17   A    
C16   C24   S    
C87   H51   S    
C30   H6    S    
N15   N23   A    
N7    Ni7   S    
C17   C30   S    
C88   H52   S    
C29   H5    S    
C61   C62   A    
C88   N24   A    
C9    C73   A    
N32   Ni3   S    
C19   C32   S    
C7    C59   S    
C82   H46   S    
C11   C67   S    
C72   H32   S    
C13   C77   A    
C23   C27   A    
C10   C66   S    
C85   N21   A    
C49   H17   S    
N7    N27   A    
O2    H66   S    
C64   C67   A    
N2    N30   A    
C84   N20   A    
C76   N12   A    
C43   C100  S    
C14   C86   A    
C16   C88   A    
C42   C97   S    
C1    C97   A    
C62   H26   S    
C32   O4    S    
C53   C57   A    
C87   N23   A    
C11   C83   A    
C25   C26   A    
C6    C90   A    
C91   N27   A    
C26   H62   S    
C50   C56   A    
C4    N4    A    
N23   Ni3   S    
C16   C80   A    
C7    C47   A    
C84   H48   S    
C19   C23   A    
C8    C48   A    
O4    H68   S    
C91   H55   S    
C29   C30   S    
N1    Ni1   S    
C46   H34   S    
C77   N13   A    
C45   H33   S    
C93   C97   A    
C89   H53   S    
C31   C32   S    
C31   O3    S    
C1    N1    A    
C68   C72   A    
C7    C91   A    
C9    C65   S    
C64   H28   S    
O3    H67   S    
C83   N19   A    
C92   H56   S    
C18   C29   S    
C93   H57   S    
C46   N6    A    
C42   C50   A    
C83   H47   S    
C52   H20   S    
C69   H29   S    
C96   H60   S    
C86   N22   A    
C1    H1    S    
C81   H45   S    
C50   H18   S    
C12   C76   A    
C32   H8    S    
C34   H10   S    
C95   H59   S    
C33   H9    S    
N27   Ni8   S    
N1    N29   A    
C76   H40   S    
C13   C85   A    
C55   H23   S    
C80   N16   A    
C35   H11   S    
C28   H64   S    
C15   C87   A    
N31   Ni4   S    
C90   N26   A    
C3    H3    S    
N12   N20   A    
C75   N11   A    
C21   C25   A    
C63   C68   A    
N10   Ni1   S    
C33   C57   A    
N4    Ni4   S    
C62   C65   A    
C47   H35   S    
N9    Ni2   S    
C18   C22   A    
N11   N19   A    
C31   H7    S    
C48   H36   S    
N3    Ni3   S    
N17   Ni5   S    
C24   C28   A    
C36   C60   A    
C49   C55   A    
C45   N5    A    
C29   O1    S    
C47   N7    A    
N18   Ni6   S    
N26   Ni5   S    
C38   C42   A    
C15   C79   A    
N25   Ni6   S    
C85   H49   S    
N6    N26   A    
C39   H15   S    
C4    C100  A    
C5    C57   S    
N19   Ni7   S    
C14   C22   S    
C78   H42   S    
N4    N32   A    
C71   C72   A    
C11   C75   A    
C89   N25   A    
C8    C60   S    
N13   Ni6   S    
C74   H38   S    
C43   C51   A    
C40   H16   S    
C5    C45   A    
C65   C69   A    
C30   O2    S    
C4    H4    S    
C36   C38   A    
N28   Ni7   S    
C10   C82   A    
C52   C54   A    
C79   N15   A    
C14   C78   A    
C73   N9    A    
C69   C70   A    
C77   H41   S    
N11   Ni4   S    
N6    Ni6   S    
N5    Ni5   S    
C63   C64   A    
N14   N22   A    
C3    C99   A    
C40   C44   A    
C56   C60   A    
N15   Ni8   S    
C2    C98   A    
C71   H31   S    
C94   H58   S    
C22   C26   A    
N14   Ni5   S    
C93   N29   A    
C27   C28   A    
C34   C58   A    
C94   C98   A    
C41   C98   S    
N22   Ni2   S    
C61   H25   S    
N12   Ni3   S    
N21   Ni1   S    
C39   C43   A    
C5    C89   A    
C92   N28   A    
C9    C81   A    
C20   C31   S    
C17   C21   A    
