data_mof_unit_53652.cif
_audit_creation_date              2013-03-05T16:46:36-0500
_audit_creation_method            fapswitch 2.2
_symmetry_space_group_name_H-M    P1
_symmetry_Int_Tables_number       1
_space_group_crystal_system       triclinic
_cell_length_a                    12.838283
_cell_length_b                    8.925592
_cell_length_c                    8.129818
_cell_angle_alpha                 90.000044
_cell_angle_beta                  97.40546
_cell_angle_gamma                 89.999976
_cell_volume                      923.819459319

loop_
_atom_site_label
_atom_site_type_symbol
_atom_site_description
_atom_site_fract_x
_atom_site_fract_y
_atom_site_fract_z
_atom_type_partial_charge
O1    O     O_R   0.499990 0.285340 0.636850 -0.597006
O2    O     O_R   0.500010 0.714660 0.363150 -0.626227
O3    O     O_R   0.500010 0.285340 0.363150 -0.597054
O4    O     O_R   0.499990 0.714660 0.636850 -0.626232
N1    N     N_1   0.500020 0.500000 0.073640 0.020021
N2    N     N_1   0.499980 0.500000 0.926360 0.020024
C1    C     C_R   0.500000 0.218102 0.500000 1.012976
C2    C     C_R   0.500000 0.781905 0.500000 0.918403
O5    O     O_R   0.346350 0.500000 0.614250 -0.563644
O6    O     O_R   0.653650 0.500000 0.385750 -0.563648
O7    O     O_R   0.346360 0.500000 0.340500 -0.626391
O8    O     O_R   0.653640 0.500000 0.659500 -0.626392
C3    C     C_R   0.297137 0.492116 0.467474 0.931325
C4    C     C_R   0.702863 0.492116 0.532526 0.931317
Zn1   Zn    Zn3+2 0.499990 0.500000 0.682780 1.067818
Zn2   Zn    Zn3+2 0.500010 0.500000 0.317220 1.067802
C5    C     C_R   0.815427 0.464910 0.553003 -0.194994
C6    C     C_R   0.184573 0.464911 0.446997 -0.194998
C7    C     C_R   0.014521 0.457449 0.280185 -0.083343
C8    C     C_R   0.985479 0.457448 0.719814 -0.083341
C9    C     C_R   0.120126 0.498461 0.296065 0.102997
C10   C     C_R   0.879875 0.498460 0.703934 0.102993
C11   C     C_R   0.138281 0.408620 0.583169 0.378370
C12   C     C_R   0.861719 0.408620 0.416830 0.378377
C13   C     C_R   0.030865 0.423732 0.577427 -0.044116
C14   C     C_R   0.969135 0.423733 0.422571 -0.044118
H1    H     H_    0.965359 0.471085 0.162727 0.176147
H2    H     H_    0.034641 0.471083 0.837272 0.176146
C15   C     C_1   0.500000 0.065223 0.500000 -0.131161
C16   C     C_1   0.500000 0.934777 0.500000 -0.165561
S1    S     S_3+6 0.794930 0.287294 0.263902 0.033051
O9    O     O_2   0.729308 0.375964 0.132186 -0.329273
O10   O     O_2   0.872768 0.194957 0.184436 -0.268235
O11   O     O_3   0.716899 0.171504 0.355814 -0.565707
H3    H     H_    0.682464 0.107447 0.265175 0.382501
S2    S     S_3+6 0.205070 0.287291 0.736094 0.033046
O12   O     O_2   0.270691 0.375957 0.867814 -0.329235
O13   O     O_2   0.127231 0.194952 0.815555 -0.268275
O14   O     O_3   0.283103 0.171505 0.644178 -0.565723
H4    H     H_    0.317471 0.107364 0.734790 0.382502
C17   C     C_3   0.841003 0.584925 0.842982 -0.758850
H5    H     H_    0.906460 0.621626 0.936694 0.210239
H6    H     H_    0.799668 0.687841 0.793314 0.237734
H7    H     H_    0.787239 0.514789 0.905276 0.300314
C18   C     C_3   0.158997 0.584925 0.157017 -0.758861
H8    H     H_    0.200332 0.687841 0.206685 0.237731
H9    H     H_    0.212761 0.514789 0.094723 0.300312
H10   H     H_    0.093540 0.621626 0.063305 0.210239

loop_
_geom_bond_atom_site_label_1
_geom_bond_atom_site_label_2
_geom_bond_distance
_ccdc_geom_bond_type
S1    O10   1.503867 D    
C15   C16   1.164306 T    
O1    Zn1   1.952015 S    
C6    C9    1.420629 A    
O7    C3    1.279860 A    
C17   H5    1.108555 S    
O3    C1    1.264124 A    
C5    C10   1.420630 A    
O8    Zn1   2.005796 S    
O4    C2    1.264151 A    
C2    C16   1.364472 S    
O4    Zn1   1.952015 S    
S2    O13   1.503869 D    
C13   C14   1.398509 A    
S1    O11   1.680186 S    
O6    Zn2   1.979336 S    
C18   H8    1.110506 S    
C17   H6    1.110506 S    
C4    C5    1.453636 S    
C3    C6    1.453636 S    
C1    C15   1.364535 S    
S2    O12   1.500083 D    
C7    C9    1.394160 A    
O8    C4    1.279862 A    
C11   S2    1.782937 S    
C9    C18   1.505968 S    
C18   H9    1.102233 S    
O5    Zn1   1.979336 S    
N1    N2    1.197294 T    
C12   C14   1.380411 A    
C17   H7    1.102232 S    
C12   S1    1.782937 S    
C5    C12   1.414502 A    
C8    C13   1.394249 A    
C6    C11   1.414501 A    
C10   C17   1.505968 S    
C11   C13   1.380411 A    
O2    Zn2   1.952015 S    
O11   H3    0.990632 S    
O6    C4    1.278149 A    
C18   H10   1.108556 S    
O14   H4    0.990614 S    
C7    C14   1.394249 A    
O5    C3    1.278148 A    
N1    Zn2   1.980277 S    
C8    H2    1.081510 S    
N2    Zn1   1.980278 S    
O1    C1    1.264124 A    
S2    O14   1.680187 S    
O7    Zn2   2.005796 S    
O2    C2    1.264151 A    
O3    Zn2   1.952016 S    
S1    O9    1.500083 D    
C8    C10   1.394159 A    
C7    H1    1.081510 S    
