data_mof_unit_9097.cif
_audit_creation_date              2012-12-11T17:24:00-0500
_audit_creation_method            fapswitch 2.2
_symmetry_space_group_name_H-M    P1
_symmetry_Int_Tables_number       1
_space_group_crystal_system       triclinic
_cell_length_a                    20.017863
_cell_length_b                    19.911339
_cell_length_c                    19.849932
_cell_angle_alpha                 110.510138
_cell_angle_beta                  107.311011
_cell_angle_gamma                 110.334932
_cell_volume                      6105.33547511

loop_
_atom_site_label
_atom_site_type_symbol
_atom_type_description
_atom_site_fract_x
_atom_site_fract_y
_atom_site_fract_z
_atom_type_partial_charge
C1    C     C_R   0.001417 0.729026 0.071960 -0.131448
C2    C     C_R   0.043713 0.307592 0.973214 -0.178865
C3    C     C_R   0.766864 0.230774 0.764666 -0.326487
C4    C     C_R   0.235283 0.765958 0.237505 -0.290218
C5    C     C_R   0.983380 0.502374 0.756733 -0.108765
C6    C     C_R   0.958260 0.499648 0.232106 -0.126729
C7    C     C_R   0.756150 0.501098 0.984729 -0.319841
C8    C     C_R   0.226770 0.496334 0.949753 -0.315382
C9    C     C_3   0.412641 0.430467 0.836360 0.213079
C10   C     C_3   0.534900 0.554225 0.985014 0.213174
C11   C     C_3   0.489525 0.503034 0.852689 0.300177
C12   C     C_3   0.459323 0.482009 0.968783 0.305886
C13   C     C_1   0.680442 0.496649 0.957563 -0.004933
C14   C     C_1   0.285013 0.496619 0.923622 0.016978
C15   C     C_3   0.464185 0.418907 0.901528 0.300828
C16   C     C_3   0.484025 0.566222 0.920327 0.323367
C17   C     C_3   0.541393 0.491525 0.918318 -0.220303
C18   C     C_3   0.406807 0.493649 0.903356 -0.217679
C19   C     C_1   0.616780 0.493128 0.936162 0.189711
C20   C     C_1   0.337648 0.495756 0.908235 0.196265
C21   C     C_R   0.483990 0.033773 0.410119 0.382303
C22   C     C_R   0.485632 0.088543 0.562389 0.402714
C23   C     C_R   0.841527 0.273564 0.771538 0.556160
C24   C     C_R   0.159476 0.724670 0.229769 0.522646
C25   C     C_R   0.413111 0.998140 0.415578 -0.363631
C26   C     C_R   0.557928 0.115091 0.557549 -0.398150
C27   C     C_R   0.412552 0.028670 0.490800 0.383370
C28   C     C_R   0.556856 0.095504 0.481941 0.390904
C29   C     C_1   0.347665 0.918993 0.349553 0.186959
C30   C     C_1   0.632421 0.152734 0.628961 0.197594
C31   C     C_1   0.693993 0.184991 0.690075 -0.049331
C32   C     C_1   0.295789 0.849558 0.297665 -0.057808
C33   C     C_R   0.920764 0.576233 0.543059 0.474000
C34   C     C_R   0.845357 0.422301 0.398048 0.474199
C35   C     C_R   0.894026 0.501127 0.544162 -0.425432
C36   C     C_R   0.882769 0.497860 0.399663 -0.429823
C37   C     C_R   0.851106 0.423906 0.470481 0.462442
C38   C     C_R   0.915040 0.574557 0.470562 0.468064
C39   C     C_1   0.923856 0.503537 0.620615 0.073749
C40   C     C_1   0.904519 0.497578 0.337115 0.080566
C41   C     C_1   0.927780 0.498036 0.288195 -0.033620
C42   C     C_1   0.951283 0.503998 0.683327 -0.034743
C43   C     C_R   0.088142 0.127587 0.155118 0.354358
C44   C     C_R   0.127966 0.033202 0.048234 0.344699
C45   C     C_R   0.032093 0.570532 0.834407 -0.250863
C46   C     C_R   0.931512 0.431241 0.159233 -0.159984
C47   C     C_R   0.106304 0.148659 0.099805 -0.311346
C48   C     C_R   0.107561 0.010454 0.101819 -0.314397
C49   C     C_R   0.132012 0.105693 0.050872 0.322684
C50   C     C_R   0.093156 0.060407 0.159156 0.321635
C51   C     C_1   0.083415 0.202357 0.080614 0.194058
C52   C     C_1   0.088212 0.929381 0.088100 0.183818
C53   C     C_1   0.067271 0.858839 0.069829 -0.009912
C54   C     C_1   0.058590 0.240752 0.057276 0.015529
C55   C     C_R   0.764312 0.432186 0.967650 0.496409
C56   C     C_R   0.224798 0.566226 0.993159 0.578219
C57   C     C_R   0.966750 0.432556 0.764271 0.559948
C58   C     C_R   0.998662 0.568659 0.227438 0.570968
C59   C     C_R   0.833726 0.570946 0.034814 0.509443
C60   C     C_R   0.155764 0.428070 0.926486 0.461643
C61   C     C_R   0.771636 0.274180 0.838935 0.511243
C62   C     C_R   0.231329 0.720793 0.163938 0.452450
C63   C     C_R   0.067240 0.728082 0.000390 0.534178
C64   C     C_R   0.970046 0.302150 0.037905 0.536845
C65   C     C_R   0.040776 0.773789 0.043180 -0.137597
C66   C     C_R   0.026372 0.282396 0.025343 -0.097090
H1    H     H_    0.990750 0.755033 0.122627 0.214136
H2    H     H_    0.085355 0.300859 0.951237 0.173256
H3    H     H_    0.056168 0.634283 0.849563 0.202933
H4    H     H_    0.884642 0.369690 0.137365 0.164973
N1    N     N_R   0.999080 0.655880 0.043180 -0.075220
N2    N     N_R   0.000920 0.344120 0.956820 -0.058809
N3    N     N_R   0.887710 0.344150 0.844460 -0.114503
N4    N     N_R   0.112290 0.655850 0.155540 -0.109775
N5    N     N_R   0.043250 0.542980 0.887390 -0.090870
N6    N     N_R   0.956750 0.457020 0.112610 -0.090782
N7    N     N_R   0.843540 0.457050 0.000250 -0.146005
N8    N     N_R   0.156460 0.542950 0.999750 -0.135535
N9    N     N_R   0.000630 0.457060 0.844460 -0.075015
N10   N     N_R   0.999370 0.542940 0.155540 -0.082649
N11   N     N_R   0.886170 0.542970 0.043180 -0.112594
N12   N     N_R   0.113830 0.457030 0.956820 -0.117098
N13   N     N_R   0.844420 0.344140 0.887390 -0.129290
N14   N     N_R   0.155580 0.655860 0.112610 -0.118125
N15   N     N_R   0.042380 0.655890 0.000250 -0.112571
N16   N     N_R   0.957620 0.344110 0.999750 -0.123147
Ni1   Ni    Ni4+2 0.999230 0.598520 0.098470 0.277742
Ni2   Ni    Ni4+2 0.000770 0.401480 0.901530 0.297019
Ni3   Ni    Ni4+2 0.098520 0.598520 0.000000 0.208170
Ni4   Ni    Ni4+2 0.901480 0.401480 0.000000 0.190682
O1    O     O_3   0.346589 0.367303 0.759655 -0.759695
H5    H     H_    0.369031 0.338149 0.730095 0.321981
O2    O     O_3   0.600352 0.617700 0.062067 -0.772097
H6    H     H_    0.577045 0.645467 0.091622 0.340487
O3    O     O_3   0.487165 0.640719 0.928563 -0.620761
C67   C     C_3   0.565704 0.698594 0.949481 0.291264
H7    H     H_    0.588555 0.670935 0.909078 0.123252
H8    H     H_    0.608633 0.723605 0.014209 0.138531
C68   C     C_3   0.563495 0.770612 0.940408 -0.916768
H9    H     H_    0.542127 0.800739 0.980904 0.268225
H10   H     H_    0.625182 0.817239 0.957626 0.214155
H11   H     H_    0.521782 0.747692 0.875915 0.261507
O4    O     O_3   0.461304 0.344701 0.894128 -0.629695
C69   C     C_3   0.381712 0.284929 0.868564 0.290162
H12   H     H_    0.343591 0.256753 0.801776 0.137872
H13   H     H_    0.353058 0.311651 0.901968 0.118346
C70   C     C_3   0.384195 0.216320 0.884644 -0.944658
H14   H     H_    0.419287 0.241868 0.951388 0.255050
H15   H     H_    0.321618 0.166794 0.861214 0.227685
H16   H     H_    0.413274 0.188616 0.853229 0.269754
O5    O     O_3   0.628166 0.126358 0.477772 -0.615063
C71   C     C_3   0.657124 0.210322 0.498514 0.289736
H17   H     H_    0.724136 0.241809 0.525539 0.137393
H18   H     H_    0.644119 0.245638 0.545536 0.049533
C72   C     C_3   0.623242 0.215780 0.422127 -0.821473
H19   H     H_    0.556415 0.187535 0.395233 0.239441
H20   H     H_    0.650291 0.281900 0.438431 0.214120
H21   H     H_    0.638015 0.182596 0.376058 0.288461
O6    O     O_3   0.344215 0.990209 0.497091 -0.571502
C73   C     C_3   0.291323 0.019089 0.473291 0.260132
H22   H     H_    0.265037 0.996054 0.406417 0.090239
H23   H     H_    0.322930 0.088285 0.507633 0.068341
C74   C     C_3   0.222388 0.986515 0.491997 -0.803670
H24   H     H_    0.247052 0.009031 0.558573 0.259358
H25   H     H_    0.180103 0.008767 0.474152 0.206892
H26   H     H_    0.188419 0.917520 0.457474 0.262901
O7    O     O_3   0.481520 0.008786 0.334501 -0.600903
C75   C     C_3   0.509063 0.951391 0.319629 0.313158
H27   H     H_    0.469519 0.895074 0.318476 0.066751
H28   H     H_    0.572541 0.979273 0.366864 0.141954
C76   C     C_3   0.506939 0.925061 0.236860 -0.859970
H29   H     H_    0.549426 0.979615 0.237973 0.261239
H30   H     H_    0.525305 0.877363 0.222746 0.220798
H31   H     H_    0.444805 0.898641 0.188048 0.257998
O8    O     O_3   0.486529 0.111845 0.637196 -0.574006
C77   C     C_3   0.500955 0.194025 0.671436 0.245367
H32   H     H_    0.455789 0.199927 0.628520 0.061474
H33   H     H_    0.563066 0.238912 0.687500 0.097162
C78   C     C_3   0.493723 0.217485 0.749390 -0.757442
H34   H     H_    0.537642 0.211804 0.793514 0.274573
H35   H     H_    0.506818 0.282655 0.777777 0.233159
H36   H     H_    0.431233 0.175730 0.734761 0.238365
O9    O     O_3   0.946842 0.649765 0.473193 -0.680168
H37   H     H_    0.928943 0.639920 0.416751 0.317297
O10   O     O_3   0.818795 0.348548 0.467470 -0.696480
H38   H     H_    0.816637 0.357189 0.518821 0.299904
O11   O     O_3   0.957735 0.653010 0.612480 -0.688325
H39   H     H_    0.948351 0.645606 0.656265 0.315943
O12   O     O_3   0.807666 0.345548 0.328381 -0.689192
H40   H     H_    0.797440 0.352148 0.279761 0.312431
O13   O     O_3   0.074323 0.037820 0.212311 -0.606184
C79   C     C_3   0.146346 0.080863 0.287006 0.322480
H41   H     H_    0.172174 0.149328 0.315085 0.116279
H42   H     H_    0.192370 0.064930 0.277935 0.069570
C80   C     C_3   0.127661 0.056172 0.346331 -0.896144
H43   H     H_    0.104979 0.988690 0.321716 0.261593
H44   H     H_    0.183648 0.091817 0.406071 0.196541
H45   H     H_    0.080991 0.070091 0.355851 0.271799
O14   O     O_3   0.150106 0.128018 0.997262 -0.611120
C81   C     C_3   0.235049 0.177882 0.033930 0.341236
H46   H     H_    0.264014 0.139371 0.035401 0.125235
H47   H     H_    0.261035 0.229534 0.097414 0.071040
C82   C     C_3   0.255148 0.216454 0.983698 -0.946201
H48   H     H_    0.230338 0.258550 0.985067 0.256183
H49   H     H_    0.321882 0.252820 0.009617 0.219496
H50   H     H_    0.228300 0.167007 0.919354 0.268421
O15   O     O_3   0.066646 0.173395 0.205765 -0.599271
C83   C     C_3   0.981285 0.131698 0.170832 0.286553
H51   H     H_    0.958032 0.072205 0.170926 0.131091
H52   H     H_    0.951983 0.118715 0.106891 0.081217
C84   C     C_3   0.957113 0.186350 0.221322 -0.792965
H53   H     H_    0.976765 0.245019 0.219731 0.277850
H54   H     H_    0.890253 0.153347 0.195985 0.204631
H55   H     H_    0.985924 0.201250 0.285778 0.256398
O16   O     O_3   0.143700 0.984380 0.993080 -0.618985
C85   C     C_3   0.072652 0.931412 0.916410 0.300075
H56   H     H_    0.057193 0.967842 0.889414 0.136616
H57   H     H_    0.020209 0.894239 0.921774 0.075062
C86   C     C_3   0.086859 0.871268 0.858190 -0.833428
H58   H     H_    0.100083 0.832199 0.882274 0.281426
H59   H     H_    0.031873 0.830204 0.797212 0.222205
H60   H     H_    0.138840 0.906219 0.851310 0.261224
O17   O     O_3   0.873622 0.236963 0.728379 -0.661991
H61   H     H_    0.828866 0.181192 0.682051 0.324402
O18   O     O_3   0.129201 0.758026 0.277548 -0.690094
H62   H     H_    0.175016 0.810302 0.327578 0.324841
O19   O     O_3   0.702472 0.354775 0.940507 -0.579508
C87   C     C_3   0.702050 0.349075 0.009345 0.370379
H63   H     H_    0.700383 0.402078 0.051915 0.065110
H64   H     H_    0.756468 0.347574 0.042876 0.070454
C88   C     C_3   0.626848 0.269372 0.981100 -0.873569
H65   H     H_    0.626636 0.214587 0.939668 0.271348
H66   H     H_    0.626200 0.264380 0.034917 0.202988
H67   H     H_    0.571543 0.269838 0.948212 0.271224
O20   O     O_3   0.272883 0.644177 0.007399 -0.571596
C89   C     C_3   0.248438 0.646377 0.933998 0.259968
H68   H     H_    0.196560 0.657158 0.922834 0.118008
H69   H     H_    0.230302 0.588458 0.879157 0.087548
C90   C     C_3   0.318453 0.717908 0.942861 -0.832286
H70   H     H_    0.370341 0.706956 0.951187 0.279193
H71   H     H_    0.299032 0.722739 0.887027 0.210975
H72   H     H_    0.338308 0.777309 0.996672 0.254091
O21   O     O_3   0.928752 0.352311 0.701535 -0.704442
H73   H     H_    0.911736 0.351930 0.649090 0.310279
O22   O     O_3   0.012162 0.646717 0.273398 -0.688979
H74   H     H_    0.004937 0.650068 0.321502 0.316057
O23   O     O_3   0.857293 0.653838 0.081853 -0.625946
C91   C     C_3   0.800773 0.675017 0.047694 0.252792
H75   H     H_    0.750364 0.655045 0.062193 0.166453
H76   H     H_    0.777245 0.647587 0.980326 0.091043
C92   C     C_3   0.841455 0.768992 0.086236 -0.874363
H77   H     H_    0.888994 0.791864 0.068993 0.247789
H78   H     H_    0.795665 0.786164 0.064077 0.208891
H79   H     H_    0.869358 0.799313 0.153960 0.276351
O24   O     O_3   0.117444 0.348445 0.859784 -0.596061
C93   C     C_3   0.171135 0.317728 0.857352 0.244997
H80   H     H_    0.218556 0.340425 0.919591 0.083685
H81   H     H_    0.200228 0.335394 0.821910 0.143776
C94   C     C_3   0.123299 0.223260 0.812610 -0.838918
H82   H     H_    0.075217 0.198482 0.750297 0.278736
H83   H     H_    0.164566 0.198616 0.807031 0.204970
H84   H     H_    0.094830 0.201859 0.846825 0.254835
O25   O     O_3   0.723092 0.239581 0.867671 -0.744858
H85   H     H_    0.677337 0.184241 0.821563 0.328966
O26   O     O_3   0.291293 0.742283 0.142564 -0.729659
H86   H     H_    0.341192 0.791323 0.191750 0.322765
O27   O     O_3   0.123636 0.758395 0.976517 -0.673900
C95   C     C_3   0.202416 0.809113 0.044225 0.221172
H87   H     H_    0.232130 0.771753 0.042329 0.194343
H88   H     H_    0.204558 0.835168 0.105149 0.096029
C96   C     C_3   0.251597 0.881073 0.036517 -0.867833
H89   H     H_    0.226636 0.923260 0.043184 0.295808
H90   H     H_    0.315588 0.916559 0.085483 0.220549
H91   H     H_    0.249902 0.857505 0.976002 0.262080
O28   O     O_3   0.925874 0.272476 0.072927 -0.647623
C97   C     C_3   0.842997 0.223051 0.013909 0.221128
H92   H     H_    0.832925 0.174592 0.955909 0.110788
H93   H     H_    0.819503 0.262410 0.000599 0.149142
C98   C     C_3   0.794858 0.179155 0.046903 -0.889157
H94   H     H_    0.804430 0.225218 0.105650 0.257902
H95   H     H_    0.729242 0.142775 0.002069 0.225849
H96   H     H_    0.814424 0.136182 0.057024 0.252173
O29   O     O_3   0.512356 0.514146 0.794979 -0.626281
C99   C     C_3   0.452350 0.517369 0.739064 0.307649
H97   H     H_    0.433513 0.559979 0.770332 0.132127
H98   H     H_    0.398344 0.454218 0.695538 0.137393
C100  C     C_3   0.486051 0.549151 0.690347 -0.925166
H99   H     H_    0.504216 0.507315 0.656891 0.263057
H100  H     H_    0.439120 0.551208 0.645425 0.222182
H101  H     H_    0.539728 0.612736 0.732265 0.260005
O30   O     O_3   0.437985 0.472458 0.027955 -0.621623
C101  C     C_3   0.494116 0.461235 0.078790 0.303531
H102  H     H_    0.557007 0.513935 0.109314 0.143841
H103  H     H_    0.491702 0.402378 0.043409 0.129509
C102  C     C_3   0.472789 0.456522 0.145012 -0.928361
H104  H     H_    0.410127 0.404463 0.116772 0.258918
H105  H     H_    0.515576 0.446098 0.184670 0.216374
H106  H     H_    0.476960 0.515557 0.183247 0.271490

loop_
_geom_bond_atom_site_label_1
_geom_bond_atom_site_label_2
_ccdc_geom_bond_type
C44   C49   A    
C7    C13   S    
O21   H73   S    
C63   C65   A    
C82   H48   S    
O2    H6    S    
C91   H76   S    
C80   H44   S    
C34   C37   A    
C11   O29   S    
C38   O9    S    
C6    C58   A    
C3    C23   A    
O11   H39   S    
C44   O16   S    
C7    C55   A    
C46   N6    A    
C84   H53   S    
C76   H31   S    
C75   H27   S    
C9    O1    S    
C102  H105  S    
O10   H38   S    
O8    C77   S    
C47   C49   A    
O22   H74   S    
C97   H92   S    
C84   H54   S    
C1    N1    A    
C12   O30   S    
C87   C88   S    
C59   N11   A    
C82   H49   S    
C98   H94   S    
C93   H81   S    
C29   C32   T    
C2    H2    S    
C77   C78   S    
O15   C83   S    
C30   C31   T    
C4    C24   A    
C78   H36   S    
N12   Ni2   S    
C74   H25   S    
C10   C17   S    
C72   H19   S    
C67   C68   S    
C4    C62   A    
C56   N8    A    
C99   H97   S    
C87   H64   S    
C7    C59   A    
C3    C61   A    
O27   C95   S    
C57   N9    A    
N9    Ni2   S    
C21   C25   A    
C33   O11   S    
C1    H1    S    
N1    N15   A    
C83   H51   S    
C60   N12   A    
C50   O13   S    
C83   C84   S    
C11   C17   S    
O14   C81   S    
C99   H98   S    
C91   H75   S    
C72   H20   S    
C6    C41   S    
C67   H8    S    
O29   C99   S    
C90   H72   S    
C1    C65   A    
O13   C79   S    
C93   C94   S    
C55   O19   S    
N4    Ni1   S    
C21   O7    S    
C53   C65   S    
C18   C20   S    
C73   C74   S    
C58   N10   A    
C86   H60   S    
C83   H52   S    
C102  H106  S    
C90   H70   S    
N8    Ni3   S    
C63   N15   A    
C80   H45   S    
C70   H15   S    
C8    C56   A    
C23   N3    A    
C89   C90   S    
C2    N2    A    
C64   N16   A    
C69   H12   S    
N2    Ni2   S    
C34   O12   S    
C73   H23   S    
C39   C42   T    
C100  H100  S    
C28   O5    S    
C25   C29   S    
C84   H55   S    
N7    Ni4   S    
C13   C19   T    
C45   H3    S    
C88   H65   S    
C81   C82   S    
C14   C20   T    
C74   H24   S    
C82   H50   S    
C93   H80   S    
O25   H85   S    
O30   C101  S    
C61   N13   A    
O1    H5    S    
N15   Ni3   S    
C89   H68   S    
C74   H26   S    
C47   C51   S    
O20   C89   S    
C10   O2    S    
C76   H30   S    
C5    C45   A    
C98   H95   S    
O23   C91   S    
C24   O18   S    
C64   C66   A    
C35   C39   S    
O17   H61   S    
C88   H66   S    
N3    Ni2   S    
C23   O17   S    
C94   H83   S    
C56   O20   S    
C11   C16   S    
N8    N12   A    
N2    N16   A    
C68   H9    S    
C96   H89   S    
C79   C80   S    
C36   C40   S    
O28   C97   S    
C72   H21   S    
C67   H7    S    
C57   O21   S    
O26   H86   S    
C96   H90   S    
N11   Ni1   S    
C69   C70   S    
O6    C73   S    
C3    C31   S    
C48   C50   A    
C9    C11   S    
C4    C32   S    
C10   C12   S    
C64   O28   S    
C101  C102  S    
N1    Ni1   S    
C71   H18   S    
C77   H33   S    
C85   H56   S    
C68   H10   S    
C21   C28   A    
C79   H42   S    
C26   C30   S    
C12   C15   S    
C43   O15   S    
C22   C27   A    
N16   Ni4   S    
C95   H88   S    
C70   H16   S    
C92   H78   S    
C25   C27   A    
N14   Ni3   S    
C70   H14   S    
C17   C19   S    
C102  H104  S    
C75   C76   S    
C80   H43   S    
C52   C53   T    
C5    C42   S    
C101  H103  S    
C100  H101  S    
C59   O23   S    
C94   H82   S    
N13   Ni4   S    
C62   N14   A    
C40   C41   T    
C16   O3    S    
C8    C14   S    
C6    C46   A    
O5    C71   S    
C35   C37   A    
C60   O24   S    
C81   H47   S    
N6    N10   A    
N4    N14   A    
C77   H32   S    
C2    C66   A    
C75   H28   S    
C63   O27   S    
C78   H34   S    
C97   C98   S    
C43   C50   A    
C15   C17   S    
C69   H13   S    
C54   C66   S    
C27   O6    S    
C86   H58   S    
N10   Ni1   S    
C62   O26   S    
C71   H17   S    
C26   C28   A    
C61   O25   S    
C58   O22   S    
C99   C100  S    
C5    C57   A    
C22   O8    S    
C45   N5    A    
C51   C54   T    
C15   O4    S    
C81   H46   S    
C85   C86   S    
C36   C38   A    
O9    H37   S    
O3    C67   S    
C88   H67   S    
O19   C87   S    
O16   C85   S    
C10   C16   S    
O12   H40   S    
C8    C60   A    
C94   H84   S    
C78   H35   S    
C24   N4    A    
O18   H62   S    
N5    N9    A    
C91   C92   S    
C55   N7    A    
C85   H57   S    
C33   C35   A    
C97   H93   S    
C98   H96   S    
C34   C36   A    
C95   C96   S    
O24   C93   S    
C9    C15   S    
C76   H29   S    
C46   H4    S    
C89   H69   S    
C96   H91   S    
N5    Ni3   S    
C95   H87   S    
C92   H77   S    
C44   C48   A    
C9    C18   S    
C48   C52   S    
C68   H11   S    
C79   H41   S    
C16   C18   S    
N7    N11   A    
C22   C26   A    
C12   C18   S    
O4    C69   S    
C90   H71   S    
C73   H22   S    
C49   O14   S    
C33   C38   A    
C37   O10   S    
C92   H79   S    
C87   H63   S    
C43   C47   A    
N3    N13   A    
C71   C72   S    
O7    C75   S    
C100  H99   S    
N6    Ni4   S    
C101  H102  S    
C86   H59   S    
