data_mof_unit_40186.cif
_audit_creation_date              2012-12-10T16:57:13-0500
_audit_creation_method            fapswitch 2.2
_symmetry_space_group_name_H-M    P1
_symmetry_Int_Tables_number       1
_space_group_crystal_system       triclinic
_cell_length_a                    15.885672
_cell_length_b                    10.847873
_cell_length_c                    9.756213
_cell_angle_alpha                 91.058493
_cell_angle_beta                  89.318851
_cell_angle_gamma                 91.278975
_cell_volume                      1680.43031757

loop_
_atom_site_label
_atom_site_type_symbol
_atom_type_description
_atom_site_fract_x
_atom_site_fract_y
_atom_site_fract_z
_atom_type_partial_charge
C1    C     C_R   0.503963 0.264607 0.498881 0.834794
C2    C     C_3   0.948856 0.471258 0.651377 0.370314
C3    C     C_3   0.917017 0.499969 0.502991 0.289724
C4    C     C_3   0.952649 0.628024 0.456643 -0.463112
C5    C     C_3   0.049959 0.623585 0.439029 0.036163
C6    C     C_1   0.824768 0.499290 0.499340 -0.015176
C7    C     C_1   0.175326 0.500660 0.502855 -0.081564
C8    C     C_1   0.250810 0.499707 0.502259 -0.198916
C9    C     C_2   0.460430 0.929256 0.392337 0.135340
C10   C     C_2   0.457861 0.860562 0.506731 -0.074965
C11   C     C_2   0.504403 0.052880 0.391669 0.175440
C12   C     C_R   0.340393 0.499279 0.500732 0.811006
C13   C     C_2   0.497851 0.130180 0.501364 -0.400789
C14   C     C_2   0.447010 0.433595 0.923196 0.223750
C15   C     C_2   0.456794 0.420643 0.076363 0.214823
C16   C     C_R   0.488854 0.733260 0.501471 0.847861
C17   C     C_R   0.659615 0.499952 0.499267 0.830424
C18   C     C_3   0.047562 0.483222 0.651027 -0.451063
C19   C     C_3   0.048565 0.393309 0.412676 -0.468118
C20   C     C_3   0.951538 0.401927 0.399178 -0.451618
C21   C     C_1   0.749257 0.499433 0.498177 -0.170930
C22   C     C_3   0.083157 0.502352 0.503007 0.287869
Cu1   Cu    Cu3+1 0.500020 0.500020 0.638630 0.926791
Cu2   Cu    Cu3+1 0.499980 0.499980 0.361370 0.909377
H1    H     H_    0.068697 0.558632 0.720982 0.166924
H2    H     H_    0.924742 0.651846 0.356571 0.147185
H3    H     H_    0.477223 0.097055 0.599453 0.129284
H4    H     H_    0.550426 0.539190 0.894214 0.172187
H5    H     H_    0.075143 0.398971 0.694059 0.143895
H6    H     H_    0.523545 0.576218 0.106940 0.167238
H7    H     H_    0.078189 0.394713 0.308698 0.171015
H8    H     H_    0.064583 0.303747 0.458509 0.178231
H9    H     H_    0.921040 0.309871 0.414206 0.183294
H10   H     H_    0.936331 0.428684 0.292807 0.174241
H11   H     H_    0.061362 0.613560 0.326308 0.115753
H12   H     H_    0.933770 0.702893 0.528538 0.181751
N1    N     N_2   0.499090 0.498660 0.846910 -0.317566
N2    N     N_2   0.499070 0.498630 0.153040 -0.307642
O1    O     O_R   0.500010 0.321960 0.617040 -0.590989
O2    O     O_R   0.499990 0.321920 0.382900 -0.586924
O3    O     O_R   0.379450 0.500030 0.617120 -0.583537
O4    O     O_R   0.379420 0.499980 0.382980 -0.586566
O5    O     O_R   0.500010 0.678080 0.617100 -0.563250
O6    O     O_R   0.499990 0.678040 0.382960 -0.600744
O7    O     O_R   0.620580 0.500020 0.617020 -0.559456
O8    O     O_R   0.620550 0.499970 0.382880 -0.570334
N3    N     N_3   0.921599 0.345138 0.689044 -0.575246
H13   H     H_    0.935119 0.330852 0.792146 0.205467
H14   H     H_    0.956047 0.279224 0.634467 0.200218
N4    N     N_3   0.912005 0.557522 0.753056 -0.578032
H15   H     H_    0.935670 0.646872 0.740133 0.192673
H16   H     H_    0.930228 0.533177 0.851452 0.203455
C23   C     C_3   0.419127 0.880682 0.261407 -0.366092
C24   C     C_3   0.349768 0.965849 0.216436 -0.879834
H17   H     H_    0.301309 0.974763 0.298901 0.254832
H18   H     H_    0.319210 0.926635 0.123075 0.242234
H19   H     H_    0.375810 0.058670 0.192248 0.257158
H20   H     H_    0.466734 0.870507 0.178032 0.203321
H21   H     H_    0.388448 0.788844 0.276815 0.221318
C25   C     C_3   0.400120 0.897570 0.626235 -0.430214
C26   C     C_3   0.330184 0.802320 0.655394 -0.827037
H22   H     H_    0.299040 0.772287 0.558725 0.246744
H23   H     H_    0.355160 0.721587 0.708067 0.277774
H24   H     H_    0.282446 0.844089 0.724954 0.230502
H25   H     H_    0.438023 0.913323 0.720190 0.210468
H26   H     H_    0.366589 0.983435 0.602908 0.210262
C27   C     C_3   0.562950 0.081981 0.271256 -0.381531
C28   C     C_3   0.636688 0.993875 0.266234 -0.865722
H27   H     H_    0.672670 0.001393 0.363107 0.254573
H28   H     H_    0.614233 0.897002 0.250905 0.252706
H29   H     H_    0.679547 0.018106 0.179621 0.243373
H30   H     H_    0.528545 0.073380 0.173249 0.195729
H31   H     H_    0.590847 0.176333 0.278211 0.224235
C29   C     C_3   0.373274 0.359960 0.862017 -0.276725
C30   C     C_3   0.290505 0.426521 0.886484 -0.849109
H32   H     H_    0.275765 0.432617 0.997942 0.246177
H33   H     H_    0.294351 0.521218 0.845261 0.262271
H34   H     H_    0.238478 0.374752 0.834597 0.228252
H35   H     H_    0.381063 0.335931 0.753594 0.236271
H36   H     H_    0.367774 0.267239 0.907847 0.177004
N5    N     N_3   0.415113 0.315811 0.136012 -0.613925
H37   H     H_    0.460142 0.253767 0.164689 0.229938
H38   H     H_    0.376208 0.341367 0.217607 0.269930
C31   C     C_3   0.096310 0.747773 0.473682 -0.389173
C32   C     C_3   0.102796 0.783486 0.625225 -0.848989
H39   H     H_    0.040407 0.780553 0.676649 0.241418
H40   H     H_    0.147356 0.723276 0.677347 0.251414
H41   H     H_    0.128227 0.879423 0.634453 0.236345
H42   H     H_    0.161105 0.745926 0.429463 0.196858
H43   H     H_    0.063630 0.822719 0.420849 0.197294

loop_
_geom_bond_atom_site_label_1
_geom_bond_atom_site_label_2
_ccdc_geom_bond_type
C4    H12   S    
Cu1   O7    S    
C2    C18   S    
Cu2   O4    S    
C19   C20   S    
C3    C6    S    
C19   H7    S    
N5    H37   S    
C23   H21   S    
C7    C8    T    
N3    H14   S    
C23   C24   S    
C14   C29   S    
C17   O7    A    
C32   H39   S    
Cu1   O5    S    
H6    N2    S    
C27   H30   S    
C26   H23   S    
C12   O4    A    
C2    N4    S    
C1    O2    A    
C5    C22   S    
C28   H27   S    
Cu2   N2    S    
Cu1   Cu2   S    
C27   H31   S    
C9    C10   D    
C16   O6    A    
C20   H10   S    
C25   H26   S    
C29   H36   S    
C18   H1    S    
C31   H43   S    
C19   H8    S    
N5    H38   S    
C11   C27   S    
C32   H40   S    
C24   H18   S    
C29   C30   S    
C27   C28   S    
C19   C22   S    
C31   C32   S    
C15   N5    S    
C5    C31   S    
Cu1   N1    S    
C6    C21   T    
C17   C21   S    
C25   C26   S    
C26   H24   S    
C10   C25   S    
C30   H32   S    
C15   N2    D    
C12   O3    A    
C30   H33   S    
N4    H16   S    
N3    H13   S    
C8    C12   S    
N4    H15   S    
C3    C20   S    
C18   H5    S    
C17   O8    A    
C9    C11   S    
C16   O5    A    
C20   H9    S    
C25   H25   S    
C29   H35   S    
Cu2   O6    S    
C1    C13   S    
C31   H42   S    
C3    C4    S    
C32   H41   S    
C24   H17   S    
C18   C22   S    
C4    C5    S    
C4    H2    S    
C23   H20   S    
C2    N3    S    
C7    C22   S    
Cu1   O3    S    
Cu2   O8    S    
C2    C3    S    
C10   C16   S    
C14   N1    D    
C11   C13   D    
H4    N1    S    
C28   H29   S    
Cu1   O1    S    
C5    H11   S    
Cu2   O2    S    
C26   H22   S    
C30   H34   S    
C1    O1    A    
C9    C23   S    
C28   H28   S    
C14   C15   S    
C13   H3    S    
C24   H19   S    
