data_mof_unit_55523.cif
_audit_creation_date              2012-12-10T18:13:27-0500
_audit_creation_method            fapswitch 2.2
_symmetry_space_group_name_H-M    P1
_symmetry_Int_Tables_number       1
_space_group_crystal_system       triclinic
_cell_length_a                    12.607328
_cell_length_b                    13.039027
_cell_length_c                    16.71217
_cell_angle_alpha                 91.008175
_cell_angle_beta                  98.130234
_cell_angle_gamma                 97.775429
_cell_volume                      2692.76151617

loop_
_atom_site_label
_atom_site_type_symbol
_atom_type_description
_atom_site_fract_x
_atom_site_fract_y
_atom_site_fract_z
_atom_type_partial_charge
C1    C     C_R   0.560285 0.691766 0.511449 0.861940
C2    C     C_R   0.632144 0.527525 0.242740 -0.199231
C3    C     C_R   0.600040 0.624602 0.856115 -0.163151
C4    C     C_R   0.594284 0.580520 0.779363 -0.208054
C5    C     C_R   0.398159 0.552001 0.766839 -0.207427
C6    C     C_R   0.404094 0.594996 0.844346 -0.171601
C7    C     C_R   0.505109 0.628564 0.890028 0.206967
C8    C     C_2   0.579085 0.604256 0.028266 -0.231899
C9    C     C_2   0.509816 0.649200 0.976654 -0.246536
C10   C     C_R   0.493455 0.542372 0.734760 -0.029928
C11   C     C_R   0.307749 0.072764 0.578524 -0.218900
C12   C     C_R   0.514241 0.499999 0.349221 0.851880
C13   C     C_R   0.401542 0.199891 0.500489 -0.081050
C14   C     C_R   0.699765 0.840812 0.497914 -0.234736
C15   C     C_R   0.730886 0.947630 0.495044 0.163290
C16   C     C_R   0.656256 0.014516 0.507206 -0.222009
C17   C     C_R   0.551751 0.975335 0.522785 0.042115
C18   C     C_R   0.531062 0.871321 0.542988 0.075128
C19   C     C_R   0.468407 0.037255 0.522527 0.061739
C20   C     C_R   0.382245 0.005634 0.567021 0.147740
C21   C     C_R   0.372090 0.907584 0.599506 -0.242157
C22   C     C_R   0.443477 0.839487 0.585097 -0.182724
C23   C     C_R   0.439515 0.308586 0.492461 0.855593
C24   C     C_R   0.464536 0.127430 0.477217 0.034199
C25   C     C_R   0.320894 0.171767 0.548812 -0.229409
C26   C     C_R   0.599198 0.802393 0.520661 -0.144089
C27   C     C_R   0.900006 0.347157 0.611154 -0.317610
C28   C     C_R   0.210281 0.629098 0.405414 0.020472
C29   C     C_R   0.108113 0.657939 0.385741 -0.257909
C30   C     C_R   0.022745 0.609137 0.421640 -0.200533
C31   C     C_R   0.039678 0.530745 0.477640 0.016351
C32   C     C_R   0.145438 0.504320 0.495538 0.238320
C33   C     C_R   0.956550 0.477842 0.516509 -0.016579
C34   C     C_R   0.488624 0.507979 0.650887 0.836611
C35   C     C_R   0.980873 0.400250 0.572350 0.207282
C36   C     C_R   0.085586 0.376335 0.588921 -0.303452
C37   C     C_R   0.166454 0.427427 0.550646 -0.222519
C38   C     C_R   0.849489 0.498520 0.502418 -0.057911
C39   C     C_R   0.795805 0.371198 0.594357 0.001366
C40   C     C_R   0.528285 0.518529 0.265399 -0.036053
C41   C     C_R   0.440310 0.538363 0.209615 -0.216914
C42   C     C_R   0.456196 0.568960 0.132696 -0.149943
C43   C     C_R   0.560753 0.581221 0.110890 0.207752
C44   C     C_R   0.648055 0.558557 0.165838 -0.185305
H1    H     H_    0.359337 0.531204 0.225532 0.155522
H2    H     H_    0.330238 0.597309 0.870128 0.124410
H3    H     H_    0.271196 0.227330 0.566253 0.150378
H4    H     H_    0.306962 0.882362 0.633688 0.148842
H5    H     H_    0.243932 0.050987 0.614643 0.143982
H6    H     H_    0.753320 0.787826 0.481974 0.148651
H7    H     H_    0.681836 0.096971 0.507860 0.139109
H8    H     H_    0.432023 0.763331 0.609910 0.170723
H9    H     H_    0.731722 0.330863 0.623426 0.136418
H10   H     H_    0.668770 0.578060 0.754504 0.160058
H11   H     H_    0.105200 0.317805 0.631701 0.149178
H12   H     H_    0.822960 0.555528 0.461240 0.121013
H13   H     H_    0.277209 0.666764 0.377907 0.137557
H14   H     H_    0.945146 0.634485 0.404409 0.130924
H15   H     H_    0.095121 0.717948 0.342938 0.145885
H16   H     H_    0.244966 0.405220 0.565345 0.209946
H17   H     H_    0.319466 0.525490 0.732380 0.155380
H18   H     H_    0.728651 0.565040 0.149197 0.125802
H19   H     H_    0.678733 0.652546 0.889957 0.128678
H20   H     H_    0.701630 0.513075 0.284860 0.154699
H21   H     H_    0.644763 0.570762 0.006810 0.150491
H22   H     H_    0.385930 0.580234 0.090357 0.122568
N1    N     N_R   0.774070 0.445420 0.541180 -0.099832
N2    N     N_R   0.226730 0.554050 0.459240 -0.129170
O1    O     O_R   0.631480 0.627510 0.519670 -0.612351
O2    O     O_R   0.455770 0.662400 0.493360 -0.614443
O3    O     O_R   0.598240 0.480510 0.398910 -0.619444
O4    O     O_R   0.422540 0.515400 0.372600 -0.616398
O5    O     O_R   0.544230 0.337600 0.506640 -0.607195
O6    O     O_R   0.368520 0.372490 0.480330 -0.625714
O7    O     O_R   0.577460 0.484600 0.627400 -0.613869
O8    O     O_R   0.401760 0.519490 0.601090 -0.639424
Zn1   Zn    Zn3+2 0.617320 0.476700 0.517570 0.929910
Zn2   Zn    Zn3+2 0.382680 0.523300 0.482430 0.922807
C45   C     C_3   0.510231 0.141872 0.397216 -0.398035
C46   C     C_3   0.469862 0.049207 0.337508 -0.340903
C47   C     C_3   0.509933 0.068034 0.256304 -0.884606
H23   H     H_    0.479686 0.137340 0.228624 0.262386
H24   H     H_    0.599805 0.079676 0.264497 0.262561
H25   H     H_    0.479743 0.999835 0.214593 0.250644
H26   H     H_    0.498858 0.977745 0.361837 0.233893
H27   H     H_    0.379894 0.036227 0.327654 0.223562
H28   H     H_    0.482762 0.211028 0.367133 0.192312
H29   H     H_    0.599380 0.158461 0.405723 0.201263
C48   C     C_3   0.840481 0.990432 0.474374 -0.426046
C49   C     C_3   0.911889 0.048217 0.547669 -0.342924
C50   C     C_3   0.020979 0.095741 0.525978 -0.871877
H30   H     H_    0.063654 0.034773 0.502920 0.265888
H31   H     H_    0.009705 0.154446 0.479293 0.271759
H32   H     H_    0.071690 0.134279 0.580750 0.237731
H33   H     H_    0.871326 0.111227 0.570122 0.220224
H34   H     H_    0.925549 0.993461 0.597126 0.223240
H35   H     H_    0.881952 0.926867 0.453695 0.195025
H36   H     H_    0.829558 0.043727 0.423527 0.201547
H37   H     H_    0.917219 0.287807 0.653789 0.140790
H38   H     H_    0.443309 0.682112 0.997123 0.145357

loop_
_geom_bond_atom_site_label_1
_geom_bond_atom_site_label_2
_ccdc_geom_bond_type
O2    Zn2   S    
C41   C42   A    
O1    Zn1   S    
C35   C36   A    
N1    Zn1   S    
C16   H7    S    
C45   H28   S    
C47   H23   S    
C49   H33   S    
C39   H9    S    
C28   H13   S    
C27   H37   S    
C46   H26   S    
C36   C37   A    
C28   N2    A    
O8    Zn2   S    
C3    C7    A    
C5    C6    A    
C15   C48   S    
C11   C25   A    
C15   C16   A    
C13   C23   S    
O4    Zn2   S    
C17   C19   A    
C29   H15   S    
C2    C44   A    
C8    C9    D    
C18   C26   A    
C46   H27   S    
C8    C43   S    
C25   H3    S    
C34   O7    A    
C32   N2    A    
C21   H4    S    
C12   O4    A    
C8    H21   S    
C21   C22   A    
C13   C25   A    
C23   O5    A    
C45   H29   S    
C47   H24   S    
C2    H20   S    
N2    Zn2   S    
C11   C20   A    
C27   C39   A    
C50   H30   S    
C16   C17   A    
C27   C35   A    
C1    O1    A    
C13   C24   A    
C48   H35   S    
C12   C40   S    
C43   C44   A    
C29   C30   A    
C11   H5    S    
C50   H31   S    
C24   C45   S    
C31   C32   A    
C30   C31   A    
C20   C21   A    
C31   C33   A    
C17   C18   A    
C5    H17   S    
C10   C34   S    
C32   C37   A    
C14   C26   A    
O7    Zn1   S    
C40   C41   A    
C12   O3    A    
C9    H38   S    
C1    C26   S    
C42   C43   A    
C23   O6    A    
C4    C10   A    
C3    C4    A    
O3    Zn1   S    
C47   H25   S    
C22   H8    S    
C7    C9    S    
C28   C29   A    
O5    Zn1   S    
C6    H2    S    
C4    H10   S    
C18   C22   A    
C39   N1    A    
C1    O2    A    
C46   C47   S    
C49   H34   S    
C6    C7    A    
C3    H19   S    
C33   C38   A    
C48   H36   S    
C44   H18   S    
C19   C20   A    
C19   C24   A    
C5    C10   A    
C36   H11   S    
C50   H32   S    
C49   C50   S    
C14   H6    S    
C30   H14   S    
C33   C35   A    
C37   H16   S    
C45   C46   S    
C2    C40   A    
C38   H12   S    
C38   N1    A    
O6    Zn2   S    
C42   H22   S    
C41   H1    S    
C14   C15   A    
C48   C49   S    
C34   O8    A    
