data_mof_unit_66224.cif
_audit_creation_date              2012-12-10T19:02:11-0500
_audit_creation_method            fapswitch 2.2
_symmetry_space_group_name_H-M    P1
_symmetry_Int_Tables_number       1
_space_group_crystal_system       triclinic
_cell_length_a                    13.362421
_cell_length_b                    14.259873
_cell_length_c                    16.775522
_cell_angle_alpha                 89.99884
_cell_angle_beta                  84.524311
_cell_angle_gamma                 89.964576
_cell_volume                      3181.92874312

loop_
_atom_site_label
_atom_site_type_symbol
_atom_type_description
_atom_site_fract_x
_atom_site_fract_y
_atom_site_fract_z
_atom_type_partial_charge
C1    C     C_R   0.499972 0.673471 0.500013 0.920171
C2    C     C_1   0.169408 0.499984 0.499990 0.075578
C3    C     C_1   0.950474 0.499985 0.500010 -0.050901
C4    C     C_1   0.049526 0.499979 0.500002 -0.051805
C5    C     C_R   0.485983 0.500618 0.655978 0.932334
C6    C     C_R   0.514070 0.499304 0.344009 0.934615
C7    C     C_R   0.476133 0.481486 0.741785 -0.125711
C8    C     C_R   0.526589 0.468193 0.260909 -0.110282
C9    C     C_R   0.551810 0.512369 0.788302 0.055814
C10   C     C_R   0.463570 0.397095 0.235191 0.055882
C11   C     C_R   0.550060 0.482605 0.867352 -0.208633
C12   C     C_R   0.500012 0.326539 0.500061 0.920769
C13   C     C_R   0.480812 0.363026 0.157344 -0.224601
C14   C     C_R   0.474235 0.422567 0.900733 0.102312
C15   C     C_R   0.558705 0.399289 0.104772 0.102417
C16   C     C_R   0.395552 0.395402 0.855792 0.076164
C17   C     C_R   0.625757 0.465843 0.131739 0.090331
C18   C     C_R   0.396798 0.424304 0.775891 0.058452
C19   C     C_R   0.609386 0.500421 0.210063 0.047689
C20   C     C_2   0.472972 0.396286 0.985082 -0.219044
C21   C     C_2   0.558287 0.381348 0.019020 -0.222293
C22   C     C_1   0.499932 0.774118 0.499966 -0.226205
C23   C     C_1   0.500034 0.225911 0.499939 -0.234038
C24   C     C_1   0.499925 0.858683 0.499917 -0.008924
C25   C     C_1   0.500003 0.141353 0.499869 -0.009168
C26   C     C_1   0.499938 0.957741 0.499866 0.006661
C27   C     C_1   0.499963 0.042300 0.499846 0.006988
C28   C     C_1   0.830592 0.499995 0.500017 0.075643
H1    H     H_    0.629487 0.376695 0.982152 0.155066
H2    H     H_    0.673814 0.628942 0.200205 0.197100
H3    H     H_    0.250086 0.414719 0.755764 0.200258
H4    H     H_    0.320433 0.319269 0.727425 0.197837
H5    H     H_    0.346601 0.275140 0.910993 0.193399
H6    H     H_    0.276141 0.371485 0.937178 0.178425
H7    H     H_    0.678696 0.535790 0.031159 0.180631
H8    H     H_    0.753387 0.446905 0.058093 0.179813
H9    H     H_    0.401845 0.402687 0.021839 0.157022
H10   H     H_    0.431241 0.310102 0.136513 0.144156
H11   H     H_    0.607351 0.508004 0.903378 0.133875
H12   H     H_    0.682691 0.586416 0.795959 0.179628
H13   H     H_    0.596870 0.638599 0.744173 0.171702
H14   H     H_    0.338397 0.313893 0.257940 0.176127
H15   H     H_    0.416559 0.316835 0.330315 0.181709
H16   H     H_    0.748088 0.543543 0.232929 0.207974
N1    N     N_1   0.738130 0.500000 0.500020 -0.059326
N2    N     N_1   0.261870 0.500000 0.499980 -0.057244
N3    N     N_3   0.630122 0.573977 0.754833 -0.432231
N4    N     N_3   0.383542 0.358455 0.288683 -0.423023
N5    N     N_3   0.674967 0.570485 0.237731 -0.451416
N6    N     N_3   0.319654 0.392587 0.728356 -0.429283
N7    N     N_3   0.315443 0.336248 0.889321 -0.480868
N8    N     N_3   0.707691 0.502689 0.079551 -0.481415
O1    O     O_R   0.423530 0.626280 0.499990 -0.599279
O2    O     O_R   0.576470 0.373720 0.500010 -0.595082
O3    O     O_R   0.576470 0.626280 0.500010 -0.594505
O4    O     O_R   0.423530 0.373720 0.499990 -0.593602
O5    O     O_R   0.414510 0.500000 0.615790 -0.592599
O6    O     O_R   0.585490 0.500000 0.384210 -0.595801
O7    O     O_R   0.567420 0.500000 0.615810 -0.587287
O8    O     O_R   0.432580 0.500000 0.384190 -0.592798
Zn1   Zn    Zn3+2 0.397910 0.500000 0.499990 0.978712
Zn2   Zn    Zn3+2 0.602090 0.500000 0.500010 0.982111

loop_
_geom_bond_atom_site_label_1
_geom_bond_atom_site_label_2
_ccdc_geom_bond_type
H16   N5    S    
O6    Zn2   S    
H12   N3    S    
C2    C4    S    
O5    Zn1   S    
C6    O8    A    
H5    N7    S    
C5    C7    S    
H15   N4    S    
C6    O6    A    
H8    N8    S    
C16   N7    S    
C5    O5    A    
C7    C18   A    
C7    C9    A    
C23   C25   T    
C1    O3    A    
H6    N7    S    
C1    C22   S    
H14   N4    S    
C2    N2    T    
C11   H11   S    
C20   H9    S    
C9    C11   A    
C12   C23   S    
H4    N6    S    
C26   C27   T    
C12   O4    A    
O1    Zn1   S    
C6    C8    S    
C17   N8    S    
C8    C10   A    
C3    C28   S    
C17   C19   A    
H2    N5    S    
C13   H10   S    
C9    N3    S    
C10   N4    S    
C22   C24   T    
C13   C15   A    
H13   N3    S    
C11   C14   A    
C14   C16   A    
C28   N1    T    
C8    C19   A    
C25   C27   S    
C5    O7    A    
H3    N6    S    
C3    C4    T    
O3    Zn2   S    
C14   C20   S    
N1    Zn2   S    
C15   C21   S    
C20   C21   D    
C18   N6    S    
C16   C18   A    
H7    N8    S    
C15   C17   A    
C1    O1    A    
O4    Zn1   S    
O2    Zn2   S    
O7    Zn2   S    
C19   N5    S    
N2    Zn1   S    
C21   H1    S    
C12   O2    A    
C24   C26   S    
O8    Zn1   S    
C10   C13   A    
