data_mof_unit_51494.cif
_audit_creation_date              2012-12-10T17:00:44-0500
_audit_creation_method            fapswitch 2.2
_symmetry_space_group_name_H-M    P1
_symmetry_Int_Tables_number       1
_space_group_crystal_system       triclinic
_cell_length_a                    27.814683
_cell_length_b                    10.775988
_cell_length_c                    9.715058
_cell_angle_alpha                 90.758402
_cell_angle_beta                  89.475344
_cell_angle_gamma                 90.776649
_cell_volume                      2911.26109572

loop_
_atom_site_label
_atom_site_type_symbol
_atom_type_description
_atom_site_fract_x
_atom_site_fract_y
_atom_site_fract_z
_atom_type_partial_charge
C1    C     C_R   0.501286 0.263797 0.498277 0.879970
C2    C     C_R   0.276189 0.471069 0.620634 0.389714
C3    C     C_R   0.252260 0.489754 0.496445 0.207392
C4    C     C_R   0.101036 0.474417 0.471260 -0.150294
C5    C     C_R   0.126144 0.368215 0.513874 -0.171810
C6    C     C_R   0.099442 0.258674 0.544887 0.311599
C7    C     C_R   0.126798 0.580797 0.427427 -0.150343
C8    C     C_R   0.353662 0.498188 0.500354 -0.123067
C9    C     C_R   0.645494 0.499894 0.498539 -0.083285
C10   C     C_R   0.972459 0.369831 0.511838 0.111718
C11   C     C_R   0.976021 0.594669 0.470803 -0.115961
C12   C     C_R   0.407250 0.499522 0.500363 0.938001
C13   C     C_R   0.948924 0.484638 0.491928 0.009341
C14   C     C_R   0.943734 0.266836 0.551775 -0.098285
C15   C     C_R   0.893922 0.271263 0.551026 -0.143243
C16   C     C_R   0.870606 0.381392 0.521228 0.006258
C17   C     C_R   0.897900 0.490227 0.497617 -0.099394
C18   C     C_R   0.874179 0.604455 0.481451 -0.218904
C19   C     C_R   0.823283 0.604480 0.484102 0.646247
C20   C     C_R   0.820339 0.385973 0.519659 0.582300
C21   C     C_R   0.721855 0.502841 0.372444 0.464729
C22   C     C_R   0.671285 0.503666 0.373498 -0.257101
C23   C     C_R   0.494758 0.734419 0.501628 0.808050
C24   C     C_R   0.670725 0.495490 0.622928 -0.186191
C25   C     C_R   0.720766 0.494387 0.622396 -0.173973
C26   C     C_R   0.746377 0.497973 0.497899 0.318016
C27   C     C_R   0.023757 0.364928 0.502649 -0.013209
C28   C     C_R   0.050138 0.475147 0.473290 -0.032777
C29   C     C_R   0.026011 0.586007 0.441951 0.003814
C30   C     C_R   0.049930 0.253347 0.514936 0.328162
C31   C     C_R   0.102253 0.674442 0.356980 0.269918
C32   C     C_R   0.952080 0.710272 0.484119 0.458897
C33   C     C_R   0.902132 0.714943 0.474124 0.405642
C34   C     C_R   0.592508 0.500131 0.499491 0.815926
C35   C     C_R   0.051721 0.680109 0.370051 0.280138
C36   C     C_2   0.473672 0.926558 0.392385 0.273380
C37   C     C_2   0.478305 0.863011 0.509392 0.018065
C38   C     C_2   0.493137 0.055493 0.381621 0.351445
C39   C     C_2   0.497977 0.128196 0.496306 -0.420882
C40   C     C_2   0.461453 0.509341 0.923499 0.065292
C41   C     C_2   0.461948 0.483691 0.075495 0.109430
C42   C     C_R   0.177066 0.374578 0.514021 0.703047
C43   C     C_R   0.176403 0.587679 0.452558 0.649573
C44   C     C_R   0.278334 0.514937 0.376614 -0.268259
C45   C     C_R   0.328601 0.522401 0.377373 0.374792
C46   C     C_R   0.327260 0.468785 0.621651 0.222332
Cu1   Cu    Cu3+1 0.500010 0.500020 0.638630 1.060123
Cu2   Cu    Cu3+1 0.499990 0.499980 0.361370 1.170573
H1    H     H_    0.258995 0.530123 0.282123 0.194422
H2    H     H_    0.651845 0.492517 0.720847 0.199332
H3    H     H_    0.739806 0.490706 0.718962 0.172364
H4    H     H_    0.493601 0.089271 0.597300 0.194301
H5    H     H_    0.427984 0.537334 0.877910 0.190278
H6    H     H_    0.525689 0.443278 0.885824 0.257158
H7    H     H_    0.428519 0.452317 0.122127 0.149516
H8    H     H_    0.652247 0.507058 0.276902 0.208417
H9    H     H_    0.873702 0.188304 0.578068 0.215754
H10   H     H_    0.958363 0.182220 0.589832 0.238845
N1    N     N_R   0.200586 0.484637 0.490927 -0.447380
N2    N     N_R   0.797904 0.495919 0.499273 -0.449566
N3    N     N_2   0.499480 0.498660 0.846910 -0.244380
N4    N     N_2   0.499460 0.498630 0.153040 -0.002322
O1    O     O_R   0.500010 0.321960 0.617040 -0.585180
O2    O     O_2   0.793960 0.281349 0.538215 -0.502972
O3    O     O_2   0.200208 0.697211 0.443577 -0.410614
O4    O     O_2   0.799026 0.711432 0.474246 -0.484794
O5    O     O_R   0.499990 0.321920 0.382900 -0.522811
O6    O     O_R   0.430270 0.500040 0.617060 -0.537622
O7    O     O_R   0.430260 0.500000 0.382910 -0.565524
O8    O     O_R   0.500010 0.678080 0.617100 -0.525457
O9    O     O_R   0.499990 0.678040 0.382960 -0.518743
O10   O     O_R   0.569740 0.500000 0.617090 -0.595309
O11   O     O_R   0.569730 0.499960 0.382940 -0.523833
O12   O     O_2   0.203303 0.271945 0.531182 -0.405191
O13   O     O_3   0.351883 0.434209 0.737561 -0.714515
H11   H     H_    0.331365 0.376828 0.791951 0.354773
S1    S     S_3+6 0.132409 0.765909 0.229574 0.088140
O14   O     O_2   0.147293 0.888275 0.292784 -0.156498
O15   O     O_2   0.176302 0.701164 0.174796 -0.245241
O16   O     O_3   0.095986 0.792692 0.096166 -0.473162
H12   H     H_    0.088180 0.709406 0.057443 0.359585
O17   O     O_3   0.975806 0.820162 0.516486 -0.623450
H13   H     H_    0.005781 0.800277 0.565498 0.330131
O18   O     O_3   0.881744 0.830233 0.467096 -0.616541
H14   H     H_    0.863375 0.830586 0.380130 0.363181
O19   O     O_3   0.026334 0.768762 0.300966 -0.653127
H15   H     H_    0.045198 0.847407 0.303511 0.387340
S2    S     S_3+6 0.428682 0.876421 0.274424 0.130021
O20   O     O_2   0.451147 0.801326 0.160130 -0.193731
O21   O     O_2   0.391745 0.797494 0.347274 -0.230945
O22   O     O_3   0.401454 0.999954 0.207606 -0.451518
H16   H     H_    0.379544 0.964965 0.136815 0.389835
S3    S     S_3+6 0.437584 0.894510 0.648053 0.055511
O23   O     O_2   0.465844 0.922067 0.776311 -0.259672
O24   O     O_2   0.406340 0.003118 0.616301 -0.238552
O25   O     O_3   0.402296 0.768984 0.674842 -0.494741
H17   H     H_    0.384853 0.786960 0.762028 0.387254
S4    S     S_3+6 0.513828 0.103320 0.216191 0.084984
O26   O     O_2   0.476265 0.181022 0.149753 -0.251296
O27   O     O_2   0.559685 0.177812 0.229830 -0.276443
O28   O     O_3   0.524710 0.978423 0.115711 -0.442207
H18   H     H_    0.531966 0.012227 0.023395 0.389587
O29   O     O_3   0.248652 0.457308 0.738592 -0.667642
H19   H     H_    0.267794 0.485521 0.818835 0.342614
S5    S     S_3+6 0.546658 0.596672 0.095055 0.137907
O30   O     O_2   0.568486 0.671773 0.210105 -0.223755
O31   O     O_2   0.585978 0.519106 0.032650 -0.336585
O32   O     O_3   0.527826 0.700432 0.979692 -0.456701
H20   H     H_    0.557604 0.737588 0.940403 0.373774
S6    S     S_3+6 0.123749 0.132141 0.636868 0.086935
O33   O     O_2   0.152117 0.051170 0.539686 -0.189370
O34   O     O_2   0.155877 0.180196 0.749814 -0.187979
O35   O     O_3   0.079240 0.046799 0.708505 -0.505227
H21   H     H_    0.095353 0.973743 0.747052 0.392325
O36   O     O_3   0.748085 0.505829 0.251191 -0.696483
H22   H     H_    0.725575 0.509075 0.172783 0.338794
O37   O     O_3   0.027985 0.140569 0.484755 -0.683104
H23   H     H_    0.052707 0.079639 0.456630 0.378696
O38   O     O_3   0.353622 0.552733 0.258643 -0.671151
H24   H     H_    0.330687 0.567214 0.183137 0.342655

loop_
_geom_bond_atom_site_label_1
_geom_bond_atom_site_label_2
_ccdc_geom_bond_type
C44   H1    S    
C10   C27   A    
C21   C26   A    
O28   H18   S    
C15   H9    S    
Cu2   O7    S    
C38   S4    S    
N4    S5    S    
S1    O14   D    
C2    C46   A    
S5    O31   D    
C28   C29   A    
S3    O23   D    
C16   C20   A    
Cu1   O1    S    
C5    C6    A    
C35   O19   S    
C9    C22   A    
C15   C16   A    
S4    O26   D    
O32   H20   S    
C19   O4    S    
C18   C19   A    
S6    O33   D    
C41   H7    S    
C30   O37   S    
C8    C45   A    
C16   C17   A    
C7    C43   A    
C20   N2    A    
C43   O3    S    
C45   O38   S    
C39   H4    S    
S3    O24   D    
C21   C22   A    
C27   C30   A    
C6    S6    S    
C23   O8    A    
C41   N4    D    
C4    C7    A    
C1    O1    A    
C46   O13   S    
C4    C28   A    
C31   S1    S    
C8    C46   A    
S1    O15   D    
C24   H2    S    
C14   H10   S    
S5    O32   S    
C3    C44   A    
C42   O12   S    
C7    C31   A    
C23   O9    A    
C24   C25   A    
C10   C14   A    
O22   H16   S    
O19   H15   S    
O16   H12   S    
C22   H8    S    
C25   C26   A    
C23   C37   S    
C36   S2    S    
C40   N3    D    
C20   O2    S    
O13   H11   S    
C25   H3    S    
Cu1   O8    S    
C12   O6    A    
Cu2   N4    S    
Cu1   Cu2   S    
S2    O22   S    
C8    C12   S    
O25   H17   S    
C17   C18   A    
C37   S3    S    
O18   H14   S    
S6    O35   S    
C40   C41   S    
C6    C30   A    
C12   O7    A    
S2    O21   D    
C11   C32   A    
O17   H13   S    
S3    O25   S    
S4    O27   D    
C9    C34   S    
C31   C35   A    
C18   C33   A    
Cu2   O9    S    
C34   O10   A    
Cu1   O6    S    
C27   C28   A    
C44   C45   A    
C5    C42   A    
O35   H21   S    
S1    O16   S    
C36   C37   D    
Cu2   O11   S    
C4    C5    A    
C10   C13   A    
C42   N1    A    
Cu1   N3    S    
O38   H24   S    
C9    C24   A    
H6    N3    S    
C43   N1    A    
C19   N2    A    
S4    O28   S    
C32   O17   S    
S5    O30   D    
C29   C35   A    
C21   O36   S    
C13   C17   A    
C32   C33   A    
C36   C38   S    
C2    C3    A    
O37   H23   S    
C11   C13   A    
C38   C39   D    
C2    O29   S    
C1    O5    A    
Cu2   O5    S    
C33   O18   S    
S6    O34   D    
Cu1   O10   S    
C1    C39   S    
C34   O11   A    
S2    O20   D    
C11   C29   A    
C40   H5    S    
O29   H19   S    
C14   C15   A    
C26   N2    S    
O36   H22   S    
C3    N1    S    
