data_mof_unit_12560.cif
_audit_creation_date              2012-12-11T17:14:56-0500
_audit_creation_method            fapswitch 2.2
_symmetry_space_group_name_H-M    P1
_symmetry_Int_Tables_number       1
_space_group_crystal_system       triclinic
_cell_length_a                    7.222746
_cell_length_b                    12.163555
_cell_length_c                    21.319517
_cell_angle_alpha                 89.9997
_cell_angle_beta                  90.939493
_cell_angle_gamma                 90.000934
_cell_volume                      1872.75877238

loop_
_atom_site_label
_atom_site_type_symbol
_atom_type_description
_atom_site_fract_x
_atom_site_fract_y
_atom_site_fract_z
_atom_type_partial_charge
O1    O     O_R   0.354460 0.152320 0.595720 -0.533944
O2    O     O_R   0.645540 0.847680 0.404280 -0.533946
O3    O     O_R   0.145540 0.652320 0.404280 -0.533948
O4    O     O_R   0.854460 0.347680 0.595720 -0.533945
O5    O     O_R   0.683670 0.140090 0.727290 -0.537507
O6    O     O_R   0.316330 0.859910 0.272710 -0.537509
O7    O     O_R   0.816330 0.640090 0.272710 -0.537517
O8    O     O_R   0.183670 0.359910 0.727290 -0.537514
O9    O     O_R   0.854010 0.349340 0.727750 -0.535201
O10   O     O_R   0.145990 0.650660 0.272250 -0.535191
O11   O     O_R   0.645990 0.849340 0.272250 -0.535203
O12   O     O_R   0.354010 0.150660 0.727750 -0.535208
C1    C     C_R   0.516996 0.112118 0.746831 0.686998
C2    C     C_R   0.483006 0.887880 0.253168 0.686999
C3    C     C_R   0.983005 0.612121 0.253169 0.686992
C4    C     C_R   0.016997 0.387882 0.746830 0.686996
O13   O     O_R   0.684170 0.139420 0.596190 -0.536666
O14   O     O_R   0.315830 0.860580 0.403810 -0.536666
O15   O     O_R   0.815830 0.639420 0.403810 -0.536663
O16   O     O_R   0.184170 0.360580 0.596190 -0.536665
C5    C     C_R   0.514829 0.113144 0.574445 0.710214
C6    C     C_R   0.485171 0.886856 0.425555 0.710210
C7    C     C_R   0.985170 0.613144 0.425555 0.710212
C8    C     C_R   0.014830 0.386856 0.574445 0.710216
O17   O     O_3   0.520730 0.319480 0.661730 -0.375938
O18   O     O_3   0.479270 0.680520 0.338270 -0.375939
O19   O     O_3   0.979270 0.819480 0.338270 -0.375943
O20   O     O_3   0.020730 0.180520 0.661730 -0.375941
V1    V     V_3+5 0.795560 0.238090 0.661730 1.436854
V2    V     V_3+5 0.204440 0.761910 0.338270 1.436874
V3    V     V_3+5 0.704440 0.738090 0.338270 1.436873
V4    V     V_3+5 0.295560 0.261910 0.661730 1.436854
C9    C     C_R   0.015432 0.466445 0.798396 -0.028622
C10   C     C_R   0.984603 0.533574 0.201596 -0.028541
C11   C     C_R   0.484595 0.966435 0.201597 -0.028615
C12   C     C_R   0.515441 0.033547 0.798396 -0.028680
C13   C     C_R   0.066104 0.649813 0.837895 -0.097129
C14   C     C_R   0.934586 0.350124 0.162110 -0.097089
C15   C     C_R   0.434150 0.149826 0.162094 -0.096998
C16   C     C_R   0.566424 0.850230 0.837908 -0.097074
C17   C     C_R   0.054279 0.577044 0.787677 -0.205542
C18   C     C_R   0.946255 0.422909 0.212327 -0.205556
C19   C     C_R   0.445884 0.077051 0.212313 -0.205531
C20   C     C_R   0.554523 0.922990 0.787687 -0.205523
C21   C     C_R   0.989678 0.428004 0.859254 -0.163410
C22   C     C_R   0.010071 0.572058 0.140733 -0.163390
C23   C     C_R   0.510335 0.927981 0.140742 -0.163361
C24   C     C_R   0.489535 0.071962 0.859248 -0.163383
C25   C     C_R   0.006495 0.499184 0.911492 0.059213
C26   C     C_R   0.993644 0.500824 0.088503 0.059175
C27   C     C_R   0.493724 0.999185 0.088504 0.059209
C28   C     C_R   0.506491 0.000807 0.911492 0.059234
C29   C     C_R   0.043987 0.612033 0.899650 0.056381
C30   C     C_R   0.956496 0.387931 0.100351 0.056350
C31   C     C_R   0.456283 0.112043 0.100342 0.056281
C32   C     C_R   0.544187 0.887989 0.899658 0.056323
C33   C     C_R   0.990091 0.461701 0.974762 -0.007153
C34   C     C_R   0.010130 0.538293 0.025235 -0.007116
C35   C     C_R   0.510254 0.961717 0.025238 -0.007111
C36   C     C_R   0.490053 0.038287 0.974759 -0.007143
C37   C     C_R   0.044836 0.649885 0.010791 -0.199356
C38   C     C_R   0.955666 0.350069 0.989210 -0.199492
C39   C     C_R   0.455439 0.149898 0.989200 -0.199570
C40   C     C_R   0.545093 0.850138 0.010800 -0.199423
C41   C     C_R   0.061280 0.685832 0.949436 0.633225
C42   C     C_R   0.939388 0.314103 0.050568 0.633159
C43   C     C_R   0.439066 0.185854 0.050554 0.633021
C44   C     C_R   0.561578 0.814201 0.949447 0.633115
H1    H     H_    0.037426 0.658659 0.136198 0.095654
H2    H     H_    0.961757 0.341476 0.863778 0.095720
H3    H     H_    0.461419 0.158455 0.863765 0.095743
H4    H     H_    0.538002 0.841420 0.136217 0.095688
H5    H     H_    0.924403 0.393144 0.259529 0.107650
H6    H     H_    0.076381 0.606770 0.740482 0.107689
H7    H     H_    0.576757 0.893289 0.740499 0.107703
H8    H     H_    0.423798 0.106788 0.259507 0.107670
H9    H     H_    0.095917 0.735447 0.828332 0.171443
H10   H     H_    0.905113 0.264445 0.171679 0.171425
H11   H     H_    0.404400 0.235471 0.171653 0.171430
H12   H     H_    0.596421 0.764625 0.828352 0.171446
H13   H     H_    0.060791 0.712794 0.045881 0.141597
H14   H     H_    0.940010 0.287120 0.954124 0.141611
H15   H     H_    0.439682 0.212832 0.954109 0.141616
H16   H     H_    0.561086 0.787235 0.045894 0.141601
C45   C     C_1   0.995729 0.533146 0.478084 -0.176928
C46   C     C_1   0.004271 0.466854 0.521916 -0.176928
C47   C     C_1   0.504270 0.033146 0.521916 -0.176927
C48   C     C_1   0.495730 0.966854 0.478084 -0.176926
F1    F     F_    0.095220 0.794136 0.938895 -0.701762
F2    F     F_    0.905808 0.205751 0.061114 -0.701724
F3    F     F_    0.405243 0.294179 0.061093 -0.701786
F4    F     F_    0.595669 0.705916 0.938913 -0.701819

loop_
_geom_bond_atom_site_label_1
_geom_bond_atom_site_label_2
_ccdc_geom_bond_type
C47   C48   T    
C5    C47   S    
O1    C5    A    
O3    V2    S    
C9    C21   A    
O3    C7    A    
C10   C18   A    
O15   V3    S    
C25   C33   A    
C33   C38   A    
C42   F2    S    
C45   C46   T    
C41   F1    S    
C35   C40   A    
C26   C30   A    
C36   C39   A    
C40   C44   A    
O20   V1    S    
O9    C4    A    
C14   C18   A    
O10   C3    A    
O4    C8    A    
O11   C2    A    
O13   V1    S    
C40   H16   S    
C22   H1    S    
C28   C36   A    
C17   H6    S    
C15   C31   A    
O16   C8    A    
C16   C32   A    
O2    C6    A    
C16   H12   S    
C10   C22   A    
C6    C48   S    
C11   C19   A    
C3    C10   S    
O5    C1    A    
O4    V1    S    
O9    V1    S    
C13   C29   A    
C34   C37   A    
O7    C3    A    
C38   H14   S    
C11   C23   A    
C35   C36   A    
O8    C4    A    
O12   V4    S    
O19   V2    S    
O5    V1    S    
C39   C43   A    
O7    V3    S    
C38   C42   A    
O8    V4    S    
C1    C12   S    
C2    C11   S    
C23   C27   A    
C14   H10   S    
C32   C44   A    
C13   H9    S    
O1    V4    S    
O13   C5    A    
C39   H15   S    
O2    V3    S    
C26   C34   A    
C20   H7    S    
O15   C7    A    
C4    C9    S    
O6    C2    A    
O10   V2    S    
C31   C43   A    
C14   C30   A    
C21   C25   A    
C43   F3    S    
O14   V2    S    
O6    V2    S    
C16   C20   A    
C12   C20   A    
C27   C35   A    
C24   H3    S    
C29   C41   A    
O16   V4    S    
C19   H8    S    
C18   H5    S    
C21   H2    S    
O14   C6    A    
O18   V3    S    
C15   C19   A    
C30   C42   A    
C22   C26   A    
C9    C17   A    
C37   H13   S    
C33   C34   A    
O17   V4    S    
C25   C29   A    
C44   F4    S    
C12   C24   A    
C27   C31   A    
C13   C17   A    
C23   H4    S    
O11   V3    S    
C37   C41   A    
C24   C28   A    
O12   C1    A    
C7    C45   S    
C8    C46   S    
C28   C32   A    
C15   H11   S    
