data_mof_unit_17107.cif
_audit_creation_date              2012-12-10T18:42:32-0500
_audit_creation_method            fapswitch 2.2
_symmetry_space_group_name_H-M    P1
_symmetry_Int_Tables_number       1
_space_group_crystal_system       triclinic
_cell_length_a                    8.575012
_cell_length_b                    10.645972
_cell_length_c                    9.915957
_cell_angle_alpha                 90.222888
_cell_angle_beta                  99.376304
_cell_angle_gamma                 90.414204
_cell_volume                      893.091931827

loop_
_atom_site_label
_atom_site_type_symbol
_atom_type_description
_atom_site_fract_x
_atom_site_fract_y
_atom_site_fract_z
_atom_type_partial_charge
C1    C     C_R   0.504921 0.260540 0.500537 0.918808
C2    C     C_R   0.393546 0.067998 0.563576 -0.230976
C3    C     C_R   0.491447 0.872029 0.498216 -0.117558
C4    C     C_R   0.508553 0.127971 0.501784 -0.117558
C5    C     C_R   0.613669 0.563152 0.089609 -0.097814
C6    C     C_R   0.386331 0.436848 0.910391 -0.097813
C7    C     C_R   0.615106 0.563554 0.946573 0.244541
C8    C     C_R   0.384894 0.436446 0.053427 0.244541
C9    C     C_2   0.750022 0.121172 0.380676 0.916628
C10   C     C_2   0.249979 0.878828 0.619325 0.916628
C11   C     C_3   0.748741 0.632013 0.897443 -0.819811
C12   C     C_R   0.495079 0.739460 0.499462 0.918808
C13   C     C_3   0.251259 0.367987 0.102557 -0.819811
C14   C     C_R   0.201112 0.499236 0.463744 0.997767
C15   C     C_R   0.798888 0.500764 0.536256 0.997768
C16   C     C_2   0.035316 0.499250 0.444721 -0.303007
C17   C     C_2   0.964684 0.500750 0.555279 -0.303006
C18   C     C_R   0.618332 0.061204 0.438649 -0.021483
C19   C     C_R   0.381669 0.938796 0.561351 -0.021483
C20   C     C_R   0.606454 0.932002 0.436424 -0.230977
H1    H     H_    0.971994 0.498147 0.340311 0.164772
H2    H     H_    0.812742 0.694584 0.978266 0.206749
H3    H     H_    0.835967 0.563452 0.871500 0.241064
H4    H     H_    0.294747 0.307410 0.190492 0.269048
H5    H     H_    0.164033 0.436548 0.128500 0.241064
H6    H     H_    0.187258 0.305415 0.021734 0.206749
H7    H     H_    0.028006 0.501853 0.659689 0.164772
H8    H     H_    0.690993 0.876961 0.391297 0.186093
H9    H     H_    0.309007 0.123039 0.608704 0.186093
H10   H     H_    0.704456 0.612710 0.158761 0.147093
H11   H     H_    0.295544 0.387290 0.841239 0.147093
H12   H     H_    0.902824 0.109487 0.246390 0.345014
H13   H     H_    0.097178 0.890513 0.753611 0.345014
H14   H     H_    0.705253 0.692589 0.809508 0.269047
N1    N     N_R   0.499960 0.499970 0.857200 -0.099173
N2    N     N_R   0.500040 0.500030 0.142800 -0.099172
O1    O     O_R   0.499990 0.316750 0.614620 -0.615630
O2    O     O_R   0.812526 0.060567 0.276228 -0.802964
O3    O     O_2   0.192526 0.779042 0.573507 -0.647046
O4    O     O_R   0.187475 0.939433 0.723772 -0.802965
O5    O     O_R   0.500010 0.683250 0.385380 -0.615630
O6    O     O_R   0.499990 0.316780 0.385290 -0.616079
O7    O     O_R   0.500010 0.683220 0.614710 -0.616079
O8    O     O_R   0.271750 0.499990 0.587840 -0.603504
O9    O     O_R   0.728250 0.500010 0.412160 -0.603504
O10   O     O_R   0.271750 0.500010 0.358510 -0.635682
O11   O     O_R   0.728250 0.499990 0.641490 -0.635682
O12   O     O_2   0.807474 0.220957 0.426494 -0.647046
Zn1   Zn    Zn3+2 0.500000 0.499980 0.653120 0.973149
Zn2   Zn    Zn3+2 0.500000 0.500020 0.346880 0.973149

loop_
_geom_bond_atom_site_label_1
_geom_bond_atom_site_label_2
_ccdc_geom_bond_type
O8    Zn1   S    
N1    Zn1   S    
C2    C4    A    
C5    C7    A    
C14   O8    A    
C3    C19   A    
C16   H1    S    
C15   O11   A    
O1    Zn1   S    
O10   Zn2   S    
C11   H2    S    
C1    O1    A    
C10   C19   S    
C1    C4    S    
C4    C18   A    
C6    H11   S    
C3    C20   A    
C14   O10   A    
C7    C11   S    
C13   H5    S    
C8    C13   S    
C9    C18   S    
O6    Zn2   S    
C2    H9    S    
O9    Zn2   S    
C11   H3    S    
C9    O2    S    
C12   O7    A    
C18   C20   A    
H12   O2    S    
C9    O12   D    
C14   C16   S    
C13   H6    S    
H13   O4    S    
C15   O9    A    
C17   H7    S    
C5    N2    A    
C1    O6    A    
N2    Zn2   S    
C6    N1    A    
C12   O5    A    
O11   Zn1   S    
C5    H10   S    
C8    N2    A    
C15   C17   S    
O5    Zn2   S    
O7    Zn1   S    
C10   O4    S    
C6    C8    A    
C3    C12   S    
C20   H8    S    
C2    C19   A    
C7    N1    A    
C10   O3    D    
C11   H14   S    
C13   H4    S    
C16   C17   D    
