data_mof_unit_60353.cif
_audit_creation_date              2012-12-11T17:27:13-0500
_audit_creation_method            fapswitch 2.2
_symmetry_space_group_name_H-M    P1
_symmetry_Int_Tables_number       1
_space_group_crystal_system       triclinic
_cell_length_a                    6.955846
_cell_length_b                    21.243143
_cell_length_c                    22.908852
_cell_angle_alpha                 92.965493
_cell_angle_beta                  89.108024
_cell_angle_gamma                 89.50969
_cell_volume                      3380.01299858

loop_
_atom_site_label
_atom_site_type_symbol
_atom_type_description
_atom_site_fract_x
_atom_site_fract_y
_atom_site_fract_z
_atom_type_partial_charge
O1    O     O_R   0.494570 0.443040 0.441850 -0.532681
O2    O     O_R   0.823720 0.437670 0.557760 -0.530870
O3    O     O_R   0.994070 0.556960 0.558150 -0.526996
C1    C     C_R   0.654387 0.422770 0.577127 0.722928
O4    O     O_R   0.824280 0.435690 0.442260 -0.531057
O5    O     O_R   0.994640 0.554970 0.441830 -0.529197
C2    C     C_R   0.657185 0.420341 0.422969 0.750041
O6    O     O_R   0.494000 0.445030 0.558170 -0.534500
O7    O     O_3   0.660820 0.539140 0.499990 -0.368598
V1    V     V_3+5 0.935650 0.492740 0.500000 1.483343
O8    O     O_R   0.324360 0.562330 0.442240 -0.533830
C3    C     C_R   0.155958 0.577024 0.422514 0.716708
O9    O     O_R   0.323800 0.564310 0.557740 -0.527836
C4    C     C_R   0.153219 0.582221 0.579998 0.690056
V2    V     V_3+5 0.435660 0.507260 0.500000 1.464047
O10   O     O_3   0.160620 0.460860 0.500010 -0.354954
C5    C     C_1   0.139846 0.633382 0.631294 -0.199759
C6    C     C_1   0.128958 0.675072 0.673607 0.017104
C7    C     C_1   0.115966 0.724843 0.724349 0.005733
C8    C     C_1   0.105112 0.766410 0.766769 0.007041
C9    C     C_1   0.092098 0.816180 0.817511 0.020920
C10   C     C_1   0.081154 0.857869 0.859824 -0.194321
C11   C     C_R   0.277942 0.741632 0.277782 -0.268271
H1    H     H_    0.409428 0.739166 0.302376 0.221535
C12   C     C_R   0.122500 0.702748 0.290958 -0.197713
C13   C     C_R   0.953602 0.706937 0.258301 0.558110
C14   C     C_R   0.940905 0.749268 0.213162 0.527991
C15   C     C_R   0.096516 0.788283 0.200074 -0.262039
C16   C     C_R   0.265142 0.784133 0.232854 0.634172
C17   C     C_1   0.136573 0.658714 0.337706 0.159882
C18   C     C_1   0.083347 0.832446 0.153364 0.220975
C19   C     C_1   0.073617 0.869482 0.114604 -0.139416
C20   C     C_1   0.146686 0.621729 0.376499 -0.165590
H2    H     H_    0.351611 0.324618 0.737834 0.143912
C21   C     C_R   0.453413 0.245173 0.783439 -0.133352
H3    H     H_    0.328942 0.245552 0.812476 0.128406
C22   C     C_R   0.599958 0.200108 0.788438 0.094559
C23   C     C_R   0.759624 0.200606 0.750268 -0.167348
H4    H     H_    0.873899 0.166096 0.753725 0.145557
C24   C     C_R   0.773083 0.245479 0.707398 0.171268
C25   C     C_R   0.625604 0.290765 0.702462 0.084854
C26   C     C_R   0.466409 0.290216 0.740874 -0.153415
C27   C     C_1   0.587037 0.153601 0.832713 -0.032315
C28   C     C_1   0.635256 0.337652 0.658391 0.020899
C29   C     C_1   0.643737 0.376595 0.621461 -0.139963
C30   C     C_1   0.576946 0.114822 0.869764 -0.179354
H5    H     H_    0.360603 0.327594 0.262993 0.145895
C31   C     C_R   0.453224 0.247154 0.209553 -0.131183
H6    H     H_    0.329661 0.248783 0.181400 0.130599
C32   C     C_R   0.595476 0.200962 0.200201 0.100266
C33   C     C_R   0.755027 0.198475 0.236278 -0.164922
H7    H     H_    0.864643 0.162323 0.228443 0.147909
C34   C     C_R   0.773122 0.242719 0.282602 0.170481
C35   C     C_R   0.629939 0.289154 0.291914 0.088270
C36   C     C_R   0.470844 0.291560 0.255584 -0.148594
C37   C     C_1   0.578787 0.155889 0.153325 -0.036009
C38   C     C_1   0.643245 0.334796 0.338514 0.013278
C39   C     C_1   0.651282 0.373744 0.377426 -0.140925
C40   C     C_1   0.568809 0.117349 0.114122 -0.180259
O11   O     O_R   0.726340 0.046440 0.933120 -0.536318
O12   O     O_R   0.395690 0.055650 0.048950 -0.537520
O13   O     O_R   0.225700 0.936320 0.049330 -0.526621
C41   C     C_R   0.562710 0.071036 0.068313 0.746655
O14   O     O_R   0.396600 0.053690 0.933450 -0.537586
O15   O     O_R   0.226620 0.934340 0.933010 -0.524208
C42   C     C_R   0.565962 0.068679 0.914143 0.716885
O16   O     O_R   0.725420 0.048420 0.049440 -0.534224
O17   O     O_3   0.559650 0.952270 0.991250 -0.359766
V3    V     V_3+5 0.284670 0.998570 0.991180 1.451741
O18   O     O_R   0.896930 0.926880 0.933340 -0.525757
C43   C     C_R   0.067595 0.909026 0.911120 0.697946
O19   O     O_R   0.896010 0.928840 0.048840 -0.526837
C44   C     C_R   0.064401 0.914211 0.068611 0.719605
V4    V     V_3+5 0.784710 0.983880 0.991060 1.464877
O20   O     O_3   0.059600 0.030370 0.991120 -0.366427
F1    F     F_    0.417428 0.821342 0.221488 -0.608897
I1    I     I_    0.017051 0.237242 0.336697 -0.379311
F2    F     F_    0.800960 0.669981 0.270086 -0.639332
F3    F     F_    0.776650 0.752083 0.182145 -0.588111
I2    I     I_    0.018791 0.242530 0.651304 -0.388263

loop_
_geom_bond_atom_site_label_1
_geom_bond_atom_site_label_2
_ccdc_geom_bond_type
C31   C36   A    
C25   C26   A    
O2    C1    A    
C7    C8    T    
H2    C26   S    
C1    O6    A    
C16   F1    S    
C34   C35   A    
C13   C14   A    
C13   F2    S    
C11   C16   A    
C15   C16   A    
C21   C22   A    
C30   C42   S    
C14   F3    S    
O5    C3    A    
C23   H4    S    
O17   V4    S    
V2    O10   S    
C6    C7    S    
O12   C41   A    
C21   C26   A    
O8    V2    S    
C21   H3    S    
O17   V3    S    
O18   V4    S    
C11   H1    S    
C24   I2    S    
O13   C44   A    
O18   C43   A    
O1    V2    S    
O7    V1    S    
C2    C39   S    
C31   C32   A    
O11   C42   A    
C9    C10   T    
C4    C5    S    
C32   C33   A    
C1    C29   S    
C41   O16   A    
V4    O20   S    
C33   H7    S    
O19   V4    S    
C19   C44   S    
O4    C2    A    
C12   C13   A    
O15   C43   A    
C32   C37   S    
O13   V3    S    
C33   C34   A    
O14   C42   A    
C22   C27   S    
C34   I1    S    
C22   C23   A    
C18   C19   T    
C5    C6    T    
O16   V4    S    
O14   V3    S    
O3    C4    A    
C31   H6    S    
O6    V2    S    
O9    V2    S    
C25   C28   S    
O2    V1    S    
C10   C43   S    
C28   C29   T    
H5    C36   S    
O12   V3    S    
C12   C17   S    
C35   C36   A    
C24   C25   A    
C17   C20   T    
O1    C2    A    
C15   C18   S    
O19   C44   A    
O5    V1    S    
O8    C3    A    
C40   C41   S    
C37   C40   T    
O7    V2    S    
O4    V1    S    
O3    V1    S    
V1    O10   S    
C23   C24   A    
C38   C39   T    
O15   V3    S    
O11   V4    S    
V3    O20   S    
C11   C12   A    
C27   C30   T    
C8    C9    S    
C14   C15   A    
C3    C20   S    
O9    C4    A    
C35   C38   S    
