data_mof_unit_36890.cif
_audit_creation_date              2012-12-11T14:17:28-0500
_audit_creation_method            fapswitch 2.2
_symmetry_space_group_name_H-M    P1
_symmetry_Int_Tables_number       1
_space_group_crystal_system       triclinic
_cell_length_a                    6.940496
_cell_length_b                    13.609071
_cell_length_c                    20.43059
_cell_angle_alpha                 102.048508
_cell_angle_beta                  90.006932
_cell_angle_gamma                 90.596355
_cell_volume                      1887.12754984

loop_
_atom_site_label
_atom_site_type_symbol
_atom_type_description
_atom_site_fract_x
_atom_site_fract_y
_atom_site_fract_z
_atom_type_partial_charge
O1    O     O_R   0.506860 0.599390 0.449240 -0.538862
O2    O     O_R   0.180220 0.594600 0.586780 -0.523450
O3    O     O_R   0.004500 0.400610 0.550760 -0.538647
C1    C     C_R   0.347946 0.617470 0.613115 0.778717
O4    O     O_R   0.177490 0.611290 0.451970 -0.537034
O5    O     O_R   0.001750 0.417420 0.414990 -0.544756
C2    C     C_R   0.346670 0.638361 0.435381 0.718014
O6    O     O_R   0.509610 0.582580 0.585010 -0.533272
O7    O     O_3   0.337420 0.436370 0.488020 -0.376206
V1    V     V_3+5 0.064680 0.511800 0.502220 1.516898
O8    O     O_R   0.671710 0.405400 0.413220 -0.545910
C3    C     C_R   0.839354 0.384683 0.386407 0.751482
O9    O     O_R   0.674440 0.388710 0.548030 -0.540384
C4    C     C_R   0.842655 0.361909 0.564704 0.719122
V2    V     V_3+5 0.564010 0.488200 0.497780 1.498268
O10   O     O_3   0.841140 0.563630 0.511980 -0.352421
C5    C     C_R   0.844209 0.108967 0.610824 0.202151
H1    H     H_    0.837051 0.161994 0.518903 0.156343
H2    H     H_    0.846808 0.983365 0.697120 0.186466
C6    C     C_R   0.849018 0.284339 0.604396 -0.080749
C7    C     C_R   0.868170 0.315215 0.927646 -0.153866
C8    C     C_R   0.866679 0.391116 0.891627 -0.123711
C9    C     C_R   0.861952 0.367830 0.821909 -0.157694
C10   C     C_R   0.858467 0.266630 0.785973 0.095637
C11   C     C_R   0.858728 0.189221 0.823396 0.063788
C12   C     C_R   0.854825 0.239824 0.714370 0.048541
C13   C     C_R   0.849887 0.136311 0.681636 0.071664
C14   C     C_R   0.850269 0.062365 0.720105 -0.145383
C15   C     C_R   0.854991 0.088133 0.789458 -0.200180
C16   C     C_R   0.855472 0.312557 0.674037 -0.217164
C17   C     C_R   0.842936 0.183206 0.573030 -0.146890
C18   C     C_R   0.863782 0.214602 0.894325 -0.078241
H3    H     H_    0.859392 0.392062 0.694855 0.107671
H4    H     H_    0.873032 0.334968 0.981839 0.125426
H5    H     H_    0.861180 0.431158 0.797988 0.111683
H6    H     H_    0.869763 0.468909 0.917967 0.124269
H7    H     H_    0.855347 0.027472 0.816344 0.121255
C19   C     C_2   0.003619 0.297341 0.283390 -0.150306
C20   C     C_2   0.840501 0.319602 0.318669 -0.320716
H8    H     H_    0.138966 0.327659 0.306101 0.164161
H9    H     H_    0.701714 0.293879 0.297065 0.150524
C21   C     C_2   0.014545 0.238126 0.213283 0.179002
C22   C     C_2   0.865602 0.181668 0.181433 -0.318487
H10   H     H_    0.729491 0.179569 0.206994 0.130784
C23   C     C_2   0.206703 0.798663 0.781312 -0.156680
C24   C     C_2   0.365373 0.818677 0.819316 -0.335103
H11   H     H_    0.071825 0.831654 0.801571 0.156957
H12   H     H_    0.503997 0.789792 0.800578 0.146954
C25   C     C_2   0.200742 0.736618 0.711898 0.192609
C26   C     C_2   0.354114 0.684434 0.680642 -0.315045
H13   H     H_    0.491591 0.687958 0.705915 0.135279
C27   C     C_R   0.355430 0.893344 0.391490 0.245359
H14   H     H_    0.346283 0.837104 0.482364 0.165355
C28   C     C_R   0.355810 0.717010 0.396280 -0.080255
C29   C     C_R   0.343040 0.685352 0.073419 -0.212610
C30   C     C_R   0.331678 0.609427 0.109896 0.255933
C31   C     C_R   0.334914 0.634563 0.179831 -0.142381
C32   C     C_R   0.351343 0.735932 0.215233 0.039795
C33   C     C_R   0.359493 0.812101 0.177232 0.036182
C34   C     C_R   0.356840 0.763754 0.286888 0.012408
C35   C     C_R   0.360585 0.867930 0.319862 0.069623
C36   C     C_R   0.369551 0.941662 0.280013 0.195549
C37   C     C_R   0.370015 0.913073 0.210377 -0.247658
C38   C     C_R   0.359086 0.690350 0.326797 -0.204947
C39   C     C_R   0.352045 0.817545 0.428182 -0.166130
C40   C     C_R   0.356358 0.785936 0.106297 -0.096571
H15   H     H_    0.363686 0.611026 0.305761 0.107218
H16   H     H_    0.340383 0.666245 0.019180 0.100012
H17   H     H_    0.320961 0.572323 0.204498 0.137760
H18   H     H_    0.377574 0.972292 0.182282 0.134739
O11   O     O_R   0.203230 0.917310 0.915020 -0.543848
O12   O     O_R   0.535500 0.888690 0.048040 -0.543630
O13   O     O_R   0.711080 0.082610 0.085000 -0.535213
C41   C     C_R   0.366391 0.862449 0.065282 0.699670
O14   O     O_R   0.532630 0.905370 0.913230 -0.549482
O15   O     O_R   0.708190 0.099410 0.949230 -0.538631
C42   C     C_R   0.364800 0.884702 0.886494 0.749570
O16   O     O_R   0.206120 0.900510 0.050790 -0.540342
O17   O     O_3   0.375360 0.063570 0.011990 -0.352774
V3    V     V_3+5 0.648170 0.988200 0.997780 1.450009
O18   O     O_R   0.038240 0.111390 0.951940 -0.537183
C43   C     C_R   0.870095 0.137471 0.934724 0.692204
O19   O     O_R   0.041120 0.094710 0.086750 -0.520522
C44   C     C_R   0.873580 0.117011 0.113239 0.783025
V4    V     V_3+5 0.148810 0.011930 0.002180 1.481100
O20   O     O_3   0.871750 0.936430 0.988010 -0.381138
I1    I     I_    0.288357 0.254301 0.168714 -0.455657
I2    I     I_    0.922976 0.742103 0.667782 -0.418815
N1    N     N_3   0.381738 0.046803 0.308860 -0.621343
H19   H     H_    0.264861 0.082318 0.291642 0.249503
H20   H     H_    0.508250 0.075678 0.291948 0.237399
I3    I     I_    0.343946 0.040395 0.453893 -0.348536
N2    N     N_3   0.313786 0.505755 0.076741 -0.643306
H21   H     H_    0.307280 0.499106 0.024856 0.224951
H22   H     H_    0.439364 0.469558 0.086609 0.242730
I4    I     I_    0.835655 0.957840 0.555686 -0.351631

loop_
_geom_bond_atom_site_label_1
_geom_bond_atom_site_label_2
_ccdc_geom_bond_type
C29   C30   A    
N2    H21   S    
O11   C42   A    
C1    O6    A    
O18   C43   A    
C20   H9    S    
C28   C39   A    
C6    C16   A    
C23   C24   D    
C12   C13   A    
C14   C15   A    
C10   C12   A    
C19   C21   S    
C27   C35   A    
C33   C40   A    
O5    C3    A    
C19   C20   D    
C32   C34   A    
V2    O10   S    
C40   C41   S    
C36   N1    S    
C30   C31   A    
V3    O20   S    
O11   V4    S    
O8    V2    S    
C9    C10   A    
O1    V2    S    
N1    H20   S    
H14   C39   S    
O14   V3    S    
O13   C44   A    
C11   C18   A    
N2    H22   S    
O9    C4    A    
C22   C44   S    
C25   I2    S    
C29   H16   S    
C23   H11   S    
C11   C15   A    
C30   N2    S    
C7    C18   A    
C24   H12   S    
C5    C13   A    
C38   H15   S    
C4    C6    S    
C10   C11   A    
O12   C41   A    
O15   C43   A    
O4    C2    A    
C7    H4    S    
C32   C33   A    
V4    O20   S    
C1    C26   S    
C34   C35   A    
O2    C1    A    
C22   H10   S    
C36   C37   A    
O19   C44   A    
C37   H18   S    
C23   C25   S    
C26   H13   S    
C5    I4    S    
H2    C14   S    
O14   C42   A    
O3    C4    A    
O16   V4    S    
O19   V4    S    
C12   C16   A    
O6    V2    S    
C9    H5    S    
O9    V2    S    
C5    C17   A    
C27   I3    S    
C21   C22   D    
O2    V1    S    
O17   V4    S    
C29   C40   A    
C8    H6    S    
O7    V1    S    
C16   H3    S    
O1    C2    A    
O15   V3    S    
O5    V1    S    
C24   C42   S    
O8    C3    A    
H1    C17   S    
C18   C43   S    
C33   C37   A    
C34   C38   A    
C3    C20   S    
O7    V2    S    
O4    V1    S    
O12   V3    S    
O3    V1    S    
V1    O10   S    
C19   H8    S    
C31   C32   A    
C28   C38   A    
O13   V3    S    
C35   C36   A    
O17   V3    S    
C25   C26   D    
C41   O16   A    
C15   H7    S    
C13   C14   A    
C8    C9    A    
C21   I1    S    
C2    C28   S    
C31   H17   S    
N1    H19   S    
C7    C8    A    
O18   V4    S    
C27   C39   A    
C6    C17   A    
