data_mof_unit_11604.cif
_audit_creation_date              2012-12-10T19:09:32-0500
_audit_creation_method            fapswitch 2.2
_symmetry_space_group_name_H-M    P1
_symmetry_Int_Tables_number       1
_space_group_crystal_system       triclinic
_cell_length_a                    9.551665
_cell_length_b                    10.863458
_cell_length_c                    17.065644
_cell_angle_alpha                 88.839373
_cell_angle_beta                  93.075455
_cell_angle_gamma                 90.641515
_cell_volume                      1767.79756399

loop_
_atom_site_label
_atom_site_type_symbol
_atom_type_description
_atom_site_fract_x
_atom_site_fract_y
_atom_site_fract_z
_atom_type_partial_charge
C1    C     C_R   0.499525 0.262632 0.501843 0.825805
C2    C     C_R   0.654484 0.479148 0.778996 -0.226429
C3    C     C_R   0.549772 0.420978 0.141279 -0.236657
C4    C     C_R   0.556140 0.416665 0.223301 0.208482
C5    C     C_R   0.467102 0.509937 0.099679 0.338742
C6    C     C_R   0.476485 0.500200 0.263980 -0.051833
C7    C     C_R   0.390485 0.585393 0.222536 -0.296157
C8    C     C_R   0.386172 0.590168 0.140912 -0.186753
C9    C     C_R   0.624260 0.065775 0.511703 0.065190
C10   C     C_R   0.499195 0.130061 0.510424 -0.136024
C11   C     C_R   0.373693 0.064220 0.519206 -0.344137
C12   C     C_R   0.516573 0.496788 0.650992 0.814482
C13   C     C_R   0.372490 0.934811 0.521561 0.434585
C14   C     C_R   0.498502 0.871330 0.508907 -0.186767
C15   C     C_R   0.623084 0.939597 0.507548 0.038875
C16   C     C_3   0.745206 0.942516 0.455412 0.082626
C17   C     C_3   0.748186 0.081976 0.462671 -0.467313
C18   C     C_R   0.067729 0.530932 0.433538 0.182641
C19   C     C_R   0.078734 0.450223 0.561543 0.520068
C20   C     C_R   0.929975 0.454165 0.562087 -0.163535
C21   C     C_R   0.920531 0.530150 0.433396 0.226773
C22   C     C_3   0.912397 0.648910 0.388640 -0.484048
C23   C     C_R   0.500103 0.737879 0.501365 0.827641
C24   C     C_3   0.071212 0.649178 0.388173 -0.488488
C25   C     C_R   0.483592 0.500428 0.349458 0.830470
C26   C     C_R   0.524349 0.488359 0.737109 -0.104090
C27   C     C_R   0.400793 0.484842 0.777972 -0.290695
C28   C     C_R   0.406035 0.471073 0.859422 0.445283
C29   C     C_R   0.538000 0.468005 0.901576 0.266015
C30   C     C_R   0.660822 0.468755 0.860582 -0.252959
Cu1   Cu    Cu3+1 0.640670 0.499980 0.500000 0.948760
Cu2   Cu    Cu3+1 0.359330 0.500020 0.500000 0.978727
H1    H     H_    0.840084 0.899556 0.484124 0.116431
H2    H     H_    0.841561 0.116111 0.497806 0.163800
H3    H     H_    0.724869 0.135078 0.407317 0.211777
H4    H     H_    0.878023 0.421059 0.613078 0.164414
H5    H     H_    0.859641 0.639899 0.329404 0.200291
H6    H     H_    0.871818 0.722002 0.424706 0.224557
H7    H     H_    0.110191 0.637209 0.328665 0.191875
H8    H     H_    0.609060 0.354564 0.110542 0.156374
H9    H     H_    0.121615 0.725329 0.422057 0.258229
H10   H     H_    0.762025 0.463225 0.892213 0.165813
H11   H     H_    0.751454 0.480083 0.748862 0.172626
H12   H     H_    0.329065 0.650027 0.253466 0.153008
H13   H     H_    0.320610 0.657555 0.109536 0.155309
H14   H     H_    0.299180 0.490668 0.746992 0.220553
H15   H     H_    0.275376 0.112284 0.519753 0.153884
N1    N     N_2   0.551016 0.460874 0.984524 -0.272783
N2    N     N_2   0.459250 0.519578 0.016643 -0.188914
N3    N     N_R   0.147870 0.500930 0.499500 -0.224762
N4    N     N_R   0.851960 0.500890 0.499500 -0.211080
O1    O     O_R   0.618810 0.319640 0.500000 -0.573416
O2    O     O_R   0.381230 0.319680 0.499990 -0.591772
O3    O     O_R   0.631790 0.498830 0.613930 -0.601260
O4    O     O_R   0.394210 0.498870 0.613920 -0.537182
O5    O     O_R   0.618770 0.680320 0.500010 -0.577910
O6    O     O_R   0.381190 0.680360 0.500000 -0.533487
O7    O     O_R   0.605790 0.501130 0.386080 -0.552944
O8    O     O_R   0.368210 0.501170 0.386070 -0.593172
N5    N     N_2   0.635343 0.323521 0.264615 -0.435409
H16   H     H_    0.605206 0.235956 0.248026 0.238425
C31   C     C_3   0.785619 0.340885 0.264079 -0.662755
H17   H     H_    0.822115 0.328948 0.203986 0.211804
H18   H     H_    0.838288 0.271919 0.304120 0.215944
H19   H     H_    0.815819 0.434084 0.284635 0.241136
O9    O     O_3   0.246421 0.870791 0.525091 -0.575898
C32   C     C_3   0.177103 0.900531 0.593234 0.042654
H20   H     H_    0.110581 0.982770 0.581148 0.136153
H21   H     H_    0.251446 0.918385 0.644581 0.135726
C33   C     C_3   0.082726 0.792848 0.615195 -0.754571
H22   H     H_    0.147211 0.710316 0.630074 0.261442
H23   H     H_    0.023073 0.816473 0.666814 0.195993
H24   H     H_    0.007565 0.771064 0.565393 0.235108
N6    N     N_2   0.716219 0.901864 0.374891 -0.413778
H25   H     H_    0.801438 0.914451 0.340848 0.253032
C34   C     C_3   0.583897 0.930245 0.332759 -0.639113
H26   H     H_    0.590798 0.908075 0.269840 0.207176
H27   H     H_    0.557904 0.029073 0.336570 0.219107
H28   H     H_    0.498028 0.872710 0.355367 0.223446
O10   O     O_3   0.153433 0.401880 0.626151 -0.575555
C35   C     C_3   0.139301 0.271938 0.629054 0.072524
H29   H     H_    0.246172 0.233138 0.637850 0.170261
H30   H     H_    0.090666 0.230631 0.574522 0.100002
C36   C     C_3   0.056290 0.231245 0.699024 -0.884504
H31   H     H_    0.943453 0.251779 0.688062 0.235148
H32   H     H_    0.067187 0.130396 0.709044 0.208276
H33   H     H_    0.096170 0.279435 0.752472 0.266910
O11   O     O_3   0.281176 0.464162 0.896750 -0.563318
C37   C     C_3   0.251515 0.339359 0.914627 0.075071
H34   H     H_    0.325094 0.304175 0.962458 0.159073
H35   H     H_    0.258916 0.280323 0.862369 0.122921
C38   C     C_3   0.103084 0.328431 0.942308 -0.786829
H36   H     H_    0.026923 0.361750 0.895349 0.243475
H37   H     H_    0.078493 0.230696 0.956727 0.197456
H38   H     H_    0.093047 0.384204 0.995522 0.253923

loop_
_geom_bond_atom_site_label_1
_geom_bond_atom_site_label_2
_ccdc_geom_bond_type
C18   C21   A    
C11   H15   S    
C19   C20   A    
C36   H33   S    
Cu1   O1    S    
C35   H29   S    
C7    C8    A    
C26   C27   A    
C31   H17   S    
N6    C34   S    
C16   N6    S    
Cu1   O7    S    
C28   C29   A    
C34   H27   S    
C20   N4    A    
C6    C25   S    
C15   C16   S    
C22   H6    S    
C24   H7    S    
N5    C31   S    
C1    O2    A    
C8    H13   S    
C31   H18   S    
C16   C17   S    
C28   O11   S    
C34   H28   S    
C33   H22   S    
Cu1   O5    S    
C37   H35   S    
C9    C10   A    
Cu2   O4    S    
O9    C32   S    
C21   C22   S    
C24   H9    S    
C5    N2    S    
Cu2   O6    S    
C35   H30   S    
C13   O9    S    
N6    H25   S    
C29   N1    S    
C32   H20   S    
C23   O5    A    
C36   H31   S    
C4    C6    A    
C22   H5    S    
C38   H38   S    
C12   C26   S    
N5    H16   S    
C32   H21   S    
C14   C23   S    
C29   C30   A    
C16   H1    S    
Cu1   Cu2   S    
C2    H11   S    
C4    N5    S    
C33   H24   S    
C38   H37   S    
C2    C26   A    
C7    H12   S    
C34   H26   S    
C37   C38   S    
Cu2   N3    S    
C27   H14   S    
C9    C17   S    
N1    N2    D    
C3    H8    S    
C18   C24   S    
C17   H2    S    
C3    C4    A    
Cu2   O2    S    
C21   N4    A    
C35   C36   S    
C18   N3    A    
C23   O6    A    
C31   H19   S    
C30   H10   S    
C1    C10   S    
Cu1   N4    S    
O10   C35   S    
C3    C5    A    
C5    C8    A    
C6    C7    A    
C17   H3    S    
C2    C30   A    
C32   C33   S    
C9    C15   A    
C11   C13   A    
C19   N3    A    
C38   H36   S    
C22   C24   S    
Cu1   O3    S    
C19   O10   S    
C1    O1    A    
C12   O4    A    
C10   C11   A    
C20   H4    S    
O11   C37   S    
C25   O7    A    
C27   C28   A    
C14   C15   A    
C36   H32   S    
C33   H23   S    
C25   O8    A    
Cu2   O8    S    
C37   H34   S    
C13   C14   A    
C12   O3    A    
