data_mof_unit_45971.cif
_audit_creation_date              2013-03-05T16:12:12-0500
_audit_creation_method            fapswitch 2.2
_symmetry_space_group_name_H-M    P1
_symmetry_Int_Tables_number       1
_space_group_crystal_system       triclinic
_cell_length_a                    10.738915
_cell_length_b                    9.447885
_cell_length_c                    27.835938
_cell_angle_alpha                 90.232205
_cell_angle_beta                  89.390666
_cell_angle_gamma                 90.157481
_cell_volume                      2824.0419753

loop_
_atom_site_label
_atom_site_type_symbol
_atom_site_description
_atom_site_fract_x
_atom_site_fract_y
_atom_site_fract_z
_atom_type_partial_charge
O1    O     O_R   0.317570 0.620260 0.500030 -0.599978
O2    O     O_R   0.317570 0.379740 0.500030 -0.595568
C1    C     C_R   0.259922 0.499656 0.499011 0.786857
O3    O     O_R   0.499900 0.620250 0.430280 -0.598073
O4    O     O_R   0.499900 0.379750 0.430280 -0.597572
C2    C     C_R   0.499915 0.499718 0.407532 0.805217
Cu1   Cu    Cu3+1 0.499860 0.642410 0.500020 0.930418
Cu2   Cu    Cu3+1 0.499860 0.357590 0.500020 0.923279
O5    O     O_R   0.682190 0.620260 0.500010 -0.590759
O6    O     O_R   0.682190 0.379740 0.500010 -0.596385
O7    O     O_R   0.499860 0.620280 0.569750 -0.562301
O8    O     O_R   0.499860 0.379720 0.569750 -0.583771
C3    C     C_R   0.739800 0.499865 0.499111 0.789724
C4    C     C_R   0.503860 0.500205 0.592632 0.865936
C5    C     C_R   0.382102 0.486084 0.179458 0.533981
O9    O     O_2   0.275212 0.479853 0.205315 -0.529947
N1    N     N_R   0.493689 0.495382 0.202460 -0.471623
C6    C     C_R   0.603738 0.501955 0.177442 0.536817
C7    C     C_R   0.483931 0.369795 0.279255 -0.101929
C8    C     C_R   0.486010 0.370606 0.329320 -0.215339
C9    C     C_R   0.510781 0.625997 0.328871 -0.203246
C10   C     C_R   0.509252 0.624746 0.278764 -0.099607
C11   C     C_R   0.495487 0.496737 0.253892 0.363826
C12   C     C_R   0.490518 0.489591 0.102441 -0.044724
C13   C     C_R   0.378378 0.483532 0.129045 -0.020824
C14   C     C_R   0.265364 0.473840 0.104897 -0.144095
C15   C     C_R   0.604280 0.498608 0.127014 -0.022374
C16   C     C_R   0.499086 0.498821 0.354625 -0.026695
H1    H     H_    0.521418 0.726289 0.347368 0.143354
H2    H     H_    0.518390 0.723150 0.259214 0.134581
H3    H     H_    0.177933 0.466276 0.124520 0.188665
C17   C     C_R   0.505965 0.498846 0.645998 -0.118386
C18   C     C_R   0.372081 0.490140 0.976019 0.034469
C19   C     C_R   0.601208 0.475727 0.974281 0.044359
C20   C     C_R   0.485745 0.482311 0.949803 0.070439
C21   C     C_R   0.260578 0.506578 0.950261 -0.241991
C22   C     C_R   0.258760 0.508858 0.900181 -0.020965
C23   C     C_R   0.370972 0.494666 0.873449 -0.068401
C24   C     C_R   0.484370 0.481525 0.898640 -0.049953
C25   C     C_R   0.597206 0.468049 0.872630 -0.021989
C26   C     C_R   0.596146 0.469016 0.822371 0.548721
N2    N     N_R   0.486687 0.483599 0.798509 -0.465190
C27   C     C_R   0.375396 0.495211 0.822461 0.543658
C28   C     C_R   0.452472 0.373389 0.719818 -0.074182
C29   C     C_R   0.461038 0.377619 0.669906 -0.198126
C30   C     C_R   0.548708 0.615108 0.673980 -0.019432
C31   C     C_R   0.536974 0.610202 0.724170 -0.134935
C32   C     C_R   0.489543 0.490009 0.747036 0.321246
O10   O     O_2   0.270376 0.508282 0.796751 -0.507124
C33   C     C_R   0.373315 0.483723 0.027094 0.050057
C34   C     C_R   0.488932 0.486605 0.051380 0.067935
C35   C     C_R   0.603022 0.486549 0.025188 0.044041
C36   C     C_R   0.262612 0.473547 0.054997 -0.204235
H4    H     H_    0.432552 0.284939 0.650095 0.192872
H5    H     H_    0.418117 0.278781 0.737408 0.157576
H6    H     H_    0.172425 0.522512 0.968350 0.132964
H7    H     H_    0.171777 0.461609 0.039445 0.137715
O11   O     O_2   0.712213 0.510808 0.201335 -0.523079
C37   C     C_R   0.715794 0.504707 0.100867 -0.143923
H8    H     H_    0.476751 0.271003 0.348132 0.142585
H9    H     H_    0.473557 0.270552 0.260093 0.134589
H10   H     H_    0.804424 0.514004 0.118871 0.186789
C38   C     C_R   0.711441 0.457293 0.946849 -0.203821
C39   C     C_R   0.709183 0.453619 0.897116 -0.129356
O12   O     O_2   0.703922 0.455585 0.797354 -0.507604
C40   C     C_R   0.715454 0.498974 0.051002 -0.203851
H11   H     H_    0.801418 0.442113 0.962729 0.139404
H12   H     H_    0.796453 0.439677 0.877846 0.204323
H13   H     H_    0.570013 0.697616 0.745982 0.167474
H14   H     H_    0.805297 0.508169 0.033720 0.136745
C41   C     C_3   0.074206 0.596240 0.457769 -0.406449
C42   C     C_3   0.071747 0.553236 0.547356 -0.402730
H15   H     H_    0.111002 0.557318 0.422543 0.167835
H16   H     H_    0.110786 0.487684 0.576786 0.184149
H17   H     H_    0.110717 0.705721 0.462604 0.153478
H18   H     H_    0.104370 0.663545 0.553555 0.176042
C43   C     C_3   0.929896 0.600903 0.458686 -0.162514
C44   C     C_3   0.927628 0.551498 0.548030 -0.188225
H19   H     H_    0.900722 0.711062 0.467519 0.122566
H20   H     H_    0.894639 0.661529 0.554377 0.148637
H21   H     H_    0.108492 0.304467 0.454811 0.163796
H22   H     H_    0.102014 0.274930 0.518485 0.184604
H23   H     H_    0.896842 0.308250 0.452762 0.175702
H24   H     H_    0.892935 0.270962 0.515608 0.171329
C45   C     C_3   0.071383 0.346997 0.489456 -0.379844
C46   C     C_3   0.122088 0.499001 0.498353 0.112686
C47   C     C_3   0.878133 0.499069 0.498444 0.047959
C48   C     C_3   0.928850 0.347119 0.488357 -0.378958
C49   C     C_3   0.590084 0.084418 0.536080 -0.197077
C50   C     C_3   0.591732 0.917610 0.535350 -0.199243
H25   H     H_    0.567144 0.121759 0.573017 0.172393
H26   H     H_    0.570934 0.879738 0.572011 0.189749
H27   H     H_    0.685467 0.124263 0.528044 0.147064
H28   H     H_    0.687239 0.880453 0.526168 0.145117
C51   C     C_3   0.374213 0.083371 0.512764 -0.053390
C52   C     C_3   0.375020 0.914968 0.514036 -0.064429
C53   C     C_3   0.536524 0.083110 0.453411 -0.219345
C54   C     C_3   0.534141 0.916039 0.453177 -0.220559
N3    N     N_3   0.500250 0.143650 0.501060 -0.143602
N4    N     N_3   0.500250 0.856350 0.501060 -0.144400
H29   H     H_    0.471897 0.121060 0.425363 0.143983
H30   H     H_    0.466141 0.879833 0.425865 0.144380
H31   H     H_    0.630983 0.121465 0.442888 0.153057
H32   H     H_    0.626668 0.875066 0.441421 0.153584
H33   H     H_    0.309289 0.114385 0.483725 0.092544
H34   H     H_    0.306864 0.878369 0.486805 0.097502
C55   C     C_2   0.618163 0.735828 0.653318 0.852377
O13   O     O_2   0.598707 0.855859 0.668188 -0.598595
O14   O     O_R   0.711966 0.711473 0.619200 -0.781506
H35   H     H_    0.759622 0.800787 0.610611 0.311378
C56   C     C_1   0.879508 0.568108 0.410660 0.216329
N5    N     N_1   0.839835 0.542439 0.373115 -0.262146
C57   C     C_1   0.880163 0.464565 0.588393 0.318784
N6    N     N_1   0.842830 0.396512 0.619910 -0.239877
C58   C     C_1   0.319690 0.146584 0.556953 0.274039
N7    N     N_1   0.274226 0.194650 0.591148 -0.305854
C59   C     C_1   0.329413 0.856460 0.560450 0.281026
N8    N     N_1   0.293744 0.811943 0.596773 -0.275757
C60   C     C_1   0.138603 0.527820 0.878100 0.338703
N9    N     N_1   0.042289 0.543181 0.860622 -0.235551

loop_
_geom_bond_atom_site_label_1
_geom_bond_atom_site_label_2
_geom_bond_distance
_ccdc_geom_bond_type
C44   C47   1.562595 S    
C47   C48   1.560198 S    
C17   C29   1.408466 A    
C20   C24   1.424393 A    
C51   C52   1.591642 S    
C12   C15   1.408675 A    
C42   H18   1.111976 S    
C53   C54   1.578595 S    
Cu1   Cu2   2.690946 S    
C40   H14   1.076968 S    
C45   C46   1.554334 S    
Cu1   O7    1.953071 S    
N1    C11   1.432001 S    
C49   N3    1.490485 S    
C39   H12   1.082965 S    
C21   C22   1.394614 A    
Cu2   N3    2.021622 S    
C37   C40   1.388903 A    
O4    C2    1.300565 A    
O7    C4    1.304316 A    
C44   H20   1.112028 S    
C5    C13   1.404396 A    
C58   N7    1.156915 T    
C18   C21   1.411456 A    
Cu1   O5    1.969747 S    
C19   C20   1.422788 A    
C26   N2    1.363877 A    
C43   C56   1.478885 S    
O5    C3    1.296362 A    
C31   H13   1.084225 S    
C42   C44   1.547638 S    
C51   H33   1.113724 S    
C6    O11   1.349739 S    
C2    C16   1.472825 S    
C7    C8    1.393998 A    
C51   C58   1.480936 S    
C55   O13   1.223390 D    
C8    H8    1.082599 S    
C12   C34   1.421781 A    
H23   C48   1.112787 S    
C14   H3    1.083542 S    
C9    C10   1.395054 A    
C1    C46   1.480490 S    
C55   O14   1.396000 S    
O3    Cu1   1.951687 S    
C50   N4    1.491153 S    
C53   N3    1.490711 S    
C50   H28   1.111835 S    
C43   H19   1.113506 S    
C38   H11   1.077021 S    
C33   C36   1.416389 A    
Cu1   N4    2.021364 S    
C34   C35   1.419039 A    
C52   C59   1.485090 S    
C12   C13   1.408173 A    
C42   H16   1.115026 S    
C24   C25   1.410725 A    
C41   H15   1.114672 S    
C36   H7    1.076864 S    
C27   O10   1.348345 S    
C26   O12   1.350391 S    
C8    C16   1.406254 A    
C33   C34   1.420153 A    
C18   C33   1.423465 A    
C54   H30   1.112013 S    
C9    H1    1.082897 S    
O1    C1    1.295623 A    
C7    C11   1.398719 A    
C22   C23   1.415912 A    
C21   H6    1.078150 S    
C41   C46   1.551769 S    
C50   H26   1.103189 S    
C31   C32   1.396381 A    
C22   C60   1.447042 S    
Cu2   O8    1.951386 S    
C30   C55   1.476307 S    
C3    C47   1.485503 S    
N1    C6    1.366723 A    
N2    C32   1.434322 S    
C53   H31   1.112929 S    
O3    C2    1.300738 A    
C25   C26   1.399230 A    
C9    C16   1.406284 A    
O8    C4    1.302991 A    
C29   H4    1.078247 S    
C54   N4    1.490528 S    
C44   C57   1.479765 S    
C49   H25   1.111057 S    
N2    C27   1.366798 A    
C14   C36   1.389642 A    
C41   C43   1.550417 S    
C35   C40   1.415960 A    
C28   C29   1.392144 A    
C57   N6    1.157366 T    
C45   C48   1.531294 S    
C5    N1    1.367100 A    
C52   H34   1.112711 S    
C30   C31   1.402353 A    
C37   H10   1.083560 S    
C10   H2    1.082866 S    
C56   N5    1.157324 T    
O1    Cu1   1.968177 S    
C17   C30   1.421906 A    
O2    Cu2   1.969320 S    
C6    C15   1.403906 A    
H24   C48   1.112910 S    
C4    C17   1.486013 S    
O6    C3    1.291307 A    
O4    Cu2   1.953374 S    
C42   C46   1.547787 S    
C60   N9    1.157430 T    
H22   C45   1.111801 S    
C19   C35   1.420640 A    
C25   C39   1.395801 A    
O2    C1    1.293110 A    
C13   C14   1.396196 A    
C23   C27   1.419605 A    
C15   C37   1.395912 A    
C59   N8    1.157689 T    
C41   H17   1.113341 S    
C28   H5    1.082914 S    
C23   C24   1.417660 A    
C7    H9    1.082928 S    
C54   H32   1.112839 S    
C52   N4    1.495955 S    
C19   C38   1.412646 A    
C18   C20   1.417421 A    
C51   N3    1.500109 S    
C49   H27   1.111146 S    
H21   C45   1.113476 S    
C38   C39   1.385142 A    
C28   C32   1.394176 A    
C43   C47   1.565900 S    
Cu2   O6    1.968603 S    
C10   C11   1.399382 A    
C49   C50   1.576175 S    
O14   H35   1.013781 S    
C53   H29   1.111283 S    
C5    O9    1.349656 S    
