data_mof_unit_16372.cif
_audit_creation_date              2012-10-26T20:13:53-0400
_audit_creation_method            fapswitch 2.2
_symmetry_space_group_name_H-M    P1
_symmetry_Int_Tables_number       1
_space_group_crystal_system       triclinic
_cell_length_a                    8.888472
_cell_length_b                    10.961356
_cell_length_c                    9.591762
_cell_angle_alpha                 91.101102
_cell_angle_beta                  96.222767
_cell_angle_gamma                 92.293042
_cell_volume                      928.011412193

loop_
_atom_site_label
_atom_site_type_symbol
_atom_type_description
_atom_site_fract_x
_atom_site_fract_y
_atom_site_fract_z
_atom_type_partial_charge
C1    C     C_R   0.493130 0.262819 0.498040 0.555763
C2    C     C_R   0.616715 0.553415 0.939931 0.190535
C3    C     C_3   0.691849 0.675395 0.935286 0.115487
C4    C     C_R   0.205378 0.505906 0.466013 0.557234
C5    C     C_3   0.676072 0.687767 0.093119 -0.263931
C6    C     C_R   0.491740 0.737251 0.500248 0.549625
C7    C     C_R   0.795152 0.497116 0.534173 0.552475
C8    C     C_2   0.044372 0.529275 0.452344 0.056570
C9    C     C_2   0.958397 0.484382 0.548114 -0.112370
C10   C     C_R   0.503844 0.066524 0.616854 0.048881
C11   C     C_R   0.478882 0.130133 0.494626 -0.044180
C12   C     C_R   0.425158 0.929400 0.372022 0.242462
C13   C     C_R   0.433384 0.060667 0.370358 -0.182886
C14   C     C_3   0.911939 0.769394 0.863661 -0.003325
C15   C     C_3   0.893214 0.777094 0.703216 -0.260122
C16   C     C_3   0.943691 0.900940 0.650187 -0.492464
C17   C     C_3   0.344599 0.905761 0.129073 0.006984
C18   C     C_3   0.191025 0.962661 0.095774 -0.268462
C19   C     C_3   0.179399 0.014337 0.949556 -0.506393
C20   C     C_3   0.753649 0.128086 0.938498 -0.006039
C21   C     C_3   0.666639 0.179334 0.054950 -0.262660
C22   C     C_3   0.743639 0.145291 0.198500 -0.473675
C23   C     C_R   0.474043 0.870096 0.498509 0.019587
C24   C     C_3   0.168489 0.321485 0.062448 -0.022635
C25   C     C_3   0.089209 0.443107 0.045533 -0.258536
C26   C     C_3   0.927158 0.430387 0.076942 -0.417938
C27   C     C_R   0.502046 0.943482 0.618908 -0.078141
C28   C     C_3   0.548374 0.944295 0.772207 -0.264022
C29   C     C_3   0.545072 0.084689 0.770348 0.179289
C30   C     C_R   0.612711 0.558833 0.084456 0.075382
C31   C     C_R   0.405038 0.421875 0.063722 0.354888
C32   C     C_R   0.403644 0.424408 0.912996 -0.025024
Cu1   Cu    Cu3+1 0.499990 0.499980 0.640670 0.960979
Cu2   Cu    Cu3+1 0.500010 0.500020 0.359330 1.010250
H1    H     H_    0.328012 0.364719 0.844609 0.111986
H2    H     H_    0.945865 0.687123 0.397930 0.215983
H3    H     H_    0.069560 0.645281 0.290277 0.242077
H4    H     H_    0.034877 0.766027 0.898023 0.153630
H5    H     H_    0.872342 0.850971 0.916511 0.100477
H6    H     H_    0.961987 0.706740 0.659892 0.165886
H7    H     H_    0.773491 0.757650 0.662392 0.190011
H8    H     H_    0.896625 0.976919 0.707398 0.180511
H9    H     H_    0.902734 0.906994 0.537046 0.145427
H10   H     H_    0.068983 0.910907 0.660770 0.149518
H11   H     H_    0.350154 0.829483 0.052099 0.137944
H12   H     H_    0.622006 0.733606 0.865492 0.121491
H13   H     H_    0.442009 0.968713 0.114309 0.108913
H14   H     H_    0.099399 0.891791 0.102093 0.158198
H15   H     H_    0.174509 0.036420 0.172663 0.159143
H16   H     H_    0.263751 0.090722 0.947282 0.142389
H17   H     H_    0.064679 0.047675 0.920853 0.132650
H18   H     H_    0.203054 0.943366 0.872199 0.140120
H19   H     H_    0.867629 0.174332 0.949358 0.139547
H20   H     H_    0.773274 0.030555 0.956624 0.109198
H21   H     H_    0.662208 0.279651 0.048143 0.170223
H22   H     H_    0.548299 0.142605 0.045021 0.148541
H23   H     H_    0.785943 0.700242 0.159144 0.157952
H24   H     H_    0.723517 0.046310 0.215817 0.139051
H25   H     H_    0.697677 0.198124 0.282296 0.190055
H26   H     H_    0.867664 0.165419 0.206574 0.125445
H27   H     H_    0.107702 0.258989 0.129082 0.151109
H28   H     H_    0.163322 0.273215 0.959640 0.090452
H29   H     H_    0.148205 0.514767 0.116478 0.208402
H30   H     H_    0.092253 0.475802 0.936770 0.149173
H31   H     H_    0.856106 0.391876 0.983257 0.168693
H32   H     H_    0.892539 0.522062 0.101314 0.216521
H33   H     H_    0.914361 0.375747 0.171308 0.158679
H34   H     H_    0.591310 0.754171 0.117155 0.118997
H35   H     H_    0.008551 0.434460 0.637150 0.095659
H36   H     H_    0.401862 0.109599 0.275772 0.153671
H37   H     H_    0.461241 0.900847 0.831834 0.081251
H38   H     H_    0.663176 0.911468 0.791283 0.132504
H39   H     H_    0.451769 0.127215 0.818445 0.102575
N1    N     N_R   0.500980 0.500930 0.148050 -0.227521
N2    N     N_R   0.500990 0.500890 0.852140 -0.282580
N3    N     N_3   0.983659 0.610980 0.346692 -0.640073
O1    O     O_R   0.500000 0.319640 0.618810 -0.481278
O2    O     O_3   0.354988 0.854405 0.262632 -0.559961
O3    O     O_3   0.687051 0.148339 0.800025 -0.546980
O4    O     O_3   0.318044 0.337022 0.128777 -0.548845
O5    O     O_R   0.500020 0.319680 0.381230 -0.482099
O6    O     O_R   0.274830 0.499980 0.591380 -0.535102
O7    O     O_R   0.274850 0.500020 0.353800 -0.468902
O8    O     O_R   0.499980 0.680320 0.618770 -0.537077
O9    O     O_R   0.500000 0.680360 0.381190 -0.461550
O10   O     O_R   0.725150 0.499980 0.646200 -0.468065
O11   O     O_R   0.725170 0.500020 0.408620 -0.482699
O12   O     O_3   0.842835 0.659897 0.905295 -0.574910

loop_
_geom_bond_atom_site_label_1
_geom_bond_atom_site_label_2
_ccdc_geom_bond_type
C10   C27   A    
C24   H27   S    
C1    O1    A    
C19   H16   S    
C4    C8    S    
C32   N2    A    
C31   O4    S    
C12   C23   A    
C6    O9    A    
C26   H33   S    
C28   C29   S    
C9    H35   S    
C22   H26   S    
C30   N1    A    
C7    O10   A    
C29   H39   S    
C13   H36   S    
C1    O5    A    
C15   C16   S    
C8    N3    S    
C18   C19   S    
C25   H29   S    
H2    N3    S    
C14   H5    S    
C19   H18   S    
Cu1   N2    S    
C7    O11   A    
C8    C9    D    
C12   O2    S    
Cu2   O5    S    
C23   C27   A    
Cu1   O6    S    
C16   H10   S    
C21   C22   S    
C28   H38   S    
C5    H34   S    
C24   O4    S    
C17   C18   S    
C6    O8    A    
C26   H32   S    
C32   H1    S    
C24   C25   S    
C15   H7    S    
C20   H20   S    
C22   H25   S    
C21   H21   S    
C31   N1    A    
C25   C26   S    
C25   H30   S    
Cu1   O10   S    
C14   H4    S    
C31   C32   A    
C29   O3    S    
Cu1   Cu2   S    
C12   C13   A    
C16   H9    S    
Cu2   N1    S    
H3    N3    S    
C28   H37   S    
Cu2   O7    S    
C16   H8    S    
C5    C30   S    
C7    C9    S    
C24   H28   S    
C20   O3    S    
C3    O12   S    
C26   H31   S    
C17   H13   S    
C17   H11   S    
C20   H19   S    
C3    C5    S    
C18   H14   S    
C22   H24   S    
C21   H22   S    
C3    H12   S    
C5    H23   S    
C2    C30   A    
C2    C3    S    
C14   O12   S    
C11   C13   A    
C10   C29   S    
Cu1   O1    S    
C4    O7    A    
C6    C23   S    
C17   O2    S    
Cu2   O11   S    
Cu1   O8    S    
C15   H6    S    
C10   C11   A    
C19   H17   S    
C4    O6    A    
C20   C21   S    
C27   C28   S    
C14   C15   S    
C1    C11   S    
Cu2   O9    S    
C2    N2    A    
C18   H15   S    
