data_mof_unit_7130.cif
_audit_creation_date              2012-10-26T20:01:54-0400
_audit_creation_method            fapswitch 2.2
_symmetry_space_group_name_H-M    P1
_symmetry_Int_Tables_number       1
_space_group_crystal_system       triclinic
_cell_length_a                    11.694401
_cell_length_b                    10.752095
_cell_length_c                    9.667467
_cell_angle_alpha                 90.003535
_cell_angle_beta                  90.002215
_cell_angle_gamma                 93.041498
_cell_volume                      1213.86832482

loop_
_atom_site_label
_atom_site_type_symbol
_atom_type_description
_atom_site_fract_x
_atom_site_fract_y
_atom_site_fract_z
_atom_type_partial_charge
C1    C     C_R   0.500616 0.262971 0.500086 0.543778
C2    C     C_R   0.507102 0.871284 0.498843 0.014286
C3    C     C_R   0.652212 0.666228 0.143364 -0.064455
C4    C     C_R   0.284310 0.499524 0.499999 0.555575
C5    C     C_R   0.726462 0.747916 0.071533 -0.148505
C6    C     C_R   0.726549 0.747721 0.928912 -0.147396
C7    C     C_R   0.652323 0.665881 0.857254 -0.064549
C8    C     C_R   0.574770 0.581433 0.925681 0.133877
C9    C     C_R   0.574726 0.581496 0.074643 0.134473
C10   C     C_R   0.427901 0.422075 0.073819 0.146708
C11   C     C_R   0.427885 0.422145 0.925997 0.144994
C12   C     C_R   0.810751 0.082937 0.597977 -0.110069
C13   C     C_R   0.501483 0.737109 0.499788 0.518155
C14   C     C_R   0.715701 0.500814 0.499998 0.503748
C15   C     C_1   0.162494 0.499601 0.500016 0.018176
C16   C     C_1   0.059929 0.499843 0.500057 -0.020678
C17   C     C_1   0.940040 0.500311 0.500075 -0.034798
C18   C     C_1   0.837491 0.500677 0.500039 -0.025639
C19   C     C_R   0.710131 0.142097 0.569238 -0.087864
C20   C     C_2   0.346210 0.335341 0.853650 0.630862
C21   C     C_2   0.346611 0.334801 0.146024 0.628028
C22   C     C_R   0.812229 0.953669 0.591560 -0.124174
C23   C     C_R   0.712773 0.882789 0.557976 -0.118366
C24   C     C_R   0.609386 0.940713 0.531559 0.026266
C25   C     C_R   0.608502 0.072040 0.534787 0.032364
C26   C     C_R   0.506343 0.129412 0.500387 0.037836
C27   C     C_R   0.407577 0.058736 0.463601 -0.096333
C28   C     C_R   0.407797 0.930211 0.463471 -0.124010
Cu1   Cu    Cu3+1 0.499990 0.499990 0.640660 0.983907
Cu2   Cu    Cu3+1 0.500010 0.500010 0.359340 0.986428
H1    H     H_    0.329654 0.103427 0.436704 0.138819
H2    H     H_    0.329968 0.876260 0.436791 0.126226
H3    H     H_    0.186382 0.300904 0.218621 0.327227
H4    H     H_    0.784542 0.811741 0.127268 0.130604
H5    H     H_    0.712920 0.242620 0.573322 0.128057
H6    H     H_    0.888148 0.137692 0.623875 0.122127
H7    H     H_    0.890837 0.908138 0.612066 0.118178
H8    H     H_    0.718008 0.782922 0.550755 0.092761
H9    H     H_    0.659336 0.673617 0.252553 0.178542
H10   H     H_    0.784721 0.811346 0.873092 0.131025
H11   H     H_    0.659202 0.672487 0.748354 0.176559
H12   H     H_    0.185580 0.302056 0.782102 0.327191
N1    N     N_R   0.501070 0.501210 0.147910 -0.282751
N2    N     N_R   0.501110 0.501290 0.852040 -0.283137
O1    O     O_R   0.499990 0.319640 0.618810 -0.472816
O2    O     O_R   0.234788 0.370478 0.828412 -0.670959
O3    O     O_2   0.373414 0.228658 0.170211 -0.508564
O4    O     O_R   0.235309 0.369683 0.172522 -0.670167
O5    O     O_R   0.500000 0.319660 0.381240 -0.469454
O6    O     O_R   0.337190 0.500000 0.618790 -0.464306
O7    O     O_R   0.337200 0.500030 0.381210 -0.466157
O8    O     O_R   0.500000 0.680340 0.618760 -0.515977
O9    O     O_R   0.500010 0.680360 0.381190 -0.521084
O10   O     O_R   0.662800 0.499970 0.618790 -0.528469
O11   O     O_R   0.662810 0.500000 0.381210 -0.517714
O12   O     O_2   0.372868 0.229390 0.828060 -0.498390

loop_
_geom_bond_atom_site_label_1
_geom_bond_atom_site_label_2
_ccdc_geom_bond_type
Cu2   O7    S    
C6    C7    A    
C3    C9    A    
C12   H6    S    
C23   H8    S    
Cu2   O11   S    
C14   C18   S    
C20   O12   D    
C23   C24   A    
C21   O4    S    
C5    H4    S    
C4    C15   S    
C14   O11   A    
C10   N1    A    
C3    H9    S    
C7    C8    A    
Cu1   N2    S    
C19   H5    S    
C1    O1    A    
C26   C27   A    
Cu1   Cu2   S    
C12   C19   A    
C11   N2    A    
C14   O10   A    
Cu2   O5    S    
C17   C18   T    
C13   O9    A    
Cu1   O6    S    
C7    H11   S    
C10   C21   S    
C2    C24   A    
C5    C6    A    
C19   C25   A    
Cu2   O9    S    
C6    H10   S    
Cu2   N1    S    
C9    N1    A    
C10   C11   A    
C4    O7    A    
C27   H1    S    
C15   C16   T    
C13   O8    A    
C12   C22   A    
C28   H2    S    
C24   C25   A    
H12   O2    S    
Cu1   O10   S    
Cu1   O1    S    
C27   C28   A    
H3    O4    S    
C2    C13   S    
C22   C23   A    
C8    C9    A    
C2    C28   A    
C3    C5    A    
C25   C26   A    
C22   H7    S    
C1    O5    A    
C11   C20   S    
C1    C26   S    
C20   O2    S    
C8    N2    A    
C4    O6    A    
C16   C17   S    
C21   O3    D    
Cu1   O8    S    
