data_mof_unit_30576.cif
_audit_creation_date              2012-12-10T17:48:49-0500
_audit_creation_method            fapswitch 2.2
_symmetry_space_group_name_H-M    P1
_symmetry_Int_Tables_number       1
_space_group_crystal_system       triclinic
_cell_length_a                    10.824102
_cell_length_b                    14.784966
_cell_length_c                    14.938896
_cell_angle_alpha                 64.591634
_cell_angle_beta                  104.882757
_cell_angle_gamma                 103.908957
_cell_volume                      2063.70374376

loop_
_atom_site_label
_atom_site_type_symbol
_atom_type_description
_atom_site_fract_x
_atom_site_fract_y
_atom_site_fract_z
_atom_type_partial_charge
C1    C     C_R   0.483102 0.119679 0.312335 0.804253
C2    C     C_3   0.879922 0.998274 0.505482 -0.112379
C3    C     C_3   0.961391 0.991361 0.611338 -0.138321
C4    C     C_3   0.935964 0.093661 0.417817 0.307091
C5    C     C_R   0.487398 0.186717 0.205040 -0.044356
C6    C     C_R   0.513500 0.810740 0.791456 -0.114817
C7    C     C_R   0.493654 0.219851 0.032346 -0.104372
C8    C     C_R   0.496603 0.151520 0.132446 0.032231
C9    C     C_R   0.488676 0.290674 0.175799 -0.219491
C10   C     C_R   0.505810 0.361570 0.078541 0.035204
C11   C     C_R   0.492198 0.323407 0.003413 -0.007191
C12   C     C_R   0.261535 0.995800 0.506571 0.865175
C13   C     C_R   0.522707 0.468515 0.051931 0.043826
C14   C     C_R   0.505750 0.533384 0.948048 -0.007076
C15   C     C_R   0.477582 0.491496 0.874859 -0.216173
C16   C     C_R   0.471527 0.388466 0.900887 0.428673
C17   C     C_R   0.554642 0.514685 0.123553 0.062728
C18   C     C_R   0.523692 0.611697 0.092726 -0.156135
C19   C     C_R   0.500051 0.674885 0.990602 -0.010901
C20   C     C_R   0.509105 0.638626 0.919229 0.063207
C21   C     C_R   0.478827 0.776273 0.957445 0.443272
C22   C     C_R   0.485568 0.842498 0.858098 -0.247713
C23   C     C_R   0.518135 0.880020 0.686787 0.850164
C24   C     C_R   0.523144 0.709046 0.821453 -0.202968
C25   C     C_R   0.735788 0.299258 0.650536 -0.207490
C26   C     C_R   0.692101 0.210491 0.633546 0.288981
C27   C     C_R   0.520178 0.285941 0.508289 0.043686
C28   C     C_R   0.555375 0.375130 0.530819 -0.065371
C29   C     C_R   0.664311 0.378646 0.606316 -0.014083
C30   C     C_R   0.485647 0.459584 0.482821 0.060304
C31   C     C_R   0.525882 0.545098 0.511647 0.013094
C32   C     C_R   0.631810 0.542076 0.589561 -0.221117
C33   C     C_R   0.698035 0.459474 0.639049 0.492775
C34   C     C_R   0.740350 0.000354 0.500190 0.811250
C35   C     C_R   0.375200 0.460442 0.408439 -0.168379
C36   C     C_R   0.305053 0.540061 0.365378 -0.122874
C37   C     C_R   0.343324 0.622994 0.392862 0.122011
C38   C     C_R   0.454679 0.628982 0.464788 0.022619
C39   C     C_R   0.268685 0.699864 0.347965 -0.226182
C40   C     C_R   0.305883 0.787606 0.367592 0.339051
C41   C     C_R   0.487213 0.718059 0.487123 -0.011071
C42   C     C_3   0.036108 0.897878 0.496483 0.223963
C43   C     C_3   0.893066 0.903646 0.489154 -0.516926
C44   C     C_3   0.107671 0.995368 0.612231 0.281335
C45   C     C_3   0.077186 0.087823 0.419945 -0.479369
C46   C     C_3   0.124654 0.993860 0.510836 -0.180862
Cu1   Cu    Cu3+1 0.465900 0.918260 0.475680 0.966897
Cu2   Cu    Cu3+1 0.534100 0.081740 0.524320 0.984699
H1    H     H_    0.948299 0.056993 0.623186 0.241333
H2    H     H_    0.546663 0.686817 0.768436 0.166651
H3    H     H_    0.470065 0.919565 0.832653 0.208492
H4    H     H_    0.533674 0.641274 0.149216 0.208049
H5    H     H_    0.494191 0.191099 0.977110 0.197847
H6    H     H_    0.472046 0.315450 0.229349 0.147708
H7    H     H_    0.043801 0.902713 0.421845 0.103232
H8    H     H_    0.452511 0.537726 0.796055 0.211478
H9    H     H_    0.570641 0.728557 0.541113 0.131116
H10   H     H_    0.219458 0.536703 0.309328 0.166210
H11   H     H_    0.824067 0.302586 0.703704 0.216160
H12   H     H_    0.440160 0.278538 0.450682 0.135702
H13   H     H_    0.841794 0.909747 0.412757 0.156771
H14   H     H_    0.662587 0.602139 0.616321 0.188620
H15   H     H_    0.338704 0.399972 0.382325 0.154034
H16   H     H_    0.180465 0.691276 0.296140 0.141126
H17   H     H_    0.843216 0.833412 0.540968 0.247421
H18   H     H_    0.141459 0.925945 0.672826 0.145266
H19   H     H_    0.142762 0.158003 0.419233 0.267809
H20   H     H_    0.083042 0.082874 0.348793 0.119155
H21   H     H_    0.879734 0.089465 0.345786 0.079133
N1    N     N_R   0.585360 0.204570 0.560800 -0.191243
N2    N     N_R   0.414550 0.795430 0.439160 -0.191411
O1    O     O_R   0.455060 0.022100 0.338110 -0.614300
O2    O     O_R   0.512640 0.160150 0.379180 -0.587695
O3    O     O_R   0.288900 0.930980 0.479450 -0.571329
O4    O     O_R   0.346480 0.069030 0.520520 -0.523424
O5    O     O_R   0.487360 0.839850 0.620820 -0.551451
O6    O     O_R   0.544940 0.977900 0.661890 -0.588452
O7    O     O_R   0.653520 0.930970 0.479480 -0.620579
O8    O     O_R   0.711100 0.069020 0.520550 -0.561598
S1    S     S_3+6 0.083086 0.775219 0.585689 0.006178
O9    O     O_2   0.109230 0.721900 0.528120 -0.243846
O10   O     O_2   0.204175 0.787274 0.658803 -0.320780
O11   O     O_3   0.965787 0.699942 0.650798 -0.509607
H22   H     H_    0.008585 0.675291 0.722288 0.392093
S2    S     S_3+6 0.920268 0.217681 0.406445 -0.005121
O12   O     O_2   0.954466 0.227454 0.506253 -0.271067
O13   O     O_2   0.007478 0.297478 0.337710 -0.288317
O14   O     O_3   0.767697 0.239115 0.354102 -0.557286
H23   H     H_    0.743896 0.270108 0.393192 0.369051
S3    S     S_3+6 0.206769 0.096243 0.650049 0.032887
O15   O     O_2   0.216443 0.196986 0.563013 -0.247591
O16   O     O_2   0.150568 0.105913 0.727130 -0.267394
O17   O     O_3   0.356166 0.067009 0.703523 -0.540528
H24   H     H_    0.404011 0.125085 0.720851 0.384377
S4    S     S_3+6 0.415641 0.341867 0.803399 0.019124
O18   O     O_2   0.520231 0.296550 0.795059 -0.309492
O19   O     O_2   0.300411 0.261259 0.828846 -0.247822
O20   O     O_3   0.371816 0.435018 0.692180 -0.522688
H25   H     H_    0.328940 0.400246 0.645983 0.401081
C47   C     C_3   0.504455 0.042309 0.156089 -0.359298
C48   C     C_3   0.635728 0.011237 0.217405 -0.299888
C49   C     C_3   0.628603 0.895697 0.268796 -0.697952
H26   H     H_    0.627831 0.869433 0.349600 0.237927
H27   H     H_    0.538978 0.855414 0.238492 0.300956
H28   H     H_    0.714078 0.872275 0.261003 0.237237
H29   H     H_    0.707716 0.042831 0.166130 0.217004
H30   H     H_    0.670348 0.043510 0.275639 0.212826
H31   H     H_    0.424509 0.992317 0.194416 0.229248
H32   H     H_    0.488984 0.029240 0.086000 0.228767
C50   C     C_3   0.635404 0.470340 0.228055 -0.429808
C51   C     C_3   0.752918 0.546029 0.249016 -0.378141
C52   C     C_3   0.840661 0.495985 0.348598 -0.732485
H33   H     H_    0.784790 0.459503 0.411281 0.249280
H34   H     H_    0.918967 0.554056 0.364497 0.249101
H35   H     H_    0.885746 0.438492 0.344240 0.305615
H36   H     H_    0.809904 0.577585 0.187149 0.237509
H37   H     H_    0.720815 0.609586 0.253539 0.228257
H38   H     H_    0.573650 0.445420 0.285965 0.188983
H39   H     H_    0.675361 0.405015 0.234976 0.254334
S5    S     S_3+6 0.452288 0.827809 0.036364 -0.068640
O21   O     O_2   0.379310 0.750356 0.117109 -0.315867
O22   O     O_2   0.582937 0.865198 0.083467 -0.381446
O23   O     O_3   0.368059 0.925253 0.968692 -0.514295
H40   H     H_    0.433109 0.985177 0.941915 0.351435
S6    S     S_3+6 0.814604 0.456743 0.748504 0.024154
O24   O     O_2   0.796138 0.354745 0.833107 -0.290752
O25   O     O_2   0.947784 0.476712 0.724794 -0.234303
O26   O     O_3   0.799072 0.545125 0.786046 -0.556396
H41   H     H_    0.860631 0.533744 0.850334 0.370792
C53   C     C_3   0.214979 0.866590 0.311151 -0.406185
C54   C     C_3   0.173819 0.888795 0.197421 -0.430289
C55   C     C_3   0.127960 0.991909 0.137960 -0.783031
H42   H     H_    0.045197 0.995307 0.167065 0.245654
H43   H     H_    0.207549 0.053579 0.143827 0.252407
H44   H     H_    0.096283 0.003830 0.057362 0.269637
H45   H     H_    0.253974 0.885494 0.165686 0.272566
H46   H     H_    0.092264 0.830490 0.185910 0.228568
H47   H     H_    0.125639 0.837024 0.344029 0.206429
H48   H     H_    0.254438 0.938175 0.319166 0.250216
C56   C     C_3   0.760510 0.122207 0.708886 -0.365685
C57   C     C_3   0.719372 0.087054 0.811629 -0.354946
C58   C     C_3   0.783946 0.998774 0.892884 -0.827127
H49   H     H_    0.757922 0.933071 0.870944 0.258078
H50   H     H_    0.890371 0.021183 0.905831 0.261546
H51   H     H_    0.749919 0.976634 0.964420 0.285640
H52   H     H_    0.744614 0.150130 0.837901 0.260242
H53   H     H_    0.613182 0.064917 0.803702 0.237991
H54   H     H_    0.746448 0.059148 0.685817 0.234597
H55   H     H_    0.866796 0.147544 0.716959 0.209575
C59   C     C_3   0.910627 0.896494 0.700147 -0.506471
C60   C     C_3   0.977337 0.895222 0.804566 -0.297998
C61   C     C_3   0.926161 0.799063 0.887955 -0.806192
H56   H     H_    0.819135 0.788887 0.877490 0.244209
H57   H     H_    0.954619 0.731870 0.887598 0.265442
H58   H     H_    0.967777 0.803855 0.962193 0.257198
H59   H     H_    0.083273 0.897983 0.815669 0.272565
H60   H     H_    0.960639 0.962679 0.811396 0.245166
H61   H     H_    0.805278 0.893206 0.693831 0.194186
H62   H     H_    0.924558 0.826720 0.696890 0.265903

loop_
_geom_bond_atom_site_label_1
_geom_bond_atom_site_label_2
_ccdc_geom_bond_type
C48   H30   S    
C42   S1    S    
O17   H24   S    
C40   N2    A    
C12   O3    A    
C44   H18   S    
S4    O18   D    
Cu2   O4    S    
C23   O5    A    
O26   H41   S    
C56   H54   S    
C52   H34   S    
C3    H1    S    
S4    O20   S    
C18   H4    S    
O23   H40   S    
C45   C46   S    
C7    C11   A    
C39   H16   S    
C48   C49   S    
C30   C35   A    
C1    C5    S    
C60   H60   S    
Cu2   O8    S    
C28   C29   A    
C19   C21   A    
Cu1   O5    S    
C21   S5    S    
C26   C56   S    
C27   H12   S    
C30   C31   A    
C34   O8    A    
C15   C16   A    
C6    C22   A    
C29   C33   A    
C49   H28   S    
C18   C19   A    
C42   C46   S    
C50   C51   S    
C4    H21   S    
C20   C24   A    
C44   C46   S    
C55   H42   S    
C16   S4    S    
C45   H19   S    
S6    O26   S    
C60   C61   S    
C51   H36   S    
C9    C10   A    
S5    O23   S    
C41   N2    A    
C2    C34   S    
C47   H32   S    
C21   C22   A    
C17   C50   S    
C24   H2    S    
C58   H51   S    
C50   H38   S    
S1    O11   S    
C53   H48   S    
C52   H33   S    
S5    O22   D    
C4    C45   S    
S2    O13   D    
C25   C29   A    
C3    C44   S    
C47   H31   S    
C1    O1    A    
C59   H62   S    
Cu1   Cu2   S    
C14   C20   A    
C7    C8    A    
C56   C57   S    
C38   C41   A    
S1    O10   D    
C54   H45   S    
C39   C40   A    
C4    S2    S    
C25   C26   A    
S2    O12   D    
C35   C36   A    
Cu2   O6    S    
C2    C4    S    
C5    C9    A    
C37   C38   A    
C54   H46   S    
C42   H7    S    
C11   C16   A    
S3    O16   D    
O11   H22   S    
C61   H58   S    
C2    C43   S    
C43   H17   S    
C6    C24   A    
C45   H20   S    
C33   S6    S    
C17   C18   A    
C60   H59   S    
C23   O6    A    
C49   H27   S    
Cu1   N2    S    
C27   N1    A    
C57   H52   S    
C12   C46   S    
C61   H57   S    
S6    O24   D    
C26   N1    A    
C58   H50   S    
C42   C43   S    
C7    H5    S    
C54   C55   S    
C53   H47   S    
C44   S3    S    
S5    O21   D    
C43   H13   S    
S3    O17   S    
S2    O14   S    
C48   H29   S    
C40   C53   S    
C36   C37   A    
C3    C59   S    
C59   H61   S    
C51   C52   S    
C14   C15   A    
Cu2   O2    S    
C31   C32   A    
Cu1   O3    S    
Cu2   N1    S    
S1    O9    D    
C10   C13   A    
C50   H39   S    
C5    C8    A    
S4    O19   D    
C9    H6    S    
C36   H10   S    
C59   C60   S    
C31   C38   A    
C13   C17   A    
C51   H37   S    
C1    O2    A    
C32   C33   A    
C19   C20   A    
C28   C30   A    
C2    C3    S    
C8    C47   S    
C41   H9    S    
C37   C39   A    
C57   C58   S    
C34   O7    A    
S3    O15   D    
C55   H44   S    
C6    C23   S    
C47   C48   S    
C53   C54   S    
C49   H26   S    
C15   H8    S    
Cu1   O1    S    
C10   C11   A    
C57   H53   S    
C32   H14   S    
O14   H23   S    
C55   H43   S    
O20   H25   S    
C12   O4    A    
C27   C28   A    
S6    O25   D    
C58   H49   S    
C35   H15   S    
C61   H56   S    
C25   H11   S    
Cu1   O7    S    
C13   C14   A    
C56   H55   S    
C52   H35   S    
C22   H3    S    
