data_mof_unit_66285.cif
_audit_creation_date              2013-03-05T16:26:05-0500
_audit_creation_method            fapswitch 2.2
_symmetry_space_group_name_H-M    P1
_symmetry_Int_Tables_number       1
_space_group_crystal_system       triclinic
_cell_length_a                    28.109121
_cell_length_b                    26.214788
_cell_length_c                    18.443654
_cell_angle_alpha                 87.537251
_cell_angle_beta                  90.351325
_cell_angle_gamma                 89.960895
_cell_volume                      13577.8469547

loop_
_atom_site_label
_atom_site_type_symbol
_atom_site_description
_atom_site_fract_x
_atom_site_fract_y
_atom_site_fract_z
_atom_type_partial_charge
O1    O     O_R   0.050940 0.449070 0.560830 -0.547928
O2    O     O_R   0.949060 0.550930 0.439170 -0.547254
O3    O     O_R   0.949060 0.550930 0.560830 -0.578991
O4    O     O_R   0.050940 0.449070 0.439170 -0.578606
O5    O     O_R   0.949060 0.449070 0.439170 -0.581404
O6    O     O_R   0.050940 0.550930 0.560830 -0.581787
O7    O     O_R   0.050940 0.550930 0.439170 -0.550600
O8    O     O_R   0.949060 0.449070 0.560830 -0.553360
O9    O     O_R   0.550940 0.949070 0.560830 -0.580062
O10   O     O_R   0.449060 0.050930 0.439170 -0.554880
O11   O     O_R   0.449060 0.050930 0.560830 -0.579018
O12   O     O_R   0.550940 0.949070 0.439170 -0.550758
O13   O     O_R   0.449060 0.949070 0.439170 -0.579317
O14   O     O_R   0.550940 0.050930 0.560830 -0.549409
O15   O     O_R   0.550940 0.050930 0.439170 -0.581605
O16   O     O_R   0.449060 0.949070 0.560830 -0.554949
C1    C     C_R   0.069128 0.434411 0.501295 0.953164
C2    C     C_R   0.931291 0.566323 0.498982 0.953196
C3    C     C_R   0.930261 0.435231 0.500266 0.949252
C4    C     C_R   0.069172 0.565533 0.499076 0.947402
C5    C     C_R   0.569308 0.934670 0.500916 0.958573
C6    C     C_R   0.431017 0.065804 0.498628 0.959760
C7    C     C_R   0.431090 0.934098 0.501105 0.963176
C8    C     C_R   0.568778 0.066095 0.499583 0.966789
C9    C     C_R   0.002554 0.451478 0.200573 -0.225944
C10   C     C_R   0.007121 0.546972 0.800279 -0.229147
C11   C     C_R   0.000441 0.542162 0.190410 -0.243259
C12   C     C_R   0.998551 0.456630 0.808686 -0.239832
C13   C     C_R   0.487765 0.956715 0.197684 -0.231873
C14   C     C_R   0.487231 0.042655 0.802464 -0.232159
C15   C     C_R   0.513958 0.043208 0.193058 -0.232681
C16   C     C_R   0.514607 0.956537 0.806909 -0.231190
H1    H     H_    0.003900 0.414614 0.176308 0.204769
H2    H     H_    0.010998 0.583383 0.825282 0.205564
H3    H     H_    0.999889 0.577066 0.157006 0.222374
H4    H     H_    0.996134 0.421396 0.841183 0.221016
H5    H     H_    0.477684 0.922362 0.170840 0.214071
H6    H     H_    0.476720 0.076760 0.829414 0.214683
H7    H     H_    0.524409 0.077531 0.162457 0.214897
H8    H     H_    0.525560 0.922254 0.837419 0.214073
Zn1   Zn    Zn3+2 0.000000 0.500000 0.581210 1.153302
Zn2   Zn    Zn3+2 0.000000 0.500000 0.418790 1.154796
Zn3   Zn    Zn3+2 0.500000 0.000000 0.581210 1.155652
Zn4   Zn    Zn3+2 0.500000 1.000000 0.418790 1.154202
N1    N     N_R   0.000000 0.500000 0.310560 -0.190298
N2    N     N_R   0.000000 0.500000 0.689440 -0.191998
N3    N     N_R   0.500000 0.000000 0.310560 -0.190982
N4    N     N_R   0.500000 0.000000 0.689440 -0.190405
N5    N     N_R   0.005720 0.542324 0.035201 -0.138529
N6    N     N_R   0.002781 0.455337 0.964774 -0.137735
N7    N     N_R   0.002308 0.453430 0.037313 -0.130442
N8    N     N_R   0.006228 0.544232 0.962721 -0.131335
N9    N     N_R   0.501439 0.044236 0.033439 -0.132728
N10   N     N_R   0.502014 0.955037 0.966640 -0.132400
N11   N     N_R   0.501788 0.955181 0.039135 -0.132883
N12   N     N_R   0.501277 0.044090 0.960961 -0.132999
C17   C     C_R   0.001431 0.453874 0.277273 0.432755
C18   C     C_R   0.005203 0.545482 0.723530 0.430716
C19   C     C_R   0.999657 0.544713 0.266485 0.414271
C20   C     C_R   0.996057 0.455203 0.732543 0.416795
C21   C     C_R   0.487178 0.956845 0.274263 0.429146
C22   C     C_R   0.486623 0.042841 0.725873 0.428942
C23   C     C_R   0.513440 0.043095 0.269758 0.420131
C24   C     C_R   0.514051 0.956960 0.730170 0.421288
C25   C     C_R   0.869200 0.376228 0.559534 0.290654
C26   C     C_R   0.125801 0.625339 0.433096 0.300667
C27   C     C_R   0.145297 0.594718 0.556867 0.301502
C28   C     C_R   0.859104 0.404146 0.431994 0.311992
C29   C     C_R   0.144916 0.404921 0.444660 0.300032
C30   C     C_R   0.866674 0.611556 0.563187 0.304808
C31   C     C_R   0.884931 0.638818 0.437842 0.283867
C32   C     C_R   0.126045 0.374899 0.568649 0.304367
C33   C     C_R   0.384396 0.864454 0.566376 0.290149
C34   C     C_R   0.636273 0.110988 0.435296 0.298828
C35   C     C_R   0.614619 0.136135 0.557203 0.288374
C36   C     C_R   0.363715 0.889809 0.440789 0.297773
C37   C     C_R   0.625969 0.873626 0.444406 0.297024
C38   C     C_R   0.363281 0.108870 0.558351 0.298861
C39   C     C_R   0.383879 0.135711 0.433711 0.286930
C40   C     C_R   0.644009 0.904446 0.565118 0.304427
C41   C     C_R   0.830332 0.343978 0.552342 -0.171822
C42   C     C_R   0.166571 0.655003 0.432280 -0.173372
C43   C     C_R   0.185647 0.625838 0.554875 -0.180510
C44   C     C_R   0.821460 0.370076 0.425959 -0.177492
C45   C     C_R   0.185261 0.373824 0.447204 -0.180970
C46   C     C_R   0.839725 0.655818 0.569924 -0.176788
C47   C     C_R   0.857913 0.682548 0.446356 -0.181783
C48   C     C_R   0.166812 0.345088 0.569898 -0.175261
C49   C     C_R   0.357165 0.820583 0.560536 -0.185192
C50   C     C_R   0.664122 0.155123 0.427241 -0.169651
C51   C     C_R   0.642118 0.179666 0.547193 -0.187061
C52   C     C_R   0.336661 0.845340 0.436585 -0.165935
C53   C     C_R   0.665572 0.842094 0.450401 -0.175174
C54   C     C_R   0.336126 0.153186 0.563221 -0.165902
C55   C     C_R   0.356523 0.179455 0.440144 -0.186639
C56   C     C_R   0.682658 0.870989 0.570364 -0.169608
H9    H     H_    0.818292 0.321413 0.599329 0.202986
H10   H     H_    0.174603 0.677725 0.383424 0.202317
H11   H     H_    0.209415 0.625287 0.601361 0.203622
H12   H     H_    0.801696 0.368825 0.375412 0.200948
H13   H     H_    0.208695 0.374137 0.400775 0.203388
H14   H     H_    0.820174 0.661016 0.619491 0.205610
H15   H     H_    0.852924 0.708745 0.399906 0.209588
H16   H     H_    0.175134 0.322496 0.618922 0.202100
H17   H     H_    0.352639 0.795440 0.608138 0.208459
H18   H     H_    0.685678 0.161092 0.379172 0.209120
H19   H     H_    0.646071 0.204521 0.592244 0.209945
H20   H     H_    0.315787 0.839411 0.388148 0.209866
H21   H     H_    0.674602 0.818796 0.405290 0.199975
H22   H     H_    0.315292 0.158485 0.611502 0.209901
H23   H     H_    0.351887 0.205142 0.393047 0.208517
H24   H     H_    0.706017 0.871101 0.617328 0.202564
C57   C     C_R   0.807099 0.340258 0.485817 -0.046041
C58   C     C_R   0.196237 0.656152 0.492910 -0.046194
C59   C     C_R   0.196125 0.343643 0.509392 -0.045424
C60   C     C_R   0.835771 0.691710 0.512073 -0.043582
C61   C     C_R   0.334218 0.810097 0.495646 -0.047526
C62   C     C_R   0.666404 0.189945 0.482498 -0.045987
C63   C     C_R   0.693552 0.840356 0.513041 -0.045442
C64   C     C_R   0.333633 0.189147 0.505009 -0.047585
C65   C     C_R   0.004645 0.500693 0.925589 0.372314
C66   C     C_R   0.003606 0.497020 0.074425 0.372038
C67   C     C_R   0.501623 0.999503 0.925705 0.370162
C68   C     C_R   0.501554 0.999782 0.074381 0.369914
C69   C     C_R   0.885593 0.405387 0.498249 -0.273043
C70   C     C_R   0.113518 0.595799 0.496534 -0.268340
C71   C     C_R   0.113473 0.404158 0.504753 -0.268089
C72   C     C_R   0.892492 0.604426 0.498320 -0.259510
C73   C     C_R   0.391624 0.897026 0.503793 -0.259123
C74   C     C_R   0.607965 0.103529 0.498426 -0.253944
C75   C     C_R   0.613396 0.903969 0.503269 -0.268860
C76   C     C_R   0.391242 0.102517 0.495682 -0.258164
N13   N     N_R   0.759845 0.279036 0.419901 -0.130322
N14   N     N_R   0.260669 0.700550 0.553730 -0.140374
N15   N     N_R   0.247692 0.718368 0.429980 -0.142735
N16   N     N_R   0.738682 0.297233 0.538483 -0.137815
N17   N     N_R   0.246856 0.279816 0.571614 -0.142668
N18   N     N_R   0.792655 0.763284 0.454721 -0.144822
N19   N     N_R   0.780705 0.745336 0.578513 -0.140124
N20   N     N_R   0.260797 0.300113 0.449002 -0.141474
N21   N     N_R   0.280230 0.754944 0.430453 -0.139664
N22   N     N_R   0.705184 0.261856 0.537287 -0.146593
N23   N     N_R   0.726348 0.243256 0.418935 -0.139104
N24   N     N_R   0.293276 0.737132 0.554185 -0.143394
N25   N     N_R   0.746887 0.780824 0.578754 -0.130562
N26   N     N_R   0.293289 0.263406 0.448106 -0.143793
N27   N     N_R   0.279293 0.243109 0.570701 -0.139972
N28   N     N_R   0.758831 0.798421 0.454811 -0.136070
C77   C     C_R   0.236729 0.691119 0.491799 0.353229
C78   C     C_R   0.767006 0.305825 0.480330 0.344070
C79   C     C_R   0.803614 0.735386 0.516075 0.350387
C80   C     C_R   0.236445 0.308394 0.510533 0.353838
C81   C     C_R   0.698898 0.233550 0.478204 0.351569
C82   C     C_R   0.303005 0.765600 0.492870 0.355260
C83   C     C_R   0.302488 0.233648 0.508579 0.355373
C84   C     C_R   0.734879 0.807138 0.516432 0.343362
C85   C     C_R   0.002188 0.496202 0.156082 -0.038474
C86   C     C_R   0.003809 0.501976 0.843924 -0.038782
C87   C     C_R   0.501147 0.999920 0.155920 -0.040647
C88   C     C_R   0.501200 0.999498 0.844150 -0.040549
N29   N     N_R   0.002529 0.407006 0.319541 0.222978
O17   O     O_R   0.042493 0.382142 0.325775 -0.331992
O18   O     O_R   0.963038 0.382051 0.329963 -0.334210
N30   N     N_R   0.008333 0.592590 0.682121 0.222633
O19   O     O_R   0.969403 0.617290 0.665405 -0.344046
O20   O     O_R   0.048261 0.617616 0.681966 -0.330602
N31   N     N_R   0.999127 0.595751 0.293708 0.268782
O21   O     O_R   0.999340 0.604481 0.361949 -0.303585
O22   O     O_R   0.999940 0.635463 0.248762 -0.279148
N32   N     N_R   0.987996 0.405430 0.703958 0.261530
O23   O     O_R   0.000888 0.394236 0.639490 -0.297878
O24   O     O_R   0.973783 0.367896 0.747037 -0.282614
N33   N     N_R   0.472536 0.910699 0.312258 0.228963
O25   O     O_R   0.500287 0.888886 0.360727 -0.311618
O26   O     O_R   0.438124 0.883854 0.285852 -0.331704
N34   N     N_R   0.471396 0.088988 0.688065 0.230625
O27   O     O_R   0.437232 0.115810 0.714727 -0.332217
O28   O     O_R   0.498211 0.110612 0.638767 -0.323591
N35   N     N_R   0.527535 0.089103 0.303259 0.229685
O29   O     O_R   0.500344 0.109037 0.351026 -0.322205
O30   O     O_R   0.560908 0.117361 0.273987 -0.329251
N36   N     N_R   0.528749 0.911319 0.696506 0.230756
O31   O     O_R   0.501338 0.890680 0.649174 -0.319040
O32   O     O_R   0.563179 0.883947 0.725288 -0.325410
N37   N     N_R   0.890339 0.379073 0.629918 0.241512
O33   O     O_R   0.886597 0.421323 0.663957 -0.294505
O34   O     O_R   0.898494 0.336836 0.667600 -0.286177
N38   N     N_R   0.098011 0.625834 0.368002 0.241235
O35   O     O_R   0.103523 0.588854 0.323964 -0.302665
O36   O     O_R   0.080947 0.669154 0.342392 -0.288191
N39   N     N_R   0.139248 0.559862 0.618287 0.238764
O37   O     O_R   0.135337 0.511236 0.608228 -0.352277
O38   O     O_R   0.148289 0.574746 0.683347 -0.308643
N40   N     N_R   0.867168 0.440008 0.372350 0.238593
O39   O     O_R   0.866660 0.488607 0.383700 -0.331154
O40   O     O_R   0.864422 0.425281 0.305963 -0.317421
N41   N     N_R   0.138362 0.439247 0.382656 0.238165
O41   O     O_R   0.135220 0.488070 0.391684 -0.350746
O42   O     O_R   0.145861 0.423433 0.317788 -0.310899
N42   N     N_R   0.865203 0.572918 0.620900 0.241609
O43   O     O_R   0.859520 0.525260 0.605809 -0.338168
O44   O     O_R   0.861780 0.585761 0.688053 -0.314340
N43   N     N_R   0.902330 0.629734 0.366633 0.244928
O45   O     O_R   0.890740 0.587731 0.335943 -0.291035
O46   O     O_R   0.917105 0.668121 0.325685 -0.290000
N44   N     N_R   0.098429 0.374616 0.633516 0.242160
O47   O     O_R   0.102724 0.412500 0.676391 -0.301546
O48   O     O_R   0.082057 0.331339 0.660015 -0.297661
N45   N     N_R   0.401619 0.876317 0.637159 0.248453
O49   O     O_R   0.390223 0.919777 0.663886 -0.289286
O50   O     O_R   0.416536 0.839649 0.681455 -0.313368
N46   N     N_R   0.640349 0.072340 0.382403 0.241495
O51   O     O_R   0.640279 0.024278 0.403310 -0.349514
O52   O     O_R   0.653850 0.084668 0.316590 -0.300168
N47   N     N_R   0.596421 0.124898 0.628731 0.249130
O53   O     O_R   0.608057 0.082098 0.662572 -0.284330
O54   O     O_R   0.580865 0.162009 0.666911 -0.314722
N48   N     N_R   0.359270 0.928993 0.383876 0.242094
O55   O     O_R   0.359449 0.976856 0.399933 -0.332114
O56   O     O_R   0.345317 0.917358 0.319230 -0.298314
N49   N     N_R   0.600369 0.875099 0.377005 0.244810
O57   O     O_R   0.604427 0.915091 0.333186 -0.300688
O58   O     O_R   0.586043 0.832429 0.350690 -0.309393
N50   N     N_R   0.359009 0.069006 0.614228 0.241803
O59   O     O_R   0.359348 0.021399 0.596922 -0.333231
O60   O     O_R   0.345172 0.079782 0.679029 -0.298742
N51   N     N_R   0.401105 0.124596 0.362966 0.249081
O61   O     O_R   0.390177 0.081232 0.335392 -0.289566
O62   O     O_R   0.415673 0.161717 0.319495 -0.313672
N52   N     N_R   0.639663 0.942142 0.618950 0.237310
O63   O     O_R   0.636164 0.990025 0.598190 -0.342758
O64   O     O_R   0.651342 0.930736 0.686089 -0.301413

loop_
_geom_bond_atom_site_label_1
_geom_bond_atom_site_label_2
_geom_bond_distance
_ccdc_geom_bond_type
C48   H16   1.083611 S    
N40   O40   1.301422 A    
N10   C67   1.361313 A    
C25   N37   1.429224 S    
C27   C43   1.397309 A    
C44   C57   1.387281 A    
C26   N38   1.427890 S    
O2    C2    1.293827 A    
C56   C63   1.390311 A    
N43   O45   1.300276 A    
C18   N30   1.426876 S    
N50   O59   1.301427 A    
N29   O17   1.300382 A    
N48   O55   1.301521 A    
C29   C45   1.395591 A    
C13   C87   1.395263 A    
N33   O25   1.296732 A    
O10   C6    1.286518 A    
C14   C88   1.395054 A    
N43   O46   1.301764 A    
C53   C63   1.392734 A    
O13   C7    1.297252 A    
C63   C84   1.450755 S    
N2    C20   1.394404 A    
C41   H9    1.084119 S    
O3    C2    1.291008 A    
C50   C62   1.398315 A    
C33   N45   1.436234 S    
N30   O19   1.299825 A    
O2    Zn2   2.005302 S    
O15   Zn4   2.003309 S    
N47   O54   1.302146 A    
C14   C22   1.412409 A    
N3    C23   1.384321 A    
N44   O48   1.301362 A    
N21   C82   1.353490 A    
N37   O34   1.301186 A    
N19   N25   1.329811 A    
C67   C88   1.504153 S    
C39   C76   1.420491 A    
C68   C87   1.504161 S    
C23   N35   1.433567 S    
C7    C73   1.474995 S    
C62   C81   1.463481 S    
C46   C60   1.395786 A    
C37   C75   1.419438 A    
O7    Zn2   2.003309 S    
O14   C8    1.286119 A    
N41   O42   1.301249 A    
C38   C76   1.417371 A    
N36   O31   1.296664 A    
C5    C75   1.476621 S    
N16   N22   1.322826 A    
C32   C48   1.386118 A    
N10   N11   1.337298 A    
N25   C84   1.355653 A    
C54   C64   1.399381 A    
C10   H2    1.083043 S    
O3    Zn1   1.980348 S    
N26   C83   1.356777 A    
N32   O24   1.302415 A    
N38   O36   1.301237 A    
N18   N28   1.323397 A    
N42   O43   1.301340 A    
O6    Zn1   1.984991 S    
C59   C80   1.461285 S    
C13   H5    1.083225 S    
Zn1   N2    1.996155 S    
N17   C80   1.356159 A    
O11   Zn3   1.980348 S    
C40   C56   1.396066 A    
N27   C83   1.353785 A    
Zn3   N4    1.996155 S    
N20   C80   1.354292 A    
C35   C74   1.420631 A    
C35   C51   1.385155 A    
C2    C72   1.478025 S    
O14   Zn3   1.984991 S    
C12   C20   1.407768 A    
N40   O39   1.300029 A    
N35   O30   1.301143 A    
C40   C75   1.425161 A    
C43   H11   1.083302 S    
N2    C18   1.379072 A    
C29   N41   1.435342 S    
C42   H10   1.083659 S    
C43   C58   1.397396 A    
N41   O41   1.300769 A    
N6    C65   1.365826 A    
C9    C17   1.419251 A    
C39   N51   1.436001 S    
N29   O18   1.299981 A    
C52   H20   1.082667 S    
N6    N7    1.336816 A    
C33   C73   1.421656 A    
N33   O26   1.301049 A    
N1    C17   1.380108 A    
C13   C21   1.412741 A    
O9    Zn3   2.005302 S    
O8    C3    1.298628 A    
N13   N23   1.330082 A    
C32   C71   1.420872 A    
O10   Zn4   2.005302 S    
N39   O37   1.300641 A    
C28   C44   1.392182 A    
N12   C67   1.361785 A    
C15   C23   1.414661 A    
C45   C59   1.397197 A    
C21   N33   1.433611 S    
O8    Zn1   2.003312 S    
C16   C24   1.414892 A    
N31   O22   1.302898 A    
C27   C70   1.421999 A    
C36   N48   1.441585 S    
N31   O21   1.288857 A    
N44   O47   1.301026 A    
C1    C71   1.476527 S    
N19   C79   1.357765 A    
C32   N44   1.429889 S    
C29   C71   1.421309 A    
C11   H3    1.080947 S    
N15   C77   1.356404 A    
N14   C77   1.354160 A    
O12   C5    1.289014 A    
C54   H22   1.082667 S    
C64   C83   1.462044 S    
C26   C70   1.419611 A    
C34   N46   1.441329 S    
N38   O35   1.300963 A    
Zn2   N1    1.996155 S    
C44   H12   1.084027 S    
C39   C55   1.389973 A    
C31   N43   1.433670 S    
N47   O53   1.300878 A    
N39   O38   1.301291 A    
C4    C70   1.477980 S    
N49   O57   1.301434 A    
C51   H19   1.082941 S    
C26   C42   1.385156 A    
C56   H24   1.083806 S    
N8    C65   1.356681 A    
N48   O56   1.301595 A    
N51   O61   1.301335 A    
C9    H1    1.083041 S    
C28   N40   1.435207 S    
N5    N8    1.335742 A    
C22   N34   1.433880 S    
C36   C73   1.417552 A    
C12   C86   1.386649 A    
N45   O49   1.301270 A    
C51   C62   1.394615 A    
O13   Zn4   1.984995 S    
N52   O64   1.301383 A    
C10   C18   1.418453 A    
O16   Zn3   2.003312 S    
C42   C58   1.392194 A    
C47   C60   1.395797 A    
N23   C81   1.357104 A    
C36   C52   1.396980 A    
C52   C61   1.399785 A    
C31   C47   1.389720 A    
O4    C1    1.294851 A    
N42   O44   1.301465 A    
O1    Zn1   2.005302 S    
O15   C8    1.297108 A    
N51   O62   1.301921 A    
N46   O52   1.301524 A    
C49   C61   1.393914 A    
O16   C7    1.285761 A    
C65   C86   1.505186 S    
C34   C74   1.420946 A    
C9    C85   1.401887 A    
N18   C79   1.354454 A    
C47   H15   1.083074 S    
C31   C72   1.418663 A    
N20   N26   1.326926 A    
C30   C46   1.395704 A    
N4    C22   1.386214 A    
C45   H13   1.083316 S    
O5    Zn2   1.984995 S    
N9    N12   1.336920 A    
C30   C72   1.422191 A    
N11   C68   1.361999 A    
N1    C19   1.397445 A    
C30   N42   1.438266 S    
C6    C76   1.473951 S    
C57   C78   1.450149 S    
N17   N27   1.325871 A    
N13   C78   1.356673 A    
C40   N52   1.436270 S    
N34   O27   1.301161 A    
N9    C68   1.361099 A    
N50   O60   1.301578 A    
N3    C21   1.385846 A    
N16   C78   1.350909 A    
Zn4   N3    1.996155 S    
O5    C3    1.285706 A    
C55   C64   1.394675 A    
C11   C85   1.385890 A    
O6    C4    1.294755 A    
O11   C6    1.295983 A    
O1    C1    1.287483 A    
C58   C77   1.461592 S    
C20   N32   1.445646 S    
C49   H17   1.083155 S    
C34   C50   1.400517 A    
C48   C59   1.393044 A    
N30   O20   1.300360 A    
C24   N36   1.433208 S    
C33   C49   1.389582 A    
N49   O58   1.301473 A    
C11   C19   1.407867 A    
O9    C5    1.293343 A    
N37   O33   1.300898 A    
O4    Zn2   1.980347 S    
C38   C54   1.396044 A    
N5    C66   1.365334 A    
C19   N31   1.449220 S    
C37   C53   1.387113 A    
C35   N47   1.436626 S    
C66   C85   1.506065 S    
C3    C69   1.480935 S    
C10   C86   1.402642 A    
C27   N39   1.435524 S    
C16   H8    1.083145 S    
N22   C81   1.355196 A    
N24   C82   1.357258 A    
N52   O63   1.300006 A    
N36   O32   1.301263 A    
N4    C24   1.384289 A    
C50   H18   1.082769 S    
N14   N24   1.327249 A    
N35   O29   1.296419 A    
C8    C74   1.475378 S    
C38   N50   1.441423 S    
N15   N21   1.325818 A    
C17   N29   1.426734 S    
N46   O51   1.301670 A    
C12   H4    1.081666 S    
O12   Zn4   1.980347 S    
O7    C4    1.288271 A    
N32   O23   1.290862 A    
C41   C57   1.393545 A    
C61   C82   1.462548 S    
C15   H7    1.083114 S    
N7    C66   1.357423 A    
N45   O50   1.301934 A    
C25   C41   1.391072 A    
C37   N49   1.431627 S    
C55   H23   1.083122 S    
N28   C84   1.352278 A    
C14   H6    1.083203 S    
C25   C69   1.416645 A    
C28   C69   1.428629 A    
C60   C79   1.462899 S    
C15   C87   1.396767 A    
C53   H21   1.084308 S    
N34   O28   1.296493 A    
C16   C88   1.396865 A    
C46   H14   1.083095 S    
