data_mof_unit_27976.cif
_audit_creation_date              2012-12-11T15:39:10-0500
_audit_creation_method            fapswitch 2.2
_symmetry_space_group_name_H-M    P1
_symmetry_Int_Tables_number       1
_space_group_crystal_system       triclinic
_cell_length_a                    17.39833
_cell_length_b                    24.149249
_cell_length_c                    15.082328
_cell_angle_alpha                 90.321478
_cell_angle_beta                  125.216215
_cell_angle_gamma                 89.962348
_cell_volume                      5177.05669982

loop_
_atom_site_label
_atom_site_type_symbol
_atom_type_description
_atom_site_fract_x
_atom_site_fract_y
_atom_site_fract_z
_atom_type_partial_charge
C1    C     C_R   0.349873 0.347913 0.908762 -0.111470
C2    C     C_R   0.689616 0.375330 0.090967 -0.125069
C3    C     C_R   0.849878 0.847912 0.908759 -0.111430
C4    C     C_R   0.189617 0.875331 0.090967 -0.125070
C5    C     C_R   0.390573 0.686654 0.003692 0.061956
C6    C     C_R   0.688882 0.633396 0.996882 0.044167
C7    C     C_R   0.890581 0.186656 0.003695 0.061932
C8    C     C_R   0.188891 0.133383 0.996900 0.044093
C9    C     C_R   0.467018 0.501842 0.291615 0.018155
C10   C     C_R   0.432136 0.501808 0.634174 0.010063
C11   C     C_R   0.966998 0.001841 0.291595 0.018183
C12   C     C_R   0.932141 0.001808 0.634175 0.010049
C13   C     C_R   0.175716 0.497680 0.717079 -0.007067
C14   C     C_R   0.798367 0.497227 0.364393 0.018999
C15   C     C_R   0.675716 0.997680 0.717072 -0.007089
C16   C     C_R   0.298370 0.997227 0.364389 0.018973
C17   C     C_R   0.009024 0.497325 0.645313 -0.079061
C18   C     C_R   0.918121 0.497871 0.560545 -0.102093
C19   C     C_R   0.509026 0.997297 0.645304 -0.079037
C20   C     C_R   0.418124 0.997844 0.560536 -0.102055
C21   C     C_R   0.079956 0.492991 0.630287 0.081225
C22   C     C_R   0.892579 0.494270 0.455267 0.073844
C23   C     C_R   0.579959 0.992991 0.630275 0.081201
C24   C     C_R   0.392584 0.994272 0.455257 0.073852
C25   C     C_R   0.056551 0.486916 0.524745 -0.173683
C26   C     C_R   0.962551 0.487629 0.436961 -0.192379
C27   C     C_R   0.556557 0.986944 0.524730 -0.173678
C28   C     C_R   0.462557 0.987658 0.436946 -0.192390
C29   C     C_3   0.883509 0.506095 0.629941 0.457291
C30   C     C_3   0.987970 0.506124 0.726970 0.501779
C31   C     C_3   0.383509 0.006038 0.629936 0.457266
C32   C     C_3   0.487970 0.006066 0.726967 0.501753
C33   C     C_R   0.282785 0.762772 0.901846 -0.192937
C34   C     C_R   0.831058 0.690290 0.098668 -0.209817
C35   C     C_R   0.782792 0.262774 0.901847 -0.192942
C36   C     C_R   0.330894 0.190400 0.098705 -0.209807
C37   C     C_R   0.731534 0.306709 0.899510 -0.154185
C38   C     C_R   0.374446 0.237813 0.099106 -0.166865
C39   C     C_R   0.231530 0.806709 0.899507 -0.154182
C40   C     C_R   0.874617 0.737712 0.099083 -0.166831
C41   C     C_R   0.758997 0.333291 0.996115 0.099812
C42   C     C_R   0.354383 0.258638 0.001776 0.122092
C43   C     C_R   0.258996 0.833292 0.996113 0.099807
C44   C     C_R   0.854408 0.758612 0.001732 0.122082
C45   C     C_R   0.443495 0.652417 0.091936 -0.154778
C46   C     C_R   0.597218 0.624421 0.907596 -0.116889
C47   C     C_R   0.943503 0.152419 0.091938 -0.154754
C48   C     C_R   0.097228 0.124418 0.907603 -0.116659
C49   C     C_R   0.848464 0.323183 0.090670 -0.216444
C50   C     C_R   0.305021 0.225581 0.907960 -0.254695
C51   C     C_R   0.348463 0.823184 0.090667 -0.216446
C52   C     C_R   0.804917 0.725604 0.907855 -0.254730
C53   C     C_R   0.403314 0.779678 0.093547 0.236079
C54   C     C_R   0.761800 0.676218 0.906670 0.223827
C55   C     C_R   0.903318 0.279678 0.093550 0.236077
C56   C     C_R   0.261905 0.176198 0.906796 0.223736
C57   C     C_R   0.363551 0.744881 0.000479 0.049480
C58   C     C_R   0.764398 0.663399 0.000412 0.108335
C59   C     C_R   0.863558 0.244883 0.000482 0.049482
C60   C     C_R   0.264385 0.163433 0.000482 0.108301
C61   C     C_R   0.482198 0.545772 0.532761 -0.183384
C62   C     C_R   0.491378 0.546080 0.448966 -0.171159
C63   C     C_R   0.982184 0.045775 0.532745 -0.183241
C64   C     C_R   0.991355 0.046084 0.448943 -0.171137
C65   C     C_R   0.442704 0.506846 0.366385 0.167912
C66   C     C_R   0.423895 0.506436 0.534216 0.149159
C67   C     C_R   0.942684 0.006847 0.366366 0.167878
C68   C     C_R   0.923890 0.006436 0.534210 0.149110
C69   C     C_R   0.378425 0.470373 0.361818 -0.174219
C70   C     C_R   0.368314 0.470454 0.446218 -0.206324
C71   C     C_R   0.878412 0.970371 0.361809 -0.174233
C72   C     C_R   0.868309 0.970453 0.446215 -0.206329
C73   C     C_R   0.499513 0.454760 0.269341 0.225082
C74   C     C_R   0.445201 0.454779 0.693786 0.217601
C75   C     C_R   0.999502 0.954760 0.269331 0.225091
C76   C     C_R   0.945202 0.954780 0.693786 0.217601
C77   C     C_R   0.229543 0.544965 0.739834 0.227858
C78   C     C_R   0.754237 0.544383 0.306083 0.214315
C79   C     C_R   0.729543 0.044965 0.739831 0.227852
C80   C     C_R   0.254239 0.044383 0.306080 0.214314
C81   C     C_R   0.485580 0.547175 0.252536 -0.193340
C82   C     C_R   0.450220 0.546666 0.698836 -0.206754
C83   C     C_R   0.985563 0.047174 0.252517 -0.193381
C84   C     C_R   0.950226 0.046666 0.698838 -0.206707
C85   C     C_R   0.233283 0.452591 0.750707 -0.131389
C86   C     C_R   0.752413 0.452637 0.300394 -0.204781
C87   C     C_R   0.733283 0.952591 0.750703 -0.131357
C88   C     C_R   0.252416 0.952637 0.300393 -0.204771
C89   C     C_R   0.362710 0.654780 0.913485 -0.144180
C90   C     C_R   0.691509 0.618913 0.087864 -0.136416
C91   C     C_R   0.862713 0.154781 0.913486 -0.144199
C92   C     C_R   0.191516 0.118890 0.087871 -0.136554
C93   C     C_R   0.441431 0.347701 0.088878 -0.147838
C94   C     C_R   0.600851 0.378788 0.909753 -0.149380
C95   C     C_R   0.941429 0.847695 0.088872 -0.147777
C96   C     C_R   0.100851 0.878789 0.909753 -0.149372
C97   C     C_R   0.378347 0.316271 0.998804 0.071991
C98   C     C_R   0.688486 0.364003 0.999825 0.067235
C99   C     C_R   0.878353 0.816260 0.998794 0.071975
C100  C     C_R   0.188486 0.864004 0.999824 0.067228
H1    H     H_    0.311326 0.333531 0.825648 0.084275
H2    H     H_    0.746806 0.368324 0.174558 0.096912
H3    H     H_    0.811340 0.833535 0.825643 0.084257
H4    H     H_    0.246807 0.868325 0.174558 0.096916
H5    H     H_    0.841221 0.470701 0.626902 0.071762
H6    H     H_    0.014900 0.546201 0.771328 0.058559
H7    H     H_    0.341226 0.970635 0.626875 0.071756
H8    H     H_    0.514892 0.046137 0.771352 0.058562
H9    H     H_    0.251774 0.739495 0.827187 0.123448
H10   H     H_    0.841937 0.679788 0.174567 0.120567
H11   H     H_    0.751784 0.239498 0.827188 0.123449
H12   H     H_    0.341639 0.179967 0.174563 0.120603
H13   H     H_    0.664991 0.314819 0.823372 0.113713
H14   H     H_    0.415686 0.260630 0.174665 0.114188
H15   H     H_    0.164987 0.814818 0.823371 0.113715
H16   H     H_    0.915994 0.760472 0.174697 0.114177
H17   H     H_    0.874131 0.347770 0.162968 0.126061
H18   H     H_    0.297012 0.239081 0.834751 0.117495
H19   H     H_    0.374132 0.847771 0.162965 0.126064
H20   H     H_    0.796800 0.739147 0.834609 0.117477
H21   H     H_    0.526306 0.573807 0.600145 0.128347
H22   H     H_    0.541932 0.574197 0.453125 0.133888
H23   H     H_    0.026295 0.073810 0.600127 0.128253
H24   H     H_    0.041905 0.074203 0.453095 0.133897
H25   H     H_    0.339641 0.440767 0.295893 0.126033
H26   H     H_    0.319842 0.441553 0.443231 0.152530
H27   H     H_    0.839630 0.940763 0.295888 0.126039
H28   H     H_    0.819842 0.941551 0.443235 0.152537
H29   H     H_    0.483507 0.663927 0.176081 0.123978
H30   H     H_    0.566522 0.633293 0.824035 0.100350
H31   H     H_    0.983525 0.163928 0.176084 0.123998
H32   H     H_    0.066526 0.133320 0.824049 0.100158
H33   H     H_    0.475107 0.590167 0.262663 0.116549
H34   H     H_    0.436889 0.589554 0.674130 0.112352
H35   H     H_    0.975081 0.090166 0.262636 0.116535
H36   H     H_    0.936899 0.089555 0.674136 0.112325
H37   H     H_    0.212279 0.409583 0.736756 0.121850
H38   H     H_    0.764972 0.409660 0.324589 0.120686
H39   H     H_    0.712278 0.909583 0.736751 0.121855
H40   H     H_    0.264976 0.909660 0.324589 0.120683
H41   H     H_    0.339022 0.671439 0.835571 0.115319
H42   H     H_    0.752941 0.616949 0.168855 0.104907
H43   H     H_    0.839027 0.171439 0.835573 0.115323
H44   H     H_    0.252950 0.116913 0.168863 0.104975
H45   H     H_    0.490110 0.331294 0.168505 0.084103
H46   H     H_    0.580054 0.379194 0.827544 0.090253
H47   H     H_    0.990101 0.831292 0.168502 0.084067
H48   H     H_    0.080054 0.879196 0.827544 0.090252
H49   H     H_    0.110738 0.483410 0.510532 0.131028
H50   H     H_    0.944494 0.484216 0.355293 0.130249
H51   H     H_    0.610746 0.983458 0.510517 0.131030
H52   H     H_    0.444501 0.984267 0.355276 0.130248
N1    N     N_R   0.394180 0.396910 0.943210 -0.038311
N2    N     N_R   0.605820 0.396910 0.056790 -0.039286
N3    N     N_R   0.894180 0.896910 0.943210 -0.038320
N4    N     N_R   0.105820 0.896910 0.056790 -0.039288
N5    N     N_R   0.450950 0.603070 0.056740 -0.036557
N6    N     N_R   0.549050 0.603070 0.943260 -0.041828
N7    N     N_R   0.950950 0.103070 0.056740 -0.036537
N8    N     N_R   0.049050 0.103070 0.943260 -0.041834
N9    N     N_R   0.525650 0.471570 0.206150 -0.063965
N10   N     N_R   0.474350 0.471570 0.793850 -0.059002
N11   N     N_R   0.025650 0.971570 0.206150 -0.063965
N12   N     N_R   0.974350 0.971570 0.793850 -0.058999
N13   N     N_R   0.319480 0.528420 0.793810 -0.048861
N14   N     N_R   0.680520 0.528420 0.206190 -0.053413
N15   N     N_R   0.819480 0.028420 0.793810 -0.048868
N16   N     N_R   0.180520 0.028420 0.206190 -0.053388
N17   N     N_R   0.525640 0.528390 0.206120 -0.043376
N18   N     N_R   0.474360 0.528390 0.793880 -0.047687
N19   N     N_R   0.025640 0.028390 0.206120 -0.043380
N20   N     N_R   0.974360 0.028390 0.793880 -0.047670
N21   N     N_R   0.319490 0.471590 0.793840 -0.053301
N22   N     N_R   0.680510 0.471590 0.206160 -0.052292
N23   N     N_R   0.819490 0.971590 0.793840 -0.053309
N24   N     N_R   0.180510 0.971590 0.206160 -0.052294
N25   N     N_R   0.394130 0.603080 0.943110 -0.037691
N26   N     N_R   0.605870 0.603080 0.056890 -0.042202
N27   N     N_R   0.894130 0.103080 0.943110 -0.037695
N28   N     N_R   0.105870 0.103080 0.056890 -0.042191
N29   N     N_R   0.450990 0.396900 0.056840 -0.043683
N30   N     N_R   0.549010 0.396900 0.943160 -0.042368
N31   N     N_R   0.950990 0.896900 0.056840 -0.043692
N32   N     N_R   0.049010 0.896900 0.943160 -0.042368
Ni1   Ni    Ni4+2 0.434860 0.434850 0.869700 0.210396
Ni2   Ni    Ni4+2 0.565140 0.434850 0.130300 0.204842
Ni3   Ni    Ni4+2 0.934860 0.934850 0.869700 0.210397
Ni4   Ni    Ni4+2 0.065140 0.934850 0.130300 0.204843
Ni5   Ni    Ni4+2 0.565130 0.565140 0.130240 0.209169
Ni6   Ni    Ni4+2 0.434870 0.565140 0.869760 0.207595
Ni7   Ni    Ni4+2 0.065130 0.065140 0.130240 0.209163
Ni8   Ni    Ni4+2 0.934870 0.065140 0.869760 0.207605
F1    F     F_    0.841893 0.557318 0.614062 -0.720460
F2    F     F_    0.011719 0.460349 0.792702 -0.691893
F3    F     F_    0.341883 0.057255 0.614088 -0.720457
F4    F     F_    0.511728 0.960278 0.792670 -0.691905
C101  C     C_3   0.503586 0.774595 0.192842 -0.388012
C102  C     C_3   0.508258 0.758937 0.294047 -0.920919
H53   H     H_    0.486471 0.794450 0.321790 0.257806
H54   H     H_    0.461587 0.723218 0.277677 0.258125
H55   H     H_    0.581638 0.747862 0.360507 0.256515
H56   H     H_    0.544551 0.744968 0.179233 0.186701
H57   H     H_    0.539518 0.815163 0.208100 0.196558
C103  C     C_3   0.716936 0.639520 0.806230 -0.409096
C104  C     C_3   0.744410 0.578652 0.833480 -0.816022
H58   H     H_    0.822207 0.574501 0.886502 0.265384
H59   H     H_    0.714443 0.560371 0.874644 0.248201
H60   H     H_    0.716676 0.554857 0.757411 0.258526
H61   H     H_    0.639772 0.644272 0.753321 0.170065
H62   H     H_    0.740781 0.652881 0.755283 0.213302
C105  C     C_3   0.003589 0.274597 0.192847 -0.388010
C106  C     C_3   0.008259 0.258935 0.294049 -0.920915
H63   H     H_    0.986468 0.294446 0.321792 0.257804
H64   H     H_    0.961590 0.223214 0.277675 0.258122
H65   H     H_    0.081639 0.247860 0.360509 0.256514
H66   H     H_    0.044557 0.244972 0.179237 0.186692
H67   H     H_    0.039520 0.315166 0.208108 0.196557
C107  C     C_3   0.217185 0.139433 0.806466 -0.409063
C108  C     C_3   0.244908 0.078608 0.833930 -0.815735
H68   H     H_    0.322724 0.074564 0.886930 0.265301
H69   H     H_    0.215052 0.060318 0.875209 0.248143
H70   H     H_    0.217231 0.054750 0.757943 0.258576
H71   H     H_    0.140003 0.144064 0.753560 0.170096
H72   H     H_    0.240958 0.152815 0.755460 0.213269
C109  C     C_3   0.532647 0.401521 0.332588 -0.417311
C110  C     C_3   0.598332 0.411047 0.455351 -0.864267
H73   H     H_    0.652992 0.442381 0.475332 0.265222
H74   H     H_    0.558797 0.424612 0.488573 0.264699
H75   H     H_    0.634022 0.371625 0.495855 0.243991
H76   H     H_    0.471473 0.375724 0.311799 0.187047
H77   H     H_    0.575602 0.378968 0.311619 0.191809
C111  C     C_3   0.404220 0.398070 0.647604 -0.405580
C112  C     C_3   0.297045 0.396770 0.586335 -0.901929
H78   H     H_    0.278088 0.384415 0.642000 0.250719
H79   H     H_    0.264553 0.437565 0.550740 0.252988
H80   H     H_    0.266717 0.365370 0.520212 0.249196
H81   H     H_    0.425168 0.384600 0.593889 0.183940
H82   H     H_    0.431931 0.366942 0.712688 0.192638
C113  C     C_3   0.032636 0.901522 0.332582 -0.417319
C114  C     C_3   0.098320 0.911051 0.455344 -0.864254
H83   H     H_    0.152980 0.942383 0.475323 0.265239
H84   H     H_    0.058785 0.924618 0.488565 0.264703
H85   H     H_    0.134010 0.871628 0.495851 0.243983
H86   H     H_    0.971461 0.875726 0.311794 0.187067
H87   H     H_    0.075590 0.878968 0.311615 0.191805
C115  C     C_3   0.904220 0.898071 0.647603 -0.405587
C116  C     C_3   0.797046 0.896771 0.586337 -0.901910
H88   H     H_    0.778090 0.884413 0.642002 0.250715
H89   H     H_    0.764554 0.937567 0.550747 0.252989
H90   H     H_    0.766715 0.865372 0.520209 0.249196
H91   H     H_    0.925168 0.884601 0.593888 0.183943
H92   H     H_    0.931932 0.866943 0.712687 0.192642
C117  C     C_3   0.191254 0.600370 0.686175 -0.395090
C118  C     C_3   0.235387 0.619667 0.628747 -0.905003
H93   H     H_    0.312633 0.624260 0.687103 0.251951
H94   H     H_    0.220283 0.589234 0.564982 0.261370
H95   H     H_    0.205392 0.660334 0.589983 0.250177
H96   H     H_    0.114111 0.597629 0.624152 0.197234
H97   H     H_    0.199577 0.631273 0.745253 0.183611
C119  C     C_3   0.774947 0.601673 0.357072 -0.371720
C120  C     C_3   0.687626 0.632424 0.329830 -0.853840
H98   H     H_    0.640830 0.640801 0.241902 0.248973
H99   H     H_    0.650240 0.608117 0.356227 0.268662
H100  H     H_    0.708520 0.672810 0.373392 0.246401
H101  H     H_    0.822230 0.598026 0.446662 0.250817
H102  H     H_    0.814996 0.627096 0.335931 0.159308
C121  C     C_3   0.691256 0.100372 0.686179 -0.395084
C122  C     C_3   0.735387 0.119670 0.628750 -0.905010
H103  H     H_    0.812635 0.124260 0.687104 0.251950
H104  H     H_    0.720276 0.089241 0.564978 0.261366
H105  H     H_    0.705397 0.160340 0.589996 0.250181
H106  H     H_    0.614112 0.097632 0.624159 0.197240
H107  H     H_    0.699583 0.131273 0.745262 0.183611
C123  C     C_3   0.274949 0.101673 0.357072 -0.371710
C124  C     C_3   0.187627 0.132451 0.329756 -0.853997
H108  H     H_    0.140929 0.140890 0.241845 0.248984
H109  H     H_    0.150119 0.108133 0.355976 0.268625
H110  H     H_    0.208539 0.172805 0.373432 0.246427
H111  H     H_    0.322179 0.098018 0.446664 0.250815
H112  H     H_    0.315055 0.127080 0.335985 0.159322

loop_
_geom_bond_atom_site_label_1
_geom_bond_atom_site_label_2
_ccdc_geom_bond_type
C94   H46   S    
C31   F3    S    
C82   N18   A    
C45   H29   S    
C120  H98   S    
N22   Ni2   S    
C55   C59   A    
C16   C80   A    
C6    C58   S    
C75   C113  S    
C19   C20   A    
N17   Ni5   S    
C32   F4    S    
N12   Ni3   S    
C71   H27   S    
C56   C107  S    
N4    N32   A    
C107  H71   S    
C115  H92   S    
C104  H58   S    
N20   Ni8   S    
N15   Ni8   S    
C48   N8    A    
N21   Ni1   S    
C30   F2    S    
N16   Ni7   S    
C72   H28   S    
C37   C41   A    
C34   C40   A    
C35   C59   A    
C124  H109  S    
C38   C42   A    
N6    Ni6   S    
C95   H47   S    
C65   C69   A    
C117  C118  S    
C38   H14   S    
C44   C99   S    
C95   C99   A    
C116  H90   S    
C84   N20   A    
C37   H13   S    
C94   C98   A    
C77   N13   A    
C79   C121  S    
C46   N6    A    
C96   C100  A    
C47   N7    A    
C12   C84   A    
C25   H49   S    
C123  C124  S    
C7    C59   S    
C88   H40   S    
C118  H94   S    
C92   N28   A    
C9    C65   S    
C63   C68   A    
C93   N29   A    
C117  H96   S    
C33   C39   A    
C49   H17   S    
N27   Ni8   S    
C113  C114  S    
C52   C54   A    
C74   N10   A    
C83   N19   A    
C103  H61   S    
C36   H12   S    
C121  H107  S    
C51   H19   S    
C122  H105  S    
C93   H45   S    
C102  H53   S    
C8    C92   A    
C89   N25   A    
C18   C22   A    
N11   N19   A    
C112  H78   S    
C83   H35   S    
C61   C62   A    
N9    N17   A    
C70   H26   S    
C116  H89   S    
C105  H66   S    
C69   H25   S    
C2    N2    A    
C50   H18   S    
C30   H6    S    
C111  H82   S    
C17   C30   S    
C40   H16   S    
C79   N15   A    
C29   H5    S    
C122  H103  S    
C69   C70   A    
C78   C119  S    
C9    C73   A    
C96   N32   A    
C96   H48   S    
C19   C32   S    
C61   C66   A    
C41   C49   A    
C11   C67   S    
C109  C110  S    
C91   H43   S    
C115  H91   S    
N4    Ni4   S    
C48   H32   S    
C102  H54   S    
C105  H67   S    
C13   C77   A    
C78   N14   A    
N14   N22   A    
N19   Ni7   S    
C123  H111  S    
C64   C67   A    
C20   C24   A    
C26   H50   S    
C124  H110  S    
C45   N5    A    
C43   C100  S    
C14   C86   A    
C74   C111  S    
C16   C88   A    
C42   C97   S    
C1    C97   A    
C108  H68   S    
C54   C103  S    
N26   Ni5   S    
C53   C57   A    
C39   C43   A    
C118  H95   S    
C11   C83   A    
C25   C26   A    
C6    C90   A    
C5    C45   A    
C73   N9    A    
C109  H77   S    
C114  H85   S    
C50   C56   A    
C56   C60   A    
C114  H83   S    
C47   H31   S    
N11   Ni4   S    
C86   N22   A    
N30   Ni1   S    
C7    C47   A    
C82   H34   S    
C86   H38   S    
C19   C23   A    
C8    C48   A    
C76   N12   A    
C29   C30   S    
N7    Ni7   S    
C120  H100  S    
C12   C68   S    
C121  H106  S    
C117  H97   S    
C85   N21   A    
C105  C106  S    
N10   N18   A    
C106  H65   S    
C68   C72   A    
C7    C91   A    
N29   Ni2   S    
C102  H55   S    
C114  H84   S    
C17   C18   A    
C13   C21   S    
C101  H56   S    
C18   C29   S    
N5    N25   A    
C106  H63   S    
C39   H15   S    
C107  H72   S    
C112  H79   S    
N8    Ni8   S    
C113  H86   S    
C85   H37   S    
C42   C50   A    
C52   H20   S    
C75   N11   A    
C4    N4    A    
C124  H108  S    
N1    N29   A    
C28   H52   S    
C1    H1    S    
C23   C27   A    
C4    C100  A    
C77   C117  S    
C32   H8    S    
C111  H81   S    
C34   H10   S    
C123  H112  S    
N12   N20   A    
C33   H9    S    
C3    N3    A    
C119  H102  S    
C36   C38   A    
C93   C97   A    
C62   H22   S    
C35   H11   S    
C35   C37   A    
C29   F1    S    
C120  H99   S    
C80   C123  S    
C54   C58   A    
C104  H60   S    
C3    H3    S    
N16   N24   A    
C21   C25   A    
C115  C116  S    
C84   H36   S    
N24   Ni4   S    
C33   C57   A    
N25   Ni6   S    
C6    C46   A    
C62   C65   A    
C27   H51   S    
C122  H104  S    
C31   H7    S    
C31   C32   S    
C76   C115  S    
C24   C28   A    
C61   H21   S    
C87   H39   S    
C119  C120  S    
C36   C60   A    
N28   Ni7   S    
C46   H30   S    
N10   Ni1   S    
C63   H23   S    
C121  C122  S    
C4    H4    S    
C81   H33   S    
C20   C31   S    
C15   C79   A    
C90   H42   S    
C110  H75   S    
C87   N23   A    
C64   H24   S    
N18   Ni6   S    
C67   C71   A    
C110  H74   S    
C109  H76   S    
C88   N24   A    
N32   Ni3   S    
C5    C57   S    
C113  H87   S    
N14   Ni5   S    
C53   C101  S    
C14   C22   S    
C118  H93   S    
C12   C76   A    
N6    N26   A    
C10   C66   S    
C71   C72   A    
C11   C75   A    
N31   Ni4   S    
C8    C60   S    
C108  H70   S    
C73   C109  S    
C10   C74   A    
N8    N28   A    
C44   C52   A    
C107  C108  S    
C66   C70   A    
N1    Ni1   S    
C43   C51   A    
C89   H41   S    
N2    N30   A    
N2    Ni2   S    
C15   C23   S    
C111  C112  S    
C10   C82   A    
C101  H57   S    
N15   N23   A    
N3    N31   A    
C108  H69   S    
C14   C78   A    
C49   C55   A    
C95   N31   A    
C101  C102  S    
C92   H44   S    
C112  H80   S    
N5    Ni5   S    
C1    N1    A    
N13   Ni6   S    
C106  H64   S    
C55   C105  S    
C63   C64   A    
C3    C99   A    
C40   C44   A    
N7    N27   A    
C103  C104  S    
C2    C98   A    
C16   C24   S    
C110  H73   S    
C22   C26   A    
C15   C87   A    
C103  H62   S    
C27   C28   A    
C34   C58   A    
C2    H2    S    
C41   C98   S    
C13   C85   A    
N3    Ni3   S    
C94   N30   A    
C51   C53   A    
C119  H101  S    
C104  H59   S    
N13   N21   A    
C81   N17   A    
C80   N16   A    
N23   Ni3   S    
C5    C89   A    
C116  H88   S    
C9    C81   A    
C90   N26   A    
C91   N27   A    
N9    Ni2   S    
C17   C21   A    
