data_mof_unit_35208.cif
_audit_creation_date              2012-10-26T21:18:00-0400
_audit_creation_method            fapswitch 2.2
_symmetry_space_group_name_H-M    P1
_symmetry_Int_Tables_number       1
_space_group_crystal_system       triclinic
_cell_length_a                    14.676616
_cell_length_b                    14.675948
_cell_length_c                    27.777666
_cell_angle_alpha                 76.820839
_cell_angle_beta                  102.711278
_cell_angle_gamma                 114.697029
_cell_volume                      5239.75810501

loop_
_atom_site_label
_atom_site_type_symbol
_atom_type_description
_atom_site_fract_x
_atom_site_fract_y
_atom_site_fract_z
_atom_type_partial_charge
C1    C     C_R   0.880334 0.312182 0.508109 0.543186
C2    C     C_R   0.934035 0.418507 0.128798 0.025073
C3    C     C_R   0.001519 0.506104 0.645192 -0.005789
C4    C     C_R   0.998975 0.493702 0.354872 -0.004147
C5    C     C_R   0.947859 0.409576 0.030162 0.009595
C6    C     C_R   0.072658 0.584336 0.973375 0.009285
C7    C     C_R   0.085114 0.579590 0.026007 0.002506
C8    C     C_R   0.959702 0.403346 0.981737 0.002385
C9    C     C_R   0.014610 0.495483 0.053047 0.019179
C10   C     C_R   0.014342 0.494565 0.951959 0.019021
C11   C     C_R   0.868140 0.335640 0.055389 -0.138039
C12   C     C_R   0.119626 0.687840 0.491332 0.542478
C13   C     C_R   0.111666 0.676621 0.941090 -0.137571
C14   C     C_R   0.862027 0.339379 0.104081 -0.118411
C15   C     C_R   0.104755 0.678628 0.890168 -0.116788
C16   C     C_R   0.000791 0.502490 0.592358 0.546319
C17   C     C_R   0.999241 0.497423 0.407647 0.546352
C18   C     C_R   0.918129 0.310952 0.961291 -0.031675
C19   C     C_R   0.163184 0.655436 0.052796 -0.031497
C20   C     C_R   0.812656 0.204729 0.509829 -0.003190
C21   C     C_R   0.187067 0.795554 0.484176 -0.003998
C22   C     C_R   0.783604 0.028188 0.515377 -0.131319
C23   C     C_R   0.009953 0.496528 0.900327 -0.032595
C24   C     C_R   0.215343 0.973579 0.462414 -0.132858
C25   C     C_R   0.850322 0.128610 0.517202 -0.141255
C26   C     C_R   0.148968 0.872181 0.469193 -0.141367
C27   C     C_R   0.708019 0.179270 0.501511 -0.129015
C28   C     C_R   0.291677 0.821225 0.491583 -0.132560
C29   C     C_R   0.639176 0.079417 0.497508 0.033688
C30   C     C_R   0.360015 0.922449 0.483034 0.033515
C31   C     C_R   0.678599 0.003047 0.505576 0.053150
C32   C     C_R   0.320356 0.999273 0.469616 0.053274
C33   C     C_R   0.532562 0.053338 0.486568 0.032973
C34   C     C_R   0.010002 0.497393 0.103155 -0.032725
C35   C     C_R   0.466517 0.949265 0.488818 0.033667
C36   C     C_R   0.509007 0.875677 0.495776 -0.134679
C37   C     C_R   0.489834 0.127773 0.472449 -0.135924
C38   C     C_R   0.612990 0.902465 0.503700 -0.130738
C39   C     C_R   0.385766 0.100883 0.463657 -0.130934
C40   C     C_R   0.955979 0.410143 0.828125 0.395903
C41   C     C_R   0.075973 0.577651 0.177606 0.396127
C42   C     C_R   0.718845 0.673957 0.419880 -0.161609
C43   C     C_R   0.281425 0.326431 0.580303 -0.160080
C44   C     C_R   0.799172 0.642257 0.431792 0.042336
C45   C     C_R   0.959111 0.406539 0.879402 0.009552
C46   C     C_R   0.200950 0.357904 0.568290 0.042776
C47   C     C_R   0.713699 0.507444 0.492055 0.047203
C48   C     C_R   0.286331 0.492651 0.507966 0.048687
C49   C     C_R   0.628712 0.535221 0.481394 0.002555
C50   C     C_R   0.371462 0.465093 0.518722 0.004111
C51   C     C_R   0.633738 0.621224 0.444708 0.035939
C52   C     C_R   0.366536 0.379216 0.555480 0.036722
C53   C     C_R   0.540633 0.482492 0.506173 0.011709
C54   C     C_R   0.459583 0.517894 0.493972 0.012901
C55   C     C_R   0.469447 0.604814 0.457529 -0.151178
C56   C     C_R   0.081104 0.578070 0.127650 0.008361
C57   C     C_R   0.530789 0.395594 0.542628 -0.149232
C58   C     C_R   0.554577 0.654906 0.433399 -0.135556
C59   C     C_R   0.445770 0.345648 0.566844 -0.132158
C60   C     C_R   0.051633 0.588909 0.818530 0.396922
C61   C     C_R   0.931378 0.421413 0.178579 0.397325
C62   C     C_R   0.952060 0.555544 0.710301 -0.061948
C63   C     C_R   0.050444 0.445274 0.290149 -0.064411
C64   C     C_R   0.952851 0.559735 0.659474 -0.043387
C65   C     C_R   0.049376 0.441326 0.340873 -0.041066
C66   C     C_R   0.050566 0.452745 0.682445 -0.156731
C67   C     C_R   0.915941 0.314497 0.910235 -0.116689
C68   C     C_R   0.949303 0.546178 0.317330 -0.155174
C69   C     C_R   0.050529 0.450870 0.732735 -0.063796
C70   C     C_R   0.950521 0.548469 0.267064 -0.062942
C71   C     C_R   0.000982 0.501725 0.746891 0.225694
C72   C     C_R   0.001301 0.498359 0.253477 0.235079
C73   C     C_R   0.099113 0.379572 0.377567 0.046077
C74   C     C_R   0.041967 0.293063 0.408332 -0.046637
C75   C     C_R   0.089460 0.235128 0.442824 -0.097246
C76   C     C_R   0.193843 0.262642 0.446640 -0.102911
C77   C     C_R   0.250907 0.347675 0.415679 -0.111695
C78   C     C_R   0.158209 0.654840 0.102675 -0.117486
C79   C     C_R   0.203862 0.406033 0.381221 -0.097336
C80   C     C_R   0.905618 0.623597 0.622743 0.046811
C81   C     C_R   0.801214 0.599681 0.618357 -0.097493
C82   C     C_R   0.756224 0.658273 0.582658 -0.107242
C83   C     C_R   0.815040 0.740890 0.551194 -0.097641
C84   C     C_R   0.919187 0.766135 0.555865 -0.093443
C85   C     C_R   0.964625 0.708151 0.591677 -0.042503
C86   C     C_R   0.890967 0.209211 0.992667 0.020915
C87   C     C_R   0.797606 0.130047 0.980967 -0.110038
C88   C     C_R   0.772809 0.034347 0.010445 -0.108525
C89   C     C_R   0.056188 0.588729 0.869536 0.026693
C90   C     C_R   0.840953 0.016694 0.051593 -0.096185
C91   C     C_R   0.934228 0.094603 0.063257 -0.107059
C92   C     C_R   0.959479 0.190377 0.033863 -0.081555
C93   C     C_R   0.258646 0.726911 0.033124 0.020114
C94   C     C_R   0.294787 0.831333 0.035057 -0.108366
C95   C     C_R   0.384625 0.898273 0.016504 -0.107033
C96   C     C_R   0.439368 0.861620 0.996194 -0.099098
C97   C     C_R   0.404673 0.757867 0.994619 -0.107149
C98   C     C_R   0.314930 0.690593 0.013157 -0.080854
Cu1   Cu    Cu3+1 0.081740 0.475690 0.513040 0.938310
Cu2   Cu    Cu3+1 0.918260 0.524310 0.486960 0.937720
H1    H     H_    0.088327 0.411274 0.672713 0.130837
H2    H     H_    0.534566 0.208052 0.466283 0.106001
H3    H     H_    0.558679 0.721317 0.405678 0.117289
H4    H     H_    0.441760 0.279367 0.594643 0.116077
H5    H     H_    0.281734 0.554454 0.479428 0.119644
H6    H     H_    0.718233 0.445554 0.520543 0.119165
H7    H     H_    0.134565 0.316459 0.586914 0.123649
H8    H     H_    0.865572 0.683696 0.413179 0.122002
H9    H     H_    0.723656 0.739927 0.391768 0.094572
H10   H     H_    0.276725 0.260588 0.608486 0.095601
H11   H     H_    0.412609 0.636772 0.446749 0.094581
H12   H     H_    0.910521 0.586911 0.326829 0.129450
H13   H     H_    0.587557 0.363543 0.553364 0.096369
H14   H     H_    0.089160 0.409716 0.760865 0.135303
H15   H     H_    0.912227 0.589446 0.238611 0.124510
H16   H     H_    0.883656 0.244071 0.894950 0.164222
H17   H     H_    0.217501 0.712953 0.122645 0.163980
H18   H     H_    0.088364 0.405655 0.278896 0.120354
H19   H     H_    0.914880 0.595775 0.721637 0.134319
H20   H     H_    0.800428 0.279946 0.122232 0.163501
H21   H     H_    0.137347 0.751161 0.867009 0.164583
H22   H     H_    0.807429 0.275985 0.037306 0.133782
H23   H     H_    0.318313 0.760733 0.505317 0.121251
H24   H     H_    0.144690 0.748845 0.954341 0.135438
H25   H     H_    0.642068 0.843613 0.508815 0.105075
H26   H     H_    0.356391 0.160326 0.452672 0.105235
H27   H     H_    0.960993 0.270954 0.405730 0.106727
H28   H     H_    0.045397 0.168721 0.466528 0.091603
H29   H     H_    0.230483 0.218115 0.473623 0.103321
H30   H     H_    0.331727 0.368734 0.418615 0.119137
H31   H     H_    0.249058 0.472226 0.357706 0.114199
H32   H     H_    0.754590 0.534882 0.642000 0.108949
H33   H     H_    0.675559 0.638945 0.578978 0.119806
H34   H     H_    0.682014 0.238883 0.499048 0.117192
H35   H     H_    0.779914 0.785070 0.523033 0.097319
H36   H     H_    0.964620 0.830407 0.531605 0.092907
H37   H     H_    0.045341 0.728086 0.594739 0.105245
H38   H     H_    0.743713 0.142772 0.949400 0.109067
H39   H     H_    0.700742 0.973824 0.001402 0.104448
H40   H     H_    0.821566 0.942570 0.074372 0.114348
H41   H     H_    0.987100 0.080727 0.095033 0.114009
H42   H     H_    0.032322 0.249846 0.043180 0.115810
H43   H     H_    0.252739 0.860956 0.050319 0.111001
H44   H     H_    0.411693 0.978644 0.017764 0.112786
H45   H     H_    0.068193 0.853886 0.463015 0.118568
H46   H     H_    0.508671 0.913623 0.981697 0.103018
H47   H     H_    0.447360 0.729542 0.979044 0.111850
H48   H     H_    0.289168 0.610317 0.011875 0.115974
H49   H     H_    0.931036 0.146662 0.524198 0.119604
H50   H     H_    0.814151 0.970225 0.521347 0.100580
H51   H     H_    0.184592 0.031984 0.451568 0.104274
H52   H     H_    0.463993 0.796549 0.493817 0.100866
N1    N     N_R   0.002267 0.500348 0.798887 -0.394748
N2    N     N_R   0.002134 0.499877 0.201884 -0.396500
N3    N     N_R   0.795430 0.560780 0.467350 -0.228054
N4    N     N_R   0.204570 0.439220 0.532650 -0.228650
O1    O     O_R   0.977900 0.338120 0.517190 -0.508081
O2    O     O_2   0.144492 0.653823 0.201878 -0.504219
O3    O     O_2   0.859224 0.346245 0.203652 -0.500510
O4    O     O_2   0.097374 0.676612 0.788930 -0.505960
O5    O     O_R   0.022100 0.661880 0.482810 -0.508671
O6    O     O_R   0.839850 0.379180 0.495160 -0.511996
O7    O     O_R   0.160150 0.620820 0.504840 -0.512207
O8    O     O_R   0.069030 0.479490 0.580750 -0.503084
O9    O     O_R   0.930970 0.520510 0.419250 -0.502682
O10   O     O_R   0.930970 0.520550 0.558720 -0.489562
O11   O     O_R   0.069030 0.479450 0.441280 -0.489699
O12   O     O_2   0.906575 0.324307 0.807555 -0.506435

loop_
_geom_bond_atom_site_label_1
_geom_bond_atom_site_label_2
_ccdc_geom_bond_type
C87   C88   A    
C63   C65   A    
C75   C76   A    
C34   C56   A    
C93   C94   A    
C23   C45   A    
C27   C29   A    
C97   H47   S    
C73   C74   A    
C95   C96   A    
C21   C26   A    
C61   N2    A    
C22   H50   S    
C97   C98   A    
C28   H23   S    
C65   C73   S    
C47   C49   A    
C3    C64   A    
C16   O8    A    
C18   C86   S    
C47   N3    A    
C30   C35   A    
C83   C84   A    
C94   H43   S    
Cu2   O10   S    
C52   C59   A    
C42   H9    S    
C24   C26   A    
C5    C11   A    
C61   O3    S    
C4    C65   A    
C11   C14   A    
C43   C52   A    
C57   C59   A    
C66   C69   A    
C20   C25   A    
C71   N1    S    
C29   C33   A    
C56   C78   A    
C25   H49   S    
C75   H28   S    
C68   H12   S    
C32   C39   A    
C69   C71   A    
C60   N1    A    
C62   C64   A    
C27   H34   S    
C12   O5    A    
C48   H5    S    
C16   O10   A    
C49   C51   A    
C22   C25   A    
C45   C67   A    
C50   C52   A    
C23   C89   A    
Cu2   O5    S    
C43   H10   S    
C92   H42   S    
C83   H35   S    
C19   C93   S    
C2    C61   A    
C42   C51   A    
C2    C34   A    
C48   C50   A    
C48   N4    A    
C95   H44   S    
C39   H26   S    
C46   H7    S    
C64   C80   S    
C66   H1    S    
C42   C44   A    
C74   H27   S    
C81   C82   A    
Cu1   O11   S    
C44   H8    S    
C40   C45   A    
C37   C39   A    
C69   H14   S    
C72   N2    S    
C22   C31   A    
C78   H17   S    
C76   C77   A    
C17   O11   A    
C91   C92   A    
C4    C68   A    
C63   H18   S    
C53   C57   A    
C86   C87   A    
C36   H52   S    
C81   H32   S    
C57   H13   S    
C18   C67   A    
C53   C54   A    
C12   C21   S    
C33   C37   A    
C41   O2    S    
Cu2   O9    S    
C35   C36   A    
C26   H45   S    
C67   H16   S    
C24   C32   A    
C41   C56   A    
C5    C9    A    
C80   C85   A    
C24   H51   S    
C15   C89   A    
C76   H29   S    
Cu1   Cu2   S    
C47   H6    S    
C79   H31   S    
C96   C97   A    
C73   C79   A    
C77   C79   A    
C1    O1    A    
C51   C58   A    
C50   C54   A    
C84   C85   A    
C62   H19   S    
C88   H39   S    
Cu1   O7    S    
C4    C17   S    
Cu2   N3    S    
C8    C10   A    
C21   C28   A    
C88   C90   A    
C1    O6    A    
C7    C19   A    
C13   C15   A    
C9    C34   A    
C70   H15   S    
C40   N1    A    
C3    C66   A    
C59   H4    S    
C87   H38   S    
C86   C92   A    
C85   H37   S    
C38   H25   S    
C96   H46   S    
C41   N2    A    
C7    C9    A    
C60   C89   A    
C54   C55   A    
C84   H36   S    
C1    C20   S    
C15   H21   S    
C55   H11   S    
C44   N3    A    
C60   O4    S    
C80   C81   A    
C6    C10   A    
C5    C8    A    
C90   H40   S    
C6    C7    A    
C20   C27   A    
C91   H41   S    
C10   C23   A    
C46   N4    A    
C14   H20   S    
C31   C38   A    
C19   C78   A    
C82   H33   S    
Cu1   O1    S    
C28   C30   A    
C29   C31   A    
C17   O9    A    
C6    C13   A    
C30   C32   A    
C90   C91   A    
C37   H2    S    
C98   H48   S    
C49   C53   A    
C36   C38   A    
C63   C72   A    
C33   C35   A    
C62   C71   A    
C13   H24   S    
C77   H30   S    
C94   C95   A    
C2    C14   A    
C43   C46   A    
C8    C18   A    
C40   O12   S    
Cu1   O8    S    
C11   H22   S    
Cu1   N4    S    
C74   C75   A    
C68   C70   A    
C82   C83   A    
C55   C58   A    
C70   C72   A    
C58   H3    S    
Cu2   O6    S    
C93   C98   A    
C3    C16   S    
C12   O7    A    
