data_mof_unit_45543.cif
_audit_creation_date              2013-03-05T15:48:07-0500
_audit_creation_method            fapswitch 2.2
_symmetry_space_group_name_H-M    P1
_symmetry_Int_Tables_number       1
_space_group_crystal_system       triclinic
_cell_length_a                    15.051767
_cell_length_b                    13.017925
_cell_length_c                    11.693295
_cell_angle_alpha                 99.752534
_cell_angle_beta                  93.665514
_cell_angle_gamma                 90.599061
_cell_volume                      2252.95807447

loop_
_atom_site_label
_atom_site_type_symbol
_atom_site_description
_atom_site_fract_x
_atom_site_fract_y
_atom_site_fract_z
_atom_type_partial_charge
O1    O     O_R   0.504720 0.354460 0.582000 -0.554725
O2    O     O_R   0.495280 0.645540 0.418000 -0.552670
O3    O     O_R   0.493480 0.341410 0.386200 -0.553782
O4    O     O_R   0.506520 0.658590 0.613800 -0.553980
C1    C     C_R   0.499780 0.299466 0.478894 0.838884
C2    C     C_R   0.500252 0.700537 0.521099 0.837224
O5    O     O_R   0.375880 0.506510 0.597910 -0.601375
O6    O     O_R   0.624120 0.493490 0.402090 -0.607018
O7    O     O_R   0.364640 0.493450 0.402110 -0.499980
O8    O     O_R   0.635360 0.506550 0.597890 -0.499390
C3    C     C_R   0.328919 0.497289 0.500292 0.807292
C4    C     C_R   0.671098 0.502620 0.499775 0.811131
Cu1   Cu    Cu3+1 0.506660 0.507730 0.615930 1.057068
Cu2   Cu    Cu3+1 0.493340 0.492270 0.384070 1.054646
C5    C     C_R   0.819462 0.580794 0.578357 0.399634
C6    C     C_R   0.180958 0.414968 0.425298 0.399111
C7    C     C_R   0.767649 0.506342 0.499140 -0.171139
C8    C     C_R   0.232484 0.491740 0.501884 -0.169191
C9    C     C_R   0.808025 0.430997 0.421015 -0.182079
C10   C     C_R   0.192016 0.565652 0.581529 -0.178188
C11   C     C_R   0.900696 0.423868 0.423341 0.004666
C12   C     C_R   0.099524 0.566795 0.586131 0.002892
C13   C     C_R   0.953352 0.497154 0.503772 -0.024640
C14   C     C_R   0.046908 0.494008 0.505085 -0.025840
C15   C     C_R   0.912555 0.574655 0.581942 0.035434
C16   C     C_R   0.087768 0.418295 0.424850 0.035245
C17   C     C_R   0.942053 0.346210 0.346253 0.309641
C18   C     C_R   0.058256 0.641364 0.666914 0.309544
C19   C     C_R   0.034796 0.345391 0.346760 -0.172394
C20   C     C_R   0.965528 0.645643 0.662315 -0.173425
H1    H     H_    0.765869 0.377448 0.359325 0.212230
H2    H     H_    0.233773 0.624343 0.637201 0.211470
H3    H     H_    0.065310 0.285682 0.286579 0.234280
H4    H     H_    0.935004 0.703859 0.724249 0.234507
C21   C     C_R   0.503710 0.813459 0.532331 -0.146026
C22   C     C_R   0.496383 0.186546 0.467623 -0.143290
C23   C     C_R   0.428505 0.023380 0.371537 -0.102272
C24   C     C_R   0.571650 0.976615 0.628368 -0.101164
C25   C     C_R   0.441377 0.129618 0.377753 -0.236947
C26   C     C_R   0.558726 0.870384 0.622195 -0.237538
C27   C     C_R   0.541502 0.136432 0.551252 0.305139
C28   C     C_R   0.458666 0.863567 0.448634 0.301124
C29   C     C_R   0.528545 0.028574 0.545446 0.009761
C30   C     C_R   0.471626 0.971423 0.454448 0.009084
H5    H     H_    0.594518 0.831884 0.685704 0.197408
H6    H     H_    0.405555 0.168117 0.314267 0.196997
H7    H     H_    0.383528 0.983010 0.302206 0.211429
H8    H     H_    0.616631 0.016983 0.697697 0.211543
N1    N     N_R   0.516670 0.519360 0.790130 -0.227143
N2    N     N_R   0.483330 0.480640 0.209870 -0.226570
C31   C     C_R   0.412687 0.404662 0.021406 0.263766
C32   C     C_R   0.587271 0.595390 0.978596 0.260497
C33   C     C_R   0.423540 0.410933 0.144888 0.535726
C34   C     C_R   0.576427 0.589105 0.855113 0.535868
C35   C     C_R   0.536533 0.541453 0.156901 0.067338
C36   C     C_R   0.463453 0.458563 0.843099 0.075063
C37   C     C_R   0.531187 0.534757 0.034128 -0.089399
C38   C     C_R   0.468786 0.465275 0.965873 -0.088000
H9    H     H_    0.416432 0.404886 0.789106 0.202058
H10   H     H_    0.583553 0.595131 0.210894 0.201842
O9    O     O_3   0.781565 0.661312 0.650808 -0.699854
H11   H     H_    0.722291 0.675884 0.616114 0.334400
O10   O     O_3   0.219215 0.335471 0.351849 -0.700564
H12   H     H_    0.279701 0.323138 0.384466 0.334794
O11   O     O_3   0.347517 0.342222 0.954187 -0.712025
H13   H     H_    0.296883 0.334396 0.002292 0.353762
O12   O     O_3   0.652415 0.657870 0.045819 -0.714262
H14   H     H_    0.703044 0.665731 0.997717 0.351799
N3    N     N_R   0.891439 0.266333 0.268365 0.125553
O13   O     O_R   0.834343 0.208312 0.308907 -0.313259
O14   O     O_R   0.914382 0.238389 0.162330 -0.297329
N4    N     N_R   0.108996 0.712312 0.755337 0.127387
O15   O     O_R   0.168349 0.676792 0.823716 -0.319043
O16   O     O_R   0.084869 0.808702 0.781479 -0.296322
N5    N     N_R   0.399132 0.805227 0.359458 0.117888
O17   O     O_R   0.330025 0.756525 0.387622 -0.334782
O18   O     O_R   0.419160 0.791600 0.251383 -0.331302
N6    N     N_R   0.601125 0.194769 0.640319 0.117516
O19   O     O_R   0.670179 0.243471 0.612008 -0.323144
O20   O     O_R   0.581205 0.208439 0.748437 -0.337695
O21   O     O_3   0.624274 0.653206 0.798158 -0.692013
H15   H     H_    0.638325 0.719749 0.851489 0.319979
O22   O     O_3   0.375653 0.346869 0.201843 -0.692329
H16   H     H_    0.361574 0.280332 0.148514 0.319469

loop_
_geom_bond_atom_site_label_1
_geom_bond_atom_site_label_2
_geom_bond_distance
_ccdc_geom_bond_type
C3    C8    1.454032 S    
C17   C19   1.395744 A    
O7    Cu2   1.961914 S    
C9    H1    1.082027 S    
O21   H15   0.990102 S    
O2    C2    1.290935 A    
O5    C3    1.290599 A    
C28   N5    1.437060 S    
O1    C1    1.290984 A    
C9    C11   1.397746 A    
C14   C16   1.415318 A    
N6    O20   1.301265 A    
C5    C15   1.402677 A    
N1    C34   1.368416 A    
C1    C22   1.453540 S    
C19   H3    1.083426 S    
C2    C21   1.453615 S    
C31   O11   1.381676 S    
O4    Cu1   1.968278 S    
N3    O14   1.301350 A    
C21   C28   1.408433 A    
C4    C7    1.454101 S    
C13   C14   1.408374 A    
C6    O10   1.383767 S    
C23   H7    1.081577 S    
C24   H8    1.081573 S    
O9    H11   0.989895 S    
C17   N3    1.437006 S    
C11   C17   1.413605 A    
C12   C18   1.413308 A    
Cu1   Cu2   2.678832 S    
C27   C29   1.405131 A    
C22   C27   1.408385 A    
C18   N4    1.437416 S    
C28   C30   1.405092 A    
C32   C34   1.431020 A    
C11   C13   1.416963 A    
C6    C16   1.403496 A    
C26   H5    1.083283 S    
N2    C33   1.368440 A    
C20   H4    1.083419 S    
O12   H14   0.990076 S    
N4    O16   1.301393 A    
C27   N6    1.437047 S    
N6    O19   1.301223 A    
C31   C33   1.431032 A    
N5    O17   1.301208 A    
O7    C3    1.292163 A    
O22   H16   0.990103 S    
O6    C4    1.291450 A    
C5    O9    1.383920 S    
C31   C38   1.409632 A    
N5    O18   1.301270 A    
O3    Cu2   1.968279 S    
O8    C4    1.291455 A    
C25   H6    1.083280 S    
Cu1   N1    2.012631 S    
O4    C2    1.292528 A    
C10   C12   1.396780 A    
C35   C37   1.420476 A    
C29   C30   1.421852 A    
C12   C14   1.416791 A    
O1    Cu1   1.966830 S    
C10   H2    1.082454 S    
C15   C20   1.402694 A    
C5    C7    1.411832 A    
O6    Cu2   1.965886 S    
C22   C25   1.396817 A    
C32   O12   1.381677 S    
N4    O15   1.301449 A    
O3    C1    1.292451 A    
O8    Cu1   1.961914 S    
N1    C36   1.366709 A    
N2    C35   1.366717 A    
C36   H9    1.082062 S    
C33   O22   1.376790 S    
C23   C30   1.403404 A    
C18   C20   1.395370 A    
C21   C26   1.396842 A    
C24   C29   1.403415 A    
C23   C25   1.383491 A    
C24   C26   1.383563 A    
C37   C38   1.406824 A    
Cu2   N2    2.012629 S    
C7    C9    1.394923 A    
C36   C38   1.420465 A    
C8    C10   1.394756 A    
C13   C15   1.415192 A    
N3    O13   1.301404 A    
O2    Cu2   1.966832 S    
C32   C37   1.409646 A    
O10   H12   0.989698 S    
O5    Cu1   1.965883 S    
C16   C19   1.402755 A    
C6    C8    1.412117 A    
O11   H13   0.990074 S    
C35   H10   1.082057 S    
C34   O21   1.376788 S    
