data_mof_unit_52969.cif
_audit_creation_date              2012-12-10T17:33:41-0500
_audit_creation_method            fapswitch 2.2
_symmetry_space_group_name_H-M    P1
_symmetry_Int_Tables_number       1
_space_group_crystal_system       triclinic
_cell_length_a                    11.684385
_cell_length_b                    12.350806
_cell_length_c                    13.053424
_cell_angle_alpha                 116.270969
_cell_angle_beta                  77.680924
_cell_angle_gamma                 100.984065
_cell_volume                      1640.33453068

loop_
_atom_site_label
_atom_site_type_symbol
_atom_type_description
_atom_site_fract_x
_atom_site_fract_y
_atom_site_fract_z
_atom_type_partial_charge
C1    C     C_R   0.512797 0.855260 0.285859 0.768467
C2    C     C_R   0.448333 0.228060 0.837688 -0.188691
C3    C     C_R   0.601202 0.812888 0.083346 -0.190947
C4    C     C_R   0.624294 0.733153 0.967757 -0.187135
C5    C     C_R   0.577136 0.611807 0.930184 -0.100833
C6    C     C_R   0.503761 0.567794 0.008049 0.093268
C7    C     C_R   0.466390 0.654133 0.121248 0.074734
C8    C     C_R   0.460767 0.442585 0.976390 -0.031380
C9    C     C_R   0.367017 0.411560 0.050926 0.068614
C10   C     C_R   0.320967 0.500512 0.155151 -0.203909
C11   C     C_R   0.369967 0.619810 0.190113 -0.187286
C12   C     C_R   0.715688 0.999897 0.500332 0.820860
C13   C     C_R   0.508705 0.346535 0.875397 0.365618
C14   C     C_R   0.352994 0.199929 0.913486 0.027848
C15   C     C_R   0.523744 0.774100 0.161580 -0.104438
C16   C     C_R   0.692343 0.351382 0.335421 -0.306023
C17   C     C_R   0.340730 0.760652 0.644236 -0.007959
C18   C     C_R   0.311383 0.672716 0.686857 -0.347365
C19   C     C_R   0.372324 0.569380 0.638532 0.445264
C20   C     C_R   0.464761 0.555319 0.543478 -0.102234
C21   C     C_R   0.496189 0.654123 0.509104 0.231845
C22   C     C_R   0.528994 0.449751 0.481695 -0.022889
C23   C     C_R   0.478003 0.144851 0.714393 0.831311
C24   C     C_R   0.626417 0.450695 0.395559 0.170797
C25   C     C_R   0.657075 0.549730 0.367993 -0.281524
C26   C     C_R   0.592532 0.648061 0.422204 -0.146968
C27   C     C_R   0.499869 0.340704 0.497463 0.071341
C28   C     C_R   0.661412 0.249865 0.358975 0.073111
C29   C     C_R   0.284358 0.999977 0.499393 0.787143
C30   C     C_1   0.837260 0.999914 0.501083 -0.194799
C31   C     C_1   0.939887 0.000486 0.501288 -0.011697
C32   C     C_1   0.059945 0.001062 0.500844 -0.006320
C33   C     C_1   0.162655 0.000963 0.500064 -0.188646
C34   C     C_R   0.317162 0.291908 0.020568 -0.230228
Cu1   Cu    Cu3+1 0.526510 0.098270 0.475420 0.952314
Cu2   Cu    Cu3+1 0.473490 0.901730 0.524580 0.919912
H1    H     H_    0.730979 0.550469 0.301863 0.146393
H2    H     H_    0.767307 0.352249 0.270384 0.132658
H3    H     H_    0.423659 0.326081 0.553534 0.183674
H4    H     H_    0.291351 0.837464 0.680396 0.161145
H5    H     H_    0.243625 0.688422 0.761146 0.145723
H6    H     H_    0.621876 0.718212 0.393171 0.202854
H7    H     H_    0.246909 0.477617 0.210761 0.139223
H8    H     H_    0.244250 0.271172 0.078612 0.144151
H9    H     H_    0.644790 0.904816 0.111749 0.149720
H10   H     H_    0.594725 0.556173 0.838807 0.210738
H11   H     H_    0.681100 0.764960 0.907158 0.147473
H12   H     H_    0.328006 0.685342 0.269955 0.168420
H13   H     H_    0.712481 0.173253 0.313709 0.120329
N1    N     N_R   0.566700 0.246290 0.438210 -0.193093
N2    N     N_R   0.434010 0.754320 0.561170 -0.196399
O1    O     O_R   0.533340 0.972510 0.318140 -0.579292
O2    O     O_R   0.488570 0.806530 0.359650 -0.598838
O3    O     O_R   0.685190 0.083000 0.479260 -0.570268
O4    O     O_R   0.640410 0.917020 0.520770 -0.587522
O5    O     O_R   0.511430 0.193470 0.640350 -0.527025
O6    O     O_R   0.466660 0.027490 0.681860 -0.596071
O7    O     O_R   0.359590 0.082980 0.479230 -0.588031
O8    O     O_R   0.314810 0.917000 0.520740 -0.584079
C35   C     C_3   0.278934 0.078381 0.883662 -0.374599
C36   C     C_3   0.179359 0.070220 0.819612 -0.343472
C37   C     C_3   0.079792 0.971509 0.823692 -0.860621
H14   H     H_    0.113405 0.882200 0.790334 0.244708
H15   H     H_    0.035282 0.995495 0.913915 0.247518
H16   H     H_    0.013896 0.963738 0.770122 0.249801
H17   H     H_    0.140952 0.158144 0.859342 0.222536
H18   H     H_    0.215622 0.051914 0.728778 0.219219
H19   H     H_    0.333859 0.002831 0.835545 0.205129
H20   H     H_    0.239308 0.067474 0.964487 0.193828
O9    O     O_3   0.355450 0.495848 0.696928 -0.589922
C38   C     C_3   0.238039 0.439300 0.699397 0.046045
H21   H     H_    0.213612 0.390680 0.610706 0.134724
H22   H     H_    0.174550 0.506180 0.755163 0.150124
C39   C     C_3   0.226462 0.347172 0.750068 -0.795412
H23   H     H_    0.249594 0.393162 0.838942 0.256585
H24   H     H_    0.134328 0.303290 0.753486 0.193505
H25   H     H_    0.285783 0.275781 0.695996 0.242173
O10   O     O_3   0.615568 0.366069 0.812538 -0.580144
C40   C     C_3   0.705946 0.341666 0.853294 0.059175
H26   H     H_    0.691725 0.246464 0.845048 0.132685
H27   H     H_    0.710838 0.405789 0.945258 0.142066
C41   C     C_3   0.823366 0.357839 0.781481 -0.779863
H28   H     H_    0.895399 0.339111 0.812780 0.190851
H29   H     H_    0.821445 0.293856 0.689371 0.257724
H30   H     H_    0.841118 0.452424 0.788836 0.242579

loop_
_geom_bond_atom_site_label_1
_geom_bond_atom_site_label_2
_ccdc_geom_bond_type
C16   C28   A    
C21   C26   A    
C8    C13   A    
Cu1   Cu2   S    
Cu2   O8    S    
C17   N2    A    
C23   O5    A    
C7    C11   A    
C39   H24   S    
Cu1   O7    S    
C5    C6    A    
C29   C33   S    
C18   C19   A    
C2    C13   A    
C1    O2    A    
C37   H15   S    
Cu2   O2    S    
C25   H1    S    
C28   N1    A    
C36   H17   S    
C29   O8    A    
C27   H3    S    
C8    C9    A    
C39   H25   S    
O9    C38   S    
C1    C15   S    
C9    C10   A    
C27   N1    A    
C7    C15   A    
C10   H7    S    
C16   C24   A    
Cu1   O3    S    
C11   H12   S    
C39   H23   S    
C34   H8    S    
C24   C25   A    
Cu2   O6    S    
C18   H5    S    
C40   H27   S    
O10   C40   S    
C6    C8    A    
C25   C26   A    
C3    H9    S    
C35   C36   S    
C17   H4    S    
C37   H14   S    
C38   C39   S    
C28   H13   S    
C36   H18   S    
C31   C32   S    
C2    C23   S    
Cu1   N1    S    
C17   C18   A    
C20   C21   A    
Cu2   N2    S    
C20   C22   A    
C41   H29   S    
C22   C27   A    
C9    C34   A    
C22   C24   A    
C3    C4    A    
C21   N2    A    
C3    C15   A    
C26   H6    S    
C38   H22   S    
C23   O6    A    
C13   O10   S    
C37   H16   S    
C12   C30   S    
Cu1   O5    S    
C4    C5    A    
C14   C34   A    
C40   C41   S    
C6    C7    A    
C41   H30   S    
C14   C35   S    
C5    H10   S    
C32   C33   T    
C19   C20   A    
C38   H21   S    
Cu2   O4    S    
C30   C31   T    
C35   H20   S    
C36   C37   S    
C2    C14   A    
C1    O1    A    
C12   O4    A    
C10   C11   A    
C40   H26   S    
C29   O7    A    
C35   H19   S    
C41   H28   S    
Cu1   O1    S    
C19   O9    S    
C12   O3    A    
C16   H2    S    
C4    H11   S    
