data_mof_unit_15541.cif
_audit_creation_date              2012-12-10T19:49:04-0500
_audit_creation_method            fapswitch 2.2
_symmetry_space_group_name_H-M    P1
_symmetry_Int_Tables_number       1
_space_group_crystal_system       triclinic
_cell_length_a                    28.681376
_cell_length_b                    18.13844
_cell_length_c                    22.143944
_cell_angle_alpha                 90.256145
_cell_angle_beta                  140.745405
_cell_angle_gamma                 89.87581
_cell_volume                      7289.43318482

loop_
_atom_site_label
_atom_site_type_symbol
_atom_type_description
_atom_site_fract_x
_atom_site_fract_y
_atom_site_fract_z
_atom_type_partial_charge
C1    C     C_R   0.858611 0.000080 0.861243 1.074494
C2    C     C_R   0.000023 0.141412 0.500109 1.089487
C3    C     C_R   0.499926 0.358600 0.500826 1.045025
C4    C     C_R   0.500099 0.641381 0.498584 1.053587
C5    C     C_R   0.000260 0.001953 0.621793 1.063590
C6    C     C_R   0.001018 0.005353 0.379411 1.047139
C7    C     C_R   0.500181 0.502600 0.621663 1.056260
C8    C     C_R   0.499186 0.497979 0.377630 1.030622
C9    C     C_R   0.499937 0.140227 0.500059 0.888400
C10   C     C_R   0.500069 0.859772 0.499929 0.891146
C11   C     C_R   0.999930 0.640223 0.500032 0.891397
C12   C     C_R   0.141406 0.000255 0.143213 1.058257
C13   C     C_R   0.999950 0.359785 0.499906 0.896018
C14   C     C_R   0.640218 0.999876 0.640237 0.879927
C15   C     C_R   0.359775 0.000230 0.359754 0.882000
C16   C     C_R   0.140210 0.499930 0.640285 0.881004
C17   C     C_R   0.859791 0.500263 0.359667 0.883435
C18   C     C_1   0.999740 0.781924 0.499890 -0.157771
C19   C     C_1   0.999962 0.218108 0.500452 -0.168229
C20   C     C_1   0.499779 0.281942 0.500502 -0.107102
C21   C     C_1   0.500275 0.718056 0.499142 -0.143319
C22   C     C_1   0.499805 0.216909 0.500248 -0.135233
C23   C     C_R   0.358579 0.500038 0.860078 1.081629
C24   C     C_1   0.500231 0.783088 0.499644 -0.135501
C25   C     C_1   0.999776 0.716896 0.500026 -0.145322
C26   C     C_1   0.999920 0.283131 0.500063 -0.159529
C27   C     C_R   0.999017 0.999883 0.877135 1.062094
C28   C     C_R   0.001977 0.999938 0.123607 1.011975
C29   C     C_R   0.498957 0.499849 0.877038 1.054387
C30   C     C_R   0.499924 0.499827 0.121783 1.036581
C31   C     C_3   0.931011 0.940258 0.714437 0.458058
C32   C     C_3   0.071347 0.059647 0.282235 0.452391
C33   C     C_3   0.017594 0.908946 0.232766 0.489942
C34   C     C_R   0.641375 0.500319 0.139226 1.084178
C35   C     C_3   0.986336 0.090788 0.772862 0.477049
C36   C     C_3   0.429941 0.441735 0.713096 0.461408
C37   C     C_3   0.578130 0.539983 0.290976 0.421250
C38   C     C_3   0.490276 0.405702 0.205482 0.498154
C39   C     C_3   0.487918 0.591068 0.774569 0.478455
C40   C     C_3   0.925822 0.953027 0.635918 -0.436115
C41   C     C_3   0.065102 0.069763 0.350320 -0.390137
C42   C     C_3   0.029915 0.917878 0.319272 -0.389726
C43   C     C_3   0.997786 0.090629 0.710057 -0.402420
C44   C     C_3   0.424363 0.455180 0.634307 -0.437029
C45   C     C_1   0.716848 0.999750 0.716794 -0.146201
C46   C     C_3   0.574272 0.536990 0.360735 -0.418945
C47   C     C_3   0.484254 0.407242 0.274630 -0.370185
C48   C     C_3   0.499678 0.590949 0.712097 -0.406507
C49   C     C_3   0.082738 0.967971 0.871536 0.458995
C50   C     C_3   0.918693 0.032495 0.130412 0.451931
C51   C     C_3   0.582102 0.466166 0.870500 0.472157
C52   C     C_3   0.424622 0.551507 0.136974 0.487142
C53   C     C_3   0.999500 0.999840 0.809654 -0.494877
C54   C     C_3   0.002599 0.999940 0.191779 -0.481965
C55   C     C_3   0.499492 0.499819 0.809530 -0.494859
C56   C     C_1   0.283138 0.000687 0.283467 -0.144305
C57   C     C_3   0.498390 0.499110 0.188210 -0.490498
C58   C     C_3   0.000581 0.002391 0.689967 -0.351861
C59   C     C_3   0.004195 0.004278 0.314210 -0.334235
C60   C     C_3   0.500444 0.502664 0.689757 -0.353056
C61   C     C_3   0.495574 0.495138 0.306007 -0.365958
C62   C     C_3   0.078904 0.959774 0.793010 -0.408116
C63   C     C_3   0.917700 0.023642 0.203817 -0.436072
C64   C     C_3   0.577842 0.457921 0.791605 -0.395092
C65   C     C_3   0.418998 0.540371 0.205905 -0.410190
C66   C     C_1   0.781861 0.999851 0.782481 -0.017053
C67   C     C_1   0.216821 0.499819 0.717050 -0.141578
C68   C     C_1   0.218149 0.000788 0.219428 -0.024532
C69   C     C_1   0.281807 0.499851 0.782414 -0.053580
C70   C     C_1   0.718198 0.500943 0.216847 -0.021077
C71   C     C_2   0.847884 0.985075 0.542565 1.101746
C72   C     C_2   0.145175 0.080116 0.458653 1.101295
C73   C     C_2   0.110718 0.898592 0.419883 1.002863
C74   C     C_2   0.941809 0.142827 0.621765 1.037914
C75   C     C_2   0.347463 0.489993 0.542303 1.100090
C76   C     C_2   0.648975 0.504056 0.457611 1.080011
C77   C     C_2   0.533301 0.349277 0.355904 1.055730
C78   C     C_1   0.783181 0.500807 0.282594 -0.153954
C79   C     C_2   0.444891 0.644134 0.624919 1.033389
C80   C     C_2   0.917824 0.880885 0.586371 0.984792
C81   C     C_2   0.042905 0.146630 0.352871 0.975909
C82   C     C_2   0.993047 0.855125 0.321178 0.969032
C83   C     C_2   0.064541 0.134226 0.750209 1.015803
C84   C     C_2   0.413401 0.383420 0.581630 0.999420
C85   C     C_2   0.580468 0.614367 0.398688 1.017492
C86   C     C_2   0.414183 0.371701 0.236073 0.918107
C87   C     C_2   0.567410 0.633498 0.753487 1.015008
C88   C     C_2   0.082484 0.880583 0.769133 1.016376
C89   C     C_R   0.999916 0.858587 0.499984 0.999865
C90   C     C_2   0.882979 0.094173 0.200489 1.041602
C91   C     C_2   0.860333 0.964798 0.169908 1.094053
C92   C     C_2   0.156183 0.982709 0.844062 1.034320
C93   C     C_2   0.580564 0.379129 0.765292 1.032271
C94   C     C_2   0.407047 0.614792 0.229263 1.063643
C95   C     C_2   0.344724 0.502856 0.152109 0.989456
C96   C     C_2   0.655041 0.480006 0.842795 1.026796
H1    H     H_    0.999890 0.737141 0.785244 0.410012
H2    H     H_    0.269881 0.063589 0.423557 0.384637
H3    H     H_    0.121975 0.734633 0.292877 0.388233
H4    H     H_    0.820796 0.122048 0.707981 0.390732
H5    H     H_    0.246200 0.375289 0.591680 0.385422
H6    H     H_    0.773937 0.533768 0.422453 0.383531
H7    H     H_    0.589336 0.225926 0.257331 0.389023
H8    H     H_    0.324023 0.625103 0.712334 0.389161
H9    H     H_    0.782242 0.056199 0.432076 0.366708
H10   H     H_    0.213735 0.084800 0.599946 0.355046
H11   H     H_    0.190584 0.820953 0.510205 0.379214
H12   H     H_    0.039410 0.252427 0.173678 0.383216
H13   H     H_    0.892445 0.175837 0.495166 0.353830
H14   H     H_    0.284141 0.562512 0.433318 0.366669
H15   H     H_    0.709856 0.419588 0.549722 0.378382
H16   H     H_    0.557819 0.240685 0.389123 0.360260
H17   H     H_    0.397377 0.678484 0.499830 0.353549
H18   H     H_    0.867637 0.830569 0.464502 0.358304
H19   H     H_    0.039837 0.212851 0.423342 0.349640
H20   H     H_    0.989194 0.747077 0.340916 0.356710
H21   H     H_    0.113912 0.172683 0.723694 0.361152
H22   H     H_    0.360496 0.334884 0.457463 0.356560
H23   H     H_    0.834862 0.790798 0.012473 0.395259
H24   H     H_    0.615620 0.674821 0.505940 0.355781
H25   H     H_    0.361841 0.346199 0.261838 0.358844
H26   H     H_    0.619635 0.669042 0.730146 0.365289
H27   H     H_    0.197549 0.877807 0.107913 0.378260
H28   H     H_    0.894503 0.243624 0.115423 0.411932
H29   H     H_    0.739343 0.034560 0.867516 0.390530
H30   H     H_    0.275552 0.018782 0.112532 0.388587
H31   H     H_    0.695293 0.374815 0.105482 0.378262
H32   H     H_    0.325622 0.729711 0.008016 0.401075
H33   H     H_    0.278888 0.600692 0.878452 0.374667
H34   H     H_    0.134136 0.233104 0.986576 0.382435
H35   H     H_    0.775520 0.514936 0.112164 0.386046
H36   H     H_    0.080651 0.816813 0.691927 0.356567
H37   H     H_    0.882629 0.171614 0.266101 0.356733
H38   H     H_    0.821628 0.860992 0.132617 0.383478
H39   H     H_    0.222094 0.048352 0.860016 0.361364
H40   H     H_    0.620194 0.274852 0.803749 0.374037
H41   H     H_    0.337376 0.699357 0.177744 0.371394
H42   H     H_    0.258974 0.434963 0.049746 0.380676
H43   H     H_    0.763559 0.454112 0.945340 0.365752
H44   H     H_    0.499858 0.240311 0.780082 0.409561
H45   H     H_    0.590717 0.750528 0.252953 0.393316
H46   H     H_    0.296865 0.325164 0.966851 0.393633
H47   H     H_    0.637822 0.731070 0.990518 0.383634
H48   H     H_    0.748144 0.873752 0.596881 0.384118
O1    O     O_R   0.892660 0.939370 0.892650 -0.574118
O2    O     O_R   0.000020 0.060630 0.092620 -0.554697
O3    O     O_R   0.161440 0.070445 0.536187 -0.696146
O4    O     O_2   0.148592 0.940583 0.486851 -0.577332
O5    O     O_R   0.139183 0.827109 0.441377 -0.653635
O6    O     O_2   0.924843 0.201727 0.627786 -0.494505
O7    O     O_R   0.925526 0.135224 0.544175 -0.754530
O8    O     O_2   0.291454 0.454810 0.497638 -0.486656
O9    O     O_R   0.337760 0.550777 0.495709 -0.737864
O10   O     O_2   0.704923 0.542244 0.511563 -0.503705
O11   O     O_R   0.657462 0.431990 0.484971 -0.715754
O12   O     O_2   0.560207 0.361275 0.432495 -0.594363
O13   O     O_R   0.000020 0.939370 0.092620 -0.538044
O14   O     O_R   0.529324 0.275211 0.333280 -0.691339
O15   O     O_2   0.427814 0.702775 0.631186 -0.493662
O16   O     O_R   0.429869 0.637428 0.548300 -0.755948
O17   O     O_2   0.952062 0.824387 0.628775 -0.546250
O18   O     O_R   0.869051 0.879744 0.487912 -0.745429
O19   O     O_2   0.040900 0.201368 0.319677 -0.474596
O20   O     O_R   0.044653 0.158742 0.417192 -0.785010
O21   O     O_2   0.953361 0.868798 0.324303 -0.658750
O22   O     O_R   0.014036 0.781195 0.335842 -0.654539
O23   O     O_2   0.101805 0.177181 0.816663 -0.471655
O24   O     O_R   0.999980 0.060630 0.907380 -0.540586
O25   O     O_R   0.073332 0.137702 0.696192 -0.777004
O26   O     O_2   0.446575 0.326083 0.621970 -0.541127
O27   O     O_R   0.363287 0.383709 0.482694 -0.745498
O28   O     O_2   0.558076 0.670359 0.353283 -0.481798
O29   O     O_R   0.614383 0.622006 0.489456 -0.755048
O30   O     O_2   0.369503 0.332942 0.165564 -0.477599
O31   O     O_R   0.407141 0.373066 0.291815 -0.792710
O32   O     O_2   0.604120 0.677096 0.819252 -0.470733
O33   O     O_R   0.578013 0.635218 0.701427 -0.769144
O34   O     O_2   0.074018 0.830393 0.935142 -0.201752
O35   O     O_R   0.499980 0.439370 0.907380 -0.543002
O36   O     O_2   0.184006 0.848946 0.985025 -0.157654
O37   O     O_3   0.165869 0.918810 0.062170 -0.534386
O38   O     O_2   0.903612 0.146929 0.029115 -0.198286
O39   O     O_2   0.808546 0.139420 0.007141 -0.189877
O40   O     O_3   0.921358 0.199066 0.155772 -0.498453
O41   O     O_2   0.863456 0.932453 0.986323 -0.274817
O42   O     O_2   0.781305 0.956123 0.989785 -0.240271
O43   O     O_3   0.792261 0.046128 0.914844 -0.512429
O44   O     O_2   0.177180 0.090733 0.945474 -0.225149
O45   O     O_2   0.147391 0.060179 0.021158 -0.282853
O46   O     O_R   0.500020 0.560630 0.092620 -0.546636
O47   O     O_3   0.241734 0.985401 0.056361 -0.432816
O48   O     O_2   0.572935 0.327502 0.932891 -0.199097
O49   O     O_2   0.683184 0.347246 0.983901 -0.143269
O50   O     O_3   0.664011 0.416029 0.059951 -0.541029
O51   O     O_2   0.449797 0.707530 0.190684 -0.205849
O52   O     O_2   0.442748 0.674442 0.076773 -0.196708
O53   O     O_3   0.327502 0.678916 0.026117 -0.435449
O54   O     O_2   0.347564 0.462906 0.972622 -0.298432
O55   O     O_2   0.269049 0.534246 0.962541 -0.202847
O56   O     O_3   0.332548 0.594384 0.938669 -0.509261
O57   O     O_R   0.500020 0.439370 0.092620 -0.545518
O58   O     O_2   0.677908 0.588162 0.945963 -0.227289
O59   O     O_2   0.647805 0.557547 0.021031 -0.293452
O60   O     O_3   0.741465 0.481983 0.055574 -0.447994
O61   O     O_2   0.111368 0.829737 0.824277 -0.450578
O62   O     O_R   0.069498 0.869035 0.694556 -0.823686
O63   O     O_2   0.819351 0.111224 0.124927 -0.488006
O64   O     O_R   0.914113 0.130040 0.281074 -0.794633
O65   O     O_2   0.812813 0.980514 0.159780 -0.553047
O66   O     O_R   0.861126 0.892510 0.152476 -0.701509
O67   O     O_2   0.210358 0.945577 0.911449 -0.513086
O68   O     O_R   0.499980 0.560630 0.907380 -0.543092
O69   O     O_R   0.168579 0.042463 0.818664 -0.745490
O70   O     O_2   0.564079 0.370902 0.695629 -0.663941
O71   O     O_R   0.618353 0.320397 0.828659 -0.627125
O72   O     O_2   0.447487 0.635545 0.310475 -0.658951
O73   O     O_R   0.341311 0.654125 0.154795 -0.672694
O74   O     O_2   0.317492 0.516102 0.174521 -0.571477
O75   O     O_R   0.306458 0.453193 0.078244 -0.664065
O76   O     O_2   0.665684 0.533711 0.821999 -0.569198
O77   O     O_R   0.716258 0.435452 0.916899 -0.688758
O78   O     O_R   0.939350 0.892680 0.439340 -0.584152
O79   O     O_R   0.060650 0.107320 0.560660 -0.573953
O80   O     O_R   0.060650 0.892680 0.560660 -0.608513
O81   O     O_R   0.107340 0.060630 0.107350 -0.587872
O82   O     O_R   0.939350 0.107320 0.439340 -0.596826
O83   O     O_R   0.439350 0.392680 0.439340 -0.609661
O84   O     O_R   0.560650 0.607320 0.560660 -0.591667
O85   O     O_R   0.560650 0.392680 0.560660 -0.573577
O86   O     O_R   0.439350 0.607320 0.439340 -0.583935
O87   O     O_R   0.939380 0.000000 0.531980 -0.556072
O88   O     O_R   0.060620 0.000000 0.468020 -0.545024
O89   O     O_R   0.439380 0.500000 0.531980 -0.558534
O90   O     O_R   0.560620 0.500000 0.468020 -0.570579
O91   O     O_R   0.060570 0.000000 0.653170 -0.553054
O92   O     O_R   0.107340 0.939370 0.107350 -0.588809
O93   O     O_R   0.939430 0.000000 0.346830 -0.578162
O94   O     O_R   0.560570 0.500000 0.653170 -0.562944
O95   O     O_R   0.439430 0.500000 0.346830 -0.566248
O96   O     O_R   0.499910 0.107290 0.447610 -0.604604
O97   O     O_R   0.500090 0.892710 0.552390 -0.592165
O98   O     O_R   0.500090 0.107290 0.552390 -0.598204
O99   O     O_R   0.499910 0.892710 0.447610 -0.596576
O100  O     O_R   0.999910 0.607290 0.447610 -0.607073
O101  O     O_R   0.000090 0.392710 0.552390 -0.590529
O102  O     O_R   0.000090 0.607290 0.552390 -0.595476
O103  O     O_R   0.892660 0.060630 0.892650 -0.599592
O104  O     O_R   0.999910 0.392710 0.447610 -0.608233
O105  O     O_R   0.607280 0.000000 0.555010 -0.594212
O106  O     O_R   0.392720 0.000000 0.444990 -0.600776
O107  O     O_R   0.107280 0.500000 0.555010 -0.592966
O108  O     O_R   0.892720 0.500000 0.444990 -0.605236
O109  O     O_R   0.607300 0.000000 0.659580 -0.608802
O110  O     O_R   0.392700 1.000000 0.340420 -0.606337
O111  O     O_R   0.107300 0.500000 0.659580 -0.592727
O112  O     O_R   0.892700 0.500000 0.340420 -0.609525
O113  O     O_2   0.932979 0.823546 0.799519 -0.197802
O114  O     O_R   0.392660 0.439370 0.892650 -0.573219
O115  O     O_2   0.875597 0.797613 0.646629 -0.181306
O116  O     O_3   0.010197 0.788906 0.784084 -0.441065
O117  O     O_2   0.142724 0.195730 0.342900 -0.149590
O118  O     O_2   0.114270 0.136051 0.220621 -0.251745
O119  O     O_3   0.016916 0.211540 0.174282 -0.431820
O120  O     O_2   0.956859 0.815174 0.083076 -0.213363
O121  O     O_2   0.959876 0.762677 0.183743 -0.190122
O122  O     O_3   0.853357 0.836637 0.050361 -0.411165
O123  O     O_2   0.016693 0.241251 0.804626 -0.195662
O124  O     O_2   0.004445 0.190493 0.890696 -0.230790
O125  O     O_R   0.607340 0.560630 0.107350 -0.591966
O126  O     O_3   0.126830 0.183717 0.960861 -0.399897
O127  O     O_2   0.433844 0.324088 0.799228 -0.195412
O128  O     O_2   0.374225 0.298767 0.645225 -0.182217
O129  O     O_3   0.509451 0.292767 0.780005 -0.470750
O130  O     O_2   0.672235 0.658651 0.389864 -0.180477
O131  O     O_2   0.628799 0.626655 0.245731 -0.252425
O132  O     O_3   0.558376 0.713659 0.240198 -0.396743
O133  O     O_2   0.423918 0.332855 0.038274 -0.230026
O134  O     O_2   0.418689 0.268691 0.126632 -0.154764
O135  O     O_3   0.324642 0.364373 0.016225 -0.401519
O136  O     O_R   0.607340 0.439370 0.107350 -0.590654
O137  O     O_2   0.520227 0.741158 0.808799 -0.190346
O138  O     O_2   0.507589 0.690229 0.894301 -0.228515
O139  O     O_3   0.629743 0.681820 0.963997 -0.403343
O140  O     O_2   0.854190 0.947293 0.744611 -0.335825
O141  O     O_2   0.786063 0.008103 0.598388 -0.211308
O142  O     O_3   0.782550 0.873635 0.596630 -0.403558
O143  O     O_2   0.203485 0.982226 0.439658 -0.250862
O144  O     O_2   0.158691 0.980300 0.289028 -0.329107
O145  O     O_3   0.226986 0.090096 0.397738 -0.403476
O146  O     O_2   0.095899 0.850655 0.207770 -0.238873
O147  O     O_R   0.392660 0.560630 0.892650 -0.595422
O148  O     O_2   0.175467 0.866031 0.372170 -0.183451
O149  O     O_3   0.089796 0.762085 0.288972 -0.401426
O150  O     O_2   0.887165 0.207491 0.703616 -0.150414
O151  O     O_2   0.833967 0.110695 0.595252 -0.268415
O152  O     O_3   0.865109 0.093229 0.741225 -0.508801
O153  O     O_2   0.353399 0.444616 0.743701 -0.334808
O154  O     O_2   0.286756 0.511374 0.601377 -0.206651
O155  O     O_3   0.280519 0.376902 0.591314 -0.403139
O156  O     O_2   0.700374 0.432740 0.410952 -0.196661
O157  O     O_2   0.653517 0.479086 0.269222 -0.340136
O158  O     O_R   0.999980 0.939370 0.907380 -0.539621
O159  O     O_3   0.739804 0.554638 0.418735 -0.414722
O160  O     O_2   0.601656 0.359102 0.232665 -0.215182
O161  O     O_2   0.628737 0.332563 0.365399 -0.230292
O162  O     O_3   0.543705 0.252271 0.223326 -0.419267
O163  O     O_2   0.390329 0.709008 0.707217 -0.156308
O164  O     O_2   0.335549 0.612977 0.597406 -0.269723
O165  O     O_3   0.367054 0.594815 0.743546 -0.511549
O166  O     O_2   0.793184 0.947531 0.498562 -0.492675
O167  O     O_R   0.836199 0.046395 0.495012 -0.736328
O168  O     O_2   0.191807 0.114452 0.477298 -0.492092
S1    S     S_3+6 0.939237 0.837949 0.739132 0.147604
S2    S     S_3+6 0.164623 0.024023 0.352158 0.099194
S3    S     S_3+6 0.097248 0.851462 0.276908 0.161557
S4    S     S_3+6 0.891278 0.125069 0.699667 0.125482
S5    S     S_3+6 0.337814 0.448285 0.662519 0.120212
S6    S     S_3+6 0.666433 0.497297 0.346715 0.120168
S7    S     S_3+6 0.568664 0.340848 0.259379 0.147219
S8    S     S_3+6 0.393337 0.626552 0.702046 0.122639
S9    S     S_3+6 0.122978 0.887403 0.957242 0.159682
S10   S     S_3+6 0.890498 0.130163 0.081390 0.120999
S11   S     S_3+6 0.839295 0.988393 0.007433 0.101735
S12   S     S_3+6 0.084331 0.150846 0.252844 0.167781
S13   S     S_3+6 0.160374 0.030430 0.971745 0.100217
S14   S     S_3+6 0.621646 0.385099 0.955244 0.162337
S15   S     S_3+6 0.417351 0.654329 0.113706 0.141689
S16   S     S_3+6 0.341951 0.531394 0.003531 0.111015
S17   S     S_3+6 0.660554 0.527744 0.971409 0.090304
S18   S     S_3+6 0.945488 0.833626 0.137302 0.165777
S19   S     S_3+6 0.035651 0.174246 0.860336 0.176803
S20   S     S_3+6 0.438282 0.339506 0.737094 0.141092
S21   S     S_3+6 0.605520 0.634938 0.287317 0.158112
S22   S     S_3+6 0.414043 0.344600 0.095069 0.172598
S23   S     S_3+6 0.538395 0.673717 0.863456 0.179679
S24   S     S_3+6 0.838526 0.946844 0.663314 0.120412
Zn1   Zn    Zn3+2 0.000000 0.919050 0.000000 1.264085
Zn2   Zn    Zn3+2 0.500050 0.000000 0.569860 1.091354
Zn3   Zn    Zn3+2 0.999950 0.500000 0.430140 1.076297
Zn4   Zn    Zn3+2 0.000050 0.500000 0.569860 1.101732
Zn5   Zn    Zn3+2 0.000000 0.080950 0.000000 1.240195
Zn6   Zn    Zn3+2 0.500000 0.419050 0.000000 1.258458
Zn7   Zn    Zn3+2 0.500000 0.580950 0.000000 1.246450
Zn8   Zn    Zn3+2 0.919050 0.000000 0.419040 1.154727
Zn9   Zn    Zn3+2 0.080950 0.000000 0.580960 1.137143
Zn10  Zn    Zn3+2 0.419050 0.500000 0.419040 1.150161
Zn11  Zn    Zn3+2 0.580950 0.500000 0.580960 1.155173
Zn12  Zn    Zn3+2 0.499950 1.000000 0.430140 1.087373

loop_
_geom_bond_atom_site_label_1
_geom_bond_atom_site_label_2
_ccdc_geom_bond_type
O145  S2    S    
O161  S7    D    
C40   C71   S    
C35   C53   S    
O148  S3    D    
C89   O80   A    
C87   O32   D    
H16   O14   S    
C52   S16   S    
O143  S2    D    
H13   O7    S    
O97   Zn2   S    
C77   O12   D    
H34   O126  S    
O57   Zn6   S    
C36   S5    S    
O102  Zn4   S    
H32   O53   S    
C43   C58   S    
O36   S9    D    
O116  S1    S    
C95   O75   S    
C5    O87   A    
O58   S17   D    
C91   O65   D    
O142  S24   S    
C84   O27   S    
O118  S12   D    
O90   Zn11  S    
C93   O70   D    
C52   S15   S    
H20   O22   S    
C18   C25   T    
C91   O66   S    
C14   C45   S    
C40   C58   S    
O86   Zn10  S    
C73   O4    D    
C47   C86   S    
O111  Zn4   S    
H2    O145  S    
O164  S8    D    
C79   O16   S    
C28   C54   S    
C29   C55   S    
C44   C84   S    
C96   O76   D    
C62   C88   S    
O47   S13   S    
C86   O30   D    
C87   O33   S    
O158  Zn1   S    
O37   S9    S    
C32   S2    S    
C9    O96   A    
C37   S6    S    
C48   C87   S    
C31   S24   S    
H35   O60   S    
C35   S19   S    
O95   Zn10  S    
O100  Zn3   S    
O146  S3    D    
O105  Zn12  S    
C36   C44   S    
O2    Zn5   S    
C2    O82   A    
C29   O68   A    
C42   C73   S    
C49   C62   S    
C36   S20   S    
C2    C19   S    
O91   Zn9   S    
C18   C89   S    
H47   O139  S    
C51   C64   S    
O109  Zn2   S    
C27   C53   S    
C51   S14   S    
C76   O11   S    
C59   C63   S    
O138  S23   D    
C60   C64   S    
O43   S11   S    
H27   O37   S    
C36   C55   S    
H25   O31   S    
H22   O27   S    
O130  S21   D    
C49   C53   S    
C83   O25   S    
C17   C78   S    
O34   S9    D    
C51   C55   S    
O88   Zn9   S    
C61   C65   S    
C13   O104  A    
C96   O77   S    
C29   O35   A    
C21   C24   T    
C63   C91   S    
C17   O108  A    
H15   O11   S    
C37   C57   S    
C52   C65   S    
O80   Zn9   S    
C82   O21   D    
C39   S23   S    
H26   O33   S    
O38   S10   D    
C6    O88   A    
C43   C83   S    
C1    O1    A    
O83   Zn10  S    
O153  S5    D    
O55   S16   D    
C14   O105  A    
C12   C68   S    
O50   S14   S    
C5    C58   S    
O40   S10   S    
C33   C42   S    
H5    O155  S    
C84   O26   D    
C16   O111  A    
O99   Zn12  S    
C11   C25   S    
O42   S11   D    
C38   S7    S    
O131  S21   D    
O85   Zn11  S    
O119  S12   S    
C51   S17   S    
O84   Zn11  S    
C32   C41   S    
O106  Zn2   S    
C35   C43   S    
H43   O77   S    
C50   C63   S    
C10   O97   A    
O110  Zn12  S    
H8    O165  S    
H48   O142  S    
O49   S14   D    
O134  S22   D    
C1    O103  A    
O160  S7    D    
C10   C24   S    
C56   C68   T    
C83   O23   D    
C94   O73   S    
H10   O3    S    
H44   O129  S    
C75   O9    S    
O96   Zn12  S    
C16   C67   S    
O154  S5    D    
C80   O18   S    
C49   S9    S    
C90   O64   S    
H42   O75   S    
O48   S14   D    
C81   O20   S    
C74   O7    S    
H41   O73   S    
C33   C54   S    
O137  S23   D    
C6    C59   S    
O101  Zn4   S    
C42   C59   S    
O13   Zn1   S    
C72   O3    S    
C27   O24   A    
C28   O2    A    
C32   S12   S    
C46   C85   S    
O104  Zn3   S    
C33   S3    S    
H14   O9    S    
H9    O167  S    
O122  S18   S    
O141  S24   D    
C37   S21   S    
O151  S4    D    
C76   O10   D    
O114  Zn6   S    
C64   C96   S    
C30   O46   A    
O140  S24   D    
C48   C79   S    
H11   O5    S    
H21   O25   S    
C65   C95   S    
O39   S10   D    
O124  S19   D    
O108  Zn4   S    
H1    O116  S    
C35   S4    S    
C8    O90   A    
C58   C62   S    
C13   O101  A    
C17   O112  A    
O152  S4    S    
O46   Zn7   S    
C88   O61   D    
H4    O152  S    
C3    O85   A    
O159  S6    S    
H37   O64   S    
C50   C54   S    
C27   O158  A    
O103  Zn5   S    
C79   O15   D    
O165  S8    S    
H18   O18   S    
C93   O71   S    
C13   C26   S    
H38   O66   S    
C30   C57   S    
C31   C40   S    
C86   O31   S    
O162  S7    S    
C19   C26   T    
H6    O159  S    
C39   C55   S    
C23   O114  A    
O129  S20   S    
C34   C70   S    
O78   Zn8   S    
C77   O14   S    
H40   O71   S    
O81   Zn5   S    
C32   C54   S    
C16   O107  A    
C6    O93   A    
C46   C61   S    
C10   O99   A    
O53   S15   S    
O60   S17   S    
H23   O122  S    
C50   S10   S    
C33   S18   S    
C7    O94   A    
H7    O162  S    
C41   C81   S    
O125  Zn7   S    
O120  S18   D    
O92   Zn1   S    
C3    C20   S    
O94   Zn11  S    
C71   O166  D    
O149  S3    S    
O150  S4    D    
O115  S1    D    
O35   Zn6   S    
C20   C22   T    
C3    O83   A    
C7    C60   S    
O155  S5    S    
C82   O22   S    
C30   O57   A    
C73   O5    S    
C11   O102  A    
O163  S8    D    
H3    O149  S    
O107  Zn3   S    
O24   Zn5   S    
C47   C61   S    
O139  S23   S    
H28   O40   S    
C15   O106  A    
C50   S11   S    
C23   O147  A    
H29   O43   S    
C49   S13   S    
C15   C56   S    
C44   C60   S    
C28   O13   A    
C4    O84   A    
H30   O47   S    
C52   C57   S    
O156  S6    D    
O89   Zn10  S    
O45   S13   D    
C38   S22   S    
C37   C46   S    
C39   C48   S    
C7    O89   A    
H36   O62   S    
C70   C78   T    
C23   C69   S    
C42   C82   S    
O144  S2    D    
O93   Zn8   S    
C46   C76   S    
O59   S17   D    
O132  S21   S    
O52   S15   D    
C64   C93   S    
O51   S15   D    
C9    C22   S    
C38   C57   S    
O157  S6    D    
C95   O74   D    
H12   O119  S    
H19   O20   S    
O82   Zn8   S    
O54   S16   D    
O147  Zn7   S    
C62   C92   S    
O133  S22   D    
C85   O29   S    
C40   C80   S    
C34   O125  A    
O68   Zn7   S    
C8    C61   S    
C31   S1    S    
C43   C74   S    
O127  S20   D    
H17   O16   S    
C11   O100  A    
C81   O19   D    
O117  S12   D    
C9    O98   A    
O79   Zn9   S    
C48   C60   S    
C85   O28   D    
O1    Zn1   S    
C92   O69   S    
C41   C59   S    
H31   O50   S    
C89   O78   A    
O87   Zn8   S    
C67   C69   T    
C4    O86   A    
C44   C75   S    
C39   S8    S    
O113  S1    D    
O56   S16   S    
C75   O8    D    
C1    C66   S    
C31   C53   S    
C38   C47   S    
O41   S11   D    
C41   C72   S    
C65   C94   S    
O112  Zn3   S    
O121  S18   D    
C47   C77   S    
C71   O167  S    
C72   O168  D    
C8    O95   A    
C12   O92   A    
C34   O136  A    
O128  S20   D    
C88   O62   S    
H46   O135  S    
C94   O72   D    
O126  S19   S    
O98   Zn2   S    
O123  S19   D    
C4    C21   S    
O44   S13   D    
C12   O81   A    
H39   O69   S    
C14   O109  A    
C63   C90   S    
C2    O79   A    
O135  S22   S    
C80   O17   D    
H33   O56   S    
C90   O63   D    
H24   O29   S    
C5    O91   A    
C45   C66   T    
C74   O6    D    
C92   O67   D    
H45   O132  S    
O136  Zn6   S    
C15   O110  A    
