data_mof_unit_46544.cif
_audit_creation_date              2012-12-11T14:07:20-0500
_audit_creation_method            fapswitch 2.2
_symmetry_space_group_name_H-M    P1
_symmetry_Int_Tables_number       1
_space_group_crystal_system       triclinic
_cell_length_a                    19.640917
_cell_length_b                    17.239868
_cell_length_c                    15.329208
_cell_angle_alpha                 90.026284
_cell_angle_beta                  54.005946
_cell_angle_gamma                 90.080028
_cell_volume                      4199.57491425

loop_
_atom_site_label
_atom_site_type_symbol
_atom_type_description
_atom_site_fract_x
_atom_site_fract_y
_atom_site_fract_z
_atom_type_partial_charge
C1    C     C_R   0.372765 0.195928 0.999318 -0.144133
C2    C     C_R   0.374125 0.803414 0.996901 -0.212811
C3    C     C_R   0.875757 0.697264 0.995018 -0.173206
C4    C     C_R   0.840602 0.325398 0.049379 -0.177152
C5    C     C_R   0.669038 0.917340 0.052112 -0.081775
C6    C     C_R   0.635761 0.104625 0.103018 -0.106580
C7    C     C_R   0.164049 0.411625 0.061520 -0.102671
C8    C     C_R   0.166236 0.587337 0.057494 -0.085995
C9    C     C_R   0.654722 0.181881 0.068715 0.124912
C10   C     C_R   0.709938 0.853422 0.984185 0.113543
C11   C     C_R   0.207608 0.649828 0.987395 0.125855
C12   C     C_R   0.204838 0.348699 0.992955 0.128506
C13   C     C_R   0.606154 0.814362 0.698554 0.118278
C14   C     C_R   0.606226 0.185673 0.700357 0.148356
C15   C     C_R   0.099937 0.313388 0.703854 0.156738
C16   C     C_R   0.104365 0.685781 0.699579 0.095582
C17   C     C_3   0.255682 0.151940 0.522733 -0.036184
C18   C     C_3   0.205807 0.872163 0.529489 -0.051769
C19   C     C_3   0.704731 0.626851 0.529350 -0.045958
C20   C     C_3   0.765439 0.345256 0.518753 -0.032243
C21   C     C_3   0.175894 0.186194 0.625198 0.112188
C22   C     C_3   0.136947 0.824561 0.630410 0.109818
C23   C     C_3   0.637010 0.675087 0.630379 0.103238
C24   C     C_3   0.684435 0.311954 0.620821 0.111554
C25   C     C_3   0.318550 0.283368 0.435912 0.164965
C26   C     C_3   0.303620 0.755258 0.436789 0.130278
C27   C     C_3   0.803814 0.743038 0.435360 0.128813
C28   C     C_3   0.828748 0.212889 0.437343 0.164815
C29   C     C_3   0.675377 0.720336 0.429365 0.253484
C30   C     C_3   0.716167 0.275941 0.420589 0.302535
C31   C     C_3   0.202425 0.218766 0.427502 0.306176
C32   C     C_3   0.176128 0.778961 0.429196 0.257322
C33   C     C_3   0.284289 0.206031 0.422635 -0.180539
C34   C     C_3   0.250745 0.817380 0.425375 -0.164727
C35   C     C_3   0.749894 0.681250 0.424895 -0.161673
C36   C     C_3   0.796489 0.289421 0.419368 -0.184641
C37   C     C_3   0.653792 0.763968 0.602100 -0.170656
C38   C     C_3   0.673297 0.224901 0.599831 -0.188883
C39   C     C_3   0.164803 0.273019 0.603057 -0.185890
C40   C     C_3   0.152860 0.735590 0.602822 -0.171921
C41   C     C_3   0.750133 0.776378 0.550370 0.083235
C42   C     C_3   0.761507 0.185035 0.553879 0.043663
C43   C     C_3   0.254102 0.312629 0.552364 0.043287
C44   C     C_3   0.248976 0.722232 0.551943 0.078747
C45   C     C_R   0.351447 0.827538 0.219041 0.013326
C46   C     C_R   0.376631 0.190447 0.217901 0.010288
C47   C     C_R   0.888415 0.305367 0.215301 0.001478
C48   C     C_R   0.850491 0.671177 0.218688 0.006407
C49   C     C_3   0.636266 0.783751 0.516796 0.183387
C50   C     C_3   0.655917 0.220735 0.512844 0.139242
C51   C     C_3   0.144344 0.275662 0.518853 0.127169
C52   C     C_3   0.135763 0.715896 0.517096 0.186312
C53   C     C_2   0.280949 0.687974 0.967267 -0.154514
C54   C     C_2   0.275530 0.309486 0.977271 -0.117849
C55   C     C_2   0.696315 0.237720 0.093368 -0.157069
C56   C     C_2   0.783386 0.815141 0.964966 -0.091256
C57   C     C_2   0.714353 0.309011 0.049375 -0.077813
C58   C     C_2   0.813656 0.750917 0.904110 -0.070382
C59   C     C_2   0.310871 0.752213 0.906755 -0.027372
C60   C     C_2   0.307478 0.247471 0.913091 -0.090445
C61   C     C_R   0.367079 0.886924 0.894773 0.507556
C62   C     C_R   0.362562 0.111099 0.900216 0.579085
C63   C     C_R   0.830009 0.409784 0.950292 0.514469
C64   C     C_R   0.869386 0.613796 0.892211 0.550904
C65   C     C_R   0.388420 0.099784 0.312339 -0.176248
C66   C     C_R   0.358507 0.920911 0.313309 -0.134286
C67   C     C_R   0.857167 0.577381 0.312623 -0.130470
C68   C     C_R   0.896354 0.397957 0.309456 -0.176980
C69   C     C_R   0.343581 0.186580 0.938097 -0.052315
C70   C     C_R   0.346670 0.812365 0.933841 0.050637
C71   C     C_R   0.849842 0.689487 0.930067 -0.045168
C72   C     C_R   0.787682 0.350506 0.024803 0.050585
C73   C     C_R   0.309898 0.859614 0.322198 0.149786
C74   C     C_R   0.349948 0.168519 0.320661 0.167222
C75   C     C_R   0.863985 0.326027 0.317267 0.172928
C76   C     C_R   0.808359 0.638552 0.321678 0.150379
C77   C     C_R   0.626491 0.198133 0.007325 -0.068166
C78   C     C_R   0.659755 0.822278 0.956458 -0.055549
C79   C     C_R   0.158743 0.678917 0.957195 -0.056935
C80   C     C_R   0.157354 0.319976 0.960255 -0.076890
C81   C     C_R   0.598667 0.801233 0.792781 -0.234397
C82   C     C_R   0.599287 0.198200 0.793968 -0.207414
C83   C     C_R   0.095600 0.301290 0.795696 -0.223113
C84   C     C_R   0.097749 0.698868 0.793248 -0.238810
C85   C     C_R   0.583514 0.108656 0.702653 0.485945
C86   C     C_R   0.591573 0.892680 0.697373 0.570132
C87   C     C_R   0.090225 0.607426 0.698185 0.622331
C88   C     C_R   0.079270 0.390808 0.705576 0.491017
H1    H     H_    0.381459 0.249672 0.027806 0.133629
H2    H     H_    0.383627 0.749345 0.023811 0.142671
H3    H     H_    0.885117 0.751127 0.022622 0.140653
H4    H     H_    0.832906 0.276082 0.097103 0.155220
H5    H     H_    0.240914 0.092815 0.509031 0.184746
H6    H     H_    0.176593 0.922251 0.517352 0.191083
H7    H     H_    0.674421 0.577175 0.518114 0.193928
H8    H     H_    0.751039 0.403645 0.502640 0.183303
H9    H     H_    0.186006 0.183834 0.688871 0.157602
H10   H     H_    0.141996 0.837297 0.697133 0.170265
H11   H     H_    0.642769 0.662336 0.696514 0.168712
H12   H     H_    0.693051 0.315182 0.685797 0.166292
H13   H     H_    0.378796 0.271846 0.425101 0.180818
H14   H     H_    0.359044 0.784034 0.425559 0.179625
H15   H     H_    0.859167 0.713873 0.423643 0.179382
H16   H     H_    0.887652 0.225060 0.429738 0.183356
H17   H     H_    0.764594 0.741977 0.598968 0.153570
H18   H     H_    0.781457 0.206207 0.604264 0.170200
H19   H     H_    0.275948 0.292282 0.600928 0.163963
H20   H     H_    0.263402 0.756395 0.600800 0.160312
H21   H     H_    0.626759 0.674897 0.454903 0.196488
H22   H     H_    0.684196 0.333026 0.437932 0.180820
H23   H     H_    0.169554 0.161836 0.448229 0.182175
H24   H     H_    0.128236 0.824855 0.453871 0.197390
H25   H     H_    0.668352 0.839309 0.477817 0.186110
H26   H     H_    0.670845 0.161011 0.480009 0.117817
H27   H     H_    0.159239 0.334922 0.484300 0.120074
H28   H     H_    0.167241 0.660058 0.478785 0.185279
H29   H     H_    0.336479 0.775783 0.194643 0.164364
H30   H     H_    0.365895 0.243799 0.191240 0.154266
H31   H     H_    0.884542 0.249228 0.187584 0.150825
H32   H     H_    0.835126 0.722607 0.194311 0.165128
H33   H     H_    0.298752 0.671203 0.019420 0.144326
H34   H     H_    0.289370 0.323479 0.034273 0.138601
H35   H     H_    0.723503 0.215261 0.132497 0.161064
H36   H     H_    0.800538 0.831325 0.018025 0.136452
H37   H     H_    0.684774 0.332548 0.013931 0.165072
H38   H     H_    0.798076 0.737521 0.848817 0.129899
H39   H     H_    0.295065 0.767563 0.852079 0.172354
H40   H     H_    0.295210 0.236250 0.854029 0.135331
H41   H     H_    0.392611 0.070459 0.370541 0.191005
H42   H     H_    0.346346 0.959218 0.374643 0.170597
H43   H     H_    0.843345 0.536986 0.373085 0.169021
H44   H     H_    0.901133 0.428902 0.366400 0.189914
H45   H     H_    0.621674 0.253246 0.978012 0.104428
H46   H     H_    0.669951 0.771140 0.909566 0.103096
H47   H     H_    0.168855 0.729437 0.909376 0.106990
H48   H     H_    0.166842 0.268669 0.913913 0.101312
H49   H     H_    0.601245 0.746339 0.824508 0.144033
H50   H     H_    0.600966 0.252637 0.827463 0.148079
H51   H     H_    0.094256 0.246475 0.830692 0.149555
H52   H     H_    0.100192 0.753793 0.825079 0.148690
H53   H     H_    0.690151 0.951038 0.091491 0.114844
H54   H     H_    0.640862 0.078238 0.162944 0.120530
H55   H     H_    0.179998 0.437824 0.111141 0.111643
H56   H     H_    0.184069 0.560421 0.104640 0.111131
N1    N     N_R   0.408680 0.130160 0.995800 -0.085264
N2    N     N_R   0.408680 0.869840 0.995800 -0.080009
N3    N     N_R   0.908680 0.630160 0.995800 -0.088055
N4    N     N_R   0.908680 0.369840 0.995800 -0.082152
N5    N     N_R   0.421680 0.867580 0.153120 -0.063266
N6    N     N_R   0.421680 0.132420 0.153120 -0.067615
N7    N     N_R   0.921680 0.367580 0.153120 -0.065329
N8    N     N_R   0.921680 0.632420 0.153120 -0.064354
N9    N     N_R   0.403730 0.921770 0.935950 -0.123604
N10   N     N_R   0.403730 0.078230 0.935950 -0.092219
N11   N     N_R   0.903730 0.421770 0.935950 -0.102157
N12   N     N_R   0.903730 0.578230 0.935950 -0.097184
N13   N     N_R   0.426630 0.075970 0.212960 -0.057140
N14   N     N_R   0.426630 0.924030 0.212960 -0.050584
N15   N     N_R   0.926630 0.575970 0.212960 -0.050618
N16   N     N_R   0.926630 0.424030 0.212960 -0.058532
N17   N     N_R   0.591320 0.134600 0.004200 -0.048475
N18   N     N_R   0.591320 0.865400 0.004200 -0.047729
N19   N     N_R   0.091320 0.634600 0.004200 -0.048460
N20   N     N_R   0.091320 0.365400 0.004200 -0.051399
N21   N     N_R   0.578320 0.867660 0.846880 -0.065152
N22   N     N_R   0.578320 0.132340 0.846880 -0.064928
N23   N     N_R   0.078320 0.367660 0.846880 -0.064682
N24   N     N_R   0.078320 0.632340 0.846880 -0.069561
N25   N     N_R   0.573370 0.074390 0.787040 -0.073284
N26   N     N_R   0.573370 0.925610 0.787040 -0.104727
N27   N     N_R   0.073370 0.574390 0.787040 -0.102405
N28   N     N_R   0.073370 0.425610 0.787040 -0.069569
N29   N     N_R   0.596270 0.927870 0.064040 -0.049247
N30   N     N_R   0.596270 0.072130 0.064040 -0.048010
N31   N     N_R   0.096270 0.427870 0.064040 -0.048223
N32   N     N_R   0.096270 0.572130 0.064040 -0.048913
Ni1   Ni    Ni4+2 0.500000 0.131190 0.000000 0.227993
Ni2   Ni    Ni4+2 0.500000 0.868810 0.000000 0.237721
Ni3   Ni    Ni4+2 1.000000 0.631190 0.000000 0.235590
Ni4   Ni    Ni4+2 1.000000 0.368810 0.000000 0.233423
Ni5   Ni    Ni4+2 0.488650 0.000000 0.862740 0.310049
Ni6   Ni    Ni4+2 0.988650 0.500000 0.862740 0.326332
Ni7   Ni    Ni4+2 0.511350 0.000000 0.137260 0.257525
Ni8   Ni    Ni4+2 0.011350 0.500000 0.137260 0.258112
Br1   Br    Br    0.522898 0.639001 0.691722 -0.420307
Br2   Br    Br    0.587274 0.379238 0.674436 -0.413208
Br3   Br    Br    0.077936 0.118924 0.682895 -0.404508
Br4   Br    Br    0.023605 0.861682 0.689899 -0.418568
O1    O     O_3   0.694735 0.747792 0.330603 -0.722376
H57   H     H_    0.717984 0.800975 0.316776 0.350627
O2    O     O_3   0.730992 0.251717 0.322896 -0.748023
H58   H     H_    0.743091 0.195477 0.312569 0.349086
O3    O     O_3   0.215322 0.240658 0.330155 -0.725723
H59   H     H_    0.225570 0.297169 0.318852 0.351716
O4    O     O_3   0.195705 0.751333 0.330382 -0.722098
H60   H     H_    0.218392 0.698014 0.317103 0.350970
Br5   Br    Br    0.518059 0.798972 0.572928 -0.323643
Br6   Br    Br    0.540077 0.242189 0.562432 -0.362750
Br7   Br    Br    0.027119 0.254814 0.573968 -0.347435
Br8   Br    Br    0.017653 0.701802 0.572065 -0.352539
Br9   Br    Br    0.350172 0.361671 0.324534 -0.466141
Br10  Br    Br    0.353539 0.673302 0.325971 -0.448782
Br11  Br    Br    0.854028 0.824919 0.324296 -0.449643
Br12  Br    Br    0.863569 0.133154 0.326726 -0.449847
Br13  Br    Br    0.789502 0.877450 0.562481 -0.339847
Br14  Br    Br    0.769012 0.073809 0.570404 -0.402375
Br15  Br    Br    0.264473 0.424138 0.564485 -0.409814
Br16  Br    Br    0.287055 0.620756 0.564957 -0.344961
O5    O     O_3   0.375180 0.910710 0.803655 -0.657767
H61   H     H_    0.418427 0.952046 0.770693 0.393468
O6    O     O_3   0.355128 0.077722 0.824745 -0.684106
H62   H     H_    0.323023 0.113238 0.810867 0.343554
O7    O     O_3   0.809510 0.437251 0.884614 -0.698395
H63   H     H_    0.863515 0.449816 0.815148 0.406223
O8    O     O_3   0.877252 0.585640 0.802773 -0.690495
H64   H     H_    0.852295 0.623410 0.780626 0.350955
O9    O     O_3   0.535376 0.085005 0.669416 -0.686600
H65   H     H_    0.570963 0.086998 0.590125 0.350700
O10   O     O_3   0.597871 0.932203 0.615691 -0.716191
H66   H     H_    0.635010 0.976676 0.600279 0.351747
O11   O     O_3   0.093894 0.568240 0.617999 -0.693812
H67   H     H_    0.128674 0.522115 0.603399 0.349449
O12   O     O_3   0.028504 0.415272 0.676756 -0.709606
H68   H     H_    0.060054 0.408909 0.598237 0.353545
Br17  Br    Br    0.341214 0.138143 0.551332 -0.467213
Br18  Br    Br    0.278308 0.917151 0.567281 -0.482342
Br19  Br    Br    0.777664 0.580774 0.565481 -0.503003
Br20  Br    Br    0.848892 0.362028 0.550088 -0.435475

loop_
_geom_bond_atom_site_label_1
_geom_bond_atom_site_label_2
_ccdc_geom_bond_type
C61   C70   A    
C43   H19   S    
C49   H25   S    
C3    N3    A    
C88   N28   A    
N6    N13   A    
C81   N21   A    
C48   C76   A    
N27   Ni6   S    
C1    N1    A    
O12   H68   S    
C16   C84   A    
C45   C73   A    
C25   C43   S    
C6    C9    A    
C7    H55   S    
C50   Br6   S    
N11   Ni6   S    
C26   C44   S    
C48   H32   S    
N18   N29   A    
C54   C60   D    
O7    H63   S    
C68   C75   A    
C81   H49   S    
N2    Ni2   S    
C41   H17   S    
C30   H22   S    
C27   Br11  S    
C56   H36   S    
C29   H21   S    
C26   Br10  S    
C38   C42   S    
C52   H28   S    
C25   Br9   S    
C57   H37   S    
C58   C71   S    
C59   H39   S    
C4    N4    A    
N10   Ni5   S    
C13   C81   A    
C44   Br16  S    
C37   C49   S    
C46   H30   S    
N20   N31   A    
C24   Br2   S    
C64   C71   A    
C66   N14   A    
C68   H44   S    
C85   O9    S    
C32   C52   S    
C19   Br19  S    
C18   Br18  S    
C39   C51   S    
C17   Br17  S    
C26   C34   S    
N24   N27   A    
C80   N20   A    
C20   C24   S    
C7    N31   A    
C13   C86   A    
C16   C87   A    
C24   C38   S    
C62   O6    S    
C31   C33   S    
C52   Br8   S    
N4    N11   A    
N15   Ni8   S    
C6    H54   S    
C18   C22   S    
C10   C56   S    
N5    N14   A    
C13   C37   S    
N20   Ni4   S    
C53   H33   S    
C47   H31   S    
N23   Ni4   S    
C20   H8    S    
N8    N15   A    
C22   C40   S    
N4    Ni4   S    
C24   H12   S    
C77   H45   S    
C84   H52   S    
C37   C41   S    
N21   Ni2   S    
C28   C42   S    
C11   C79   A    
C17   C33   S    
C32   O4    S    
N19   N32   A    
C83   H51   S    
C85   N25   A    
C21   Br3   S    
C34   C73   S    
C44   H20   S    
C10   C78   A    
C7    C12   A    
C30   C50   S    
C55   H35   S    
C35   C76   S    
C43   Br15  S    
O2    H58   S    
C28   Br12  S    
C41   Br13  S    
C60   H40   S    
C28   C36   S    
C65   N13   A    
C79   N19   A    
O10   H66   S    
C31   O3    S    
N12   Ni6   S    
C19   C23   S    
C20   C36   S    
C49   Br5   S    
C6    N30   A    
C27   C35   S    
O9    H65   S    
C40   C52   S    
C66   C73   A    
C83   N23   A    
C28   H16   S    
C51   H27   S    
C65   C74   A    
C62   N10   A    
C62   C69   A    
C61   N9    A    
C50   H26   S    
C32   C34   S    
C3    C71   A    
O8    H64   S    
O11   H67   S    
C84   N24   A    
C36   C75   S    
N28   Ni6   S    
C14   C38   S    
C21   H9    S    
C23   H11   S    
C27   C41   S    
C22   H10   S    
O6    H62   S    
C21   C39   S    
C40   C44   S    
C20   Br20  S    
C3    H3    S    
C87   N27   A    
O5    H61   S    
C88   O12   S    
C8    H56   S    
N22   Ni1   S    
C61   O5    S    
C30   O2    S    
C29   C49   S    
N3    N12   A    
C42   H18   S    
C46   C74   A    
C15   C39   S    
C51   Br7   S    
C16   C40   S    
N6    Ni1   S    
C9    C55   S    
N1    N10   A    
C46   N6    A    
N9    Ni5   S    
C19   C35   S    
C58   H38   S    
C55   C57   D    
N26   Ni5   S    
N19   Ni3   S    
C18   H6    S    
C29   O1    S    
C17   H5    S    
C14   C82   A    
N17   Ni1   S    
C87   O11   S    
C4    C72   A    
C19   H7    S    
C23   Br1   S    
C82   N22   A    
C45   H29   S    
N21   N26   A    
N32   Ni8   S    
C63   O7    S    
C29   C35   S    
C1    H1    S    
C32   H24   S    
C53   C59   D    
C86   N26   A    
C5    N29   A    
N25   Ni5   S    
C67   H43   S    
C5    H53   S    
C14   C85   A    
C31   C51   S    
C64   O8    S    
C11   C53   S    
N30   Ni7   S    
C65   H41   S    
C8    N32   A    
C78   N18   A    
N23   N28   A    
C38   C50   S    
C2    N2    A    
N24   Ni3   S    
C79   H47   S    
C64   N12   A    
C80   H48   S    
C30   C36   S    
N7    N16   A    
N8    Ni3   S    
C48   N8    A    
C9    C77   A    
C63   N11   A    
C5    C10   A    
C82   H50   S    
C23   C37   S    
C26   H14   S    
N17   N30   A    
C25   H13   S    
N7    Ni4   S    
N2    N9    A    
C2    C70   A    
C60   C69   S    
C18   C34   S    
C8    C11   A    
C15   C83   A    
C12   C80   A    
C27   H15   S    
N5    Ni2   S    
C77   N17   A    
C56   C58   D    
C42   Br14  S    
C45   N5    A    
C86   O10   S    
C57   C72   S    
C22   Br4   S    
O1    H57   S    
C1    C69   A    
N18   Ni2   S    
C47   N7    A    
C59   C70   S    
C47   C75   A    
O4    H60   S    
C78   H46   S    
N3    Ni3   S    
C33   C74   S    
C54   H34   S    
C63   C72   A    
N29   Ni7   S    
N22   N25   A    
C2    H2    S    
O3    H59   S    
C39   C43   S    
N1    Ni1   S    
C31   H23   S    
C15   C88   A    
C67   N15   A    
C67   C76   A    
N13   Ni7   S    
C66   H42   S    
C68   N16   A    
N16   Ni8   S    
C12   C54   S    
N14   Ni7   S    
C25   C33   S    
N31   Ni8   S    
C4    H4    S    
C17   C21   S    
