data_mof_unit_6872.cif
_audit_creation_date              2012-12-11T17:45:17-0500
_audit_creation_method            fapswitch 2.2
_symmetry_space_group_name_H-M    P1
_symmetry_Int_Tables_number       1
_space_group_crystal_system       triclinic
_cell_length_a                    14.985901
_cell_length_b                    14.911268
_cell_length_c                    15.09901
_cell_angle_alpha                 110.239512
_cell_angle_beta                  109.176433
_cell_angle_gamma                 109.139119
_cell_volume                      2592.53711909

loop_
_atom_site_label
_atom_site_type_symbol
_atom_type_description
_atom_site_fract_x
_atom_site_fract_y
_atom_site_fract_z
_atom_type_partial_charge
C1    C     C_R   0.973588 0.248826 0.062302 -0.124225
C2    C     C_R   0.705616 0.193475 0.794839 -0.135352
C3    C     C_R   0.776652 0.591915 0.025638 -0.143894
C4    C     C_R   0.315209 0.759991 0.225194 -0.132106
C5    C     C_R   0.941084 0.409386 0.685434 -0.136883
C6    C     C_R   0.674409 0.499239 0.949823 -0.008707
C7    C     C_R   0.958236 0.504050 0.678921 0.041187
C8    C     C_R   0.705057 0.127552 0.703210 0.067004
C9    C     C_R   0.064735 0.870741 0.074949 0.068405
C10   C     C_R   0.612838 0.265701 0.093771 -0.118146
C11   C     C_R   0.691749 0.353837 0.198854 -0.153367
C12   C     C_R   0.324625 0.790049 0.327939 0.052478
C13   C     C_R   0.741513 0.334219 0.281455 0.117874
C14   C     C_R   0.703566 0.224702 0.258817 -0.161745
C15   C     C_R   0.620518 0.136943 0.154680 -0.119159
C16   C     C_R   0.208178 0.408346 0.902746 -0.146539
C17   C     C_R   0.576295 0.157498 0.071847 -0.091677
C18   C     C_R   0.848125 0.430672 0.484010 -0.250974
C19   C     C_R   0.942208 0.513669 0.583852 0.075753
C20   C     C_R   0.025562 0.599754 0.589933 0.015455
C21   C     C_R   0.014610 0.597277 0.495633 -0.249833
C22   C     C_R   0.926628 0.509239 0.395039 0.066097
C23   C     C_R   0.299803 0.499693 0.931364 -0.010060
C24   C     C_R   0.838950 0.426698 0.387551 0.025260
C25   C     C_R   0.154513 0.791428 0.750788 -0.203753
C26   C     C_R   0.255986 0.870143 0.844329 -0.111751
C27   C     C_R   0.337927 0.843512 0.873852 -0.106514
C28   C     C_R   0.996834 0.592471 0.298963 -0.165629
C29   C     C_R   0.318891 0.738532 0.809912 -0.120873
C30   C     C_R   0.216749 0.658417 0.717992 -0.127766
C31   C     C_R   0.133468 0.684146 0.688504 0.119132
C32   C     C_R   0.254492 0.042381 0.534753 -0.129042
C33   C     C_R   0.330866 0.013965 0.521020 -0.127268
C34   C     C_R   0.941623 0.502050 0.303718 0.060880
C35   C     C_R   0.341100 0.930958 0.539684 0.108269
C36   C     C_R   0.275614 0.878230 0.574265 -0.184108
C37   C     C_R   0.195176 0.902784 0.581797 -0.117506
C38   C     C_R   0.185278 0.985385 0.563056 -0.119919
C39   C     C_R   0.526428 0.972901 0.628034 -0.228551
C40   C     C_R   0.299596 0.591342 0.995429 -0.137854
C41   C     C_R   0.622503 0.010203 0.623751 0.049832
C42   C     C_R   0.622788 0.946934 0.529156 0.031104
C43   C     C_R   0.523050 0.865421 0.435094 -0.245388
C44   C     C_R   0.425351 0.853155 0.433217 0.068973
C45   C     C_R   0.686040 0.407240 0.933372 -0.140792
C46   C     C_R   0.427905 0.908167 0.532418 0.016448
C47   C     C_R   0.739368 0.006980 0.452533 -0.204302
C48   C     C_R   0.843214 0.055100 0.465072 -0.115444
C49   C     C_R   0.930807 0.063191 0.545212 -0.111426
C50   C     C_R   0.914363 0.021798 0.611936 -0.138740
C51   C     C_R   0.811405 0.976015 0.601672 -0.146498
C52   C     C_R   0.911711 0.409205 0.211685 -0.136073
C53   C     C_R   0.723897 0.971139 0.523813 0.122155
C54   C     C_3   0.470383 0.387354 0.840838 -0.401330
C55   C     C_3   0.366641 0.389189 0.833663 -0.416089
C56   C     C_R   0.022337 0.593160 0.782439 -0.106826
C57   C     C_3   0.573960 0.518917 0.044744 -0.401189
C58   C     C_3   0.564149 0.591680 0.915500 -0.395799
C59   C     C_3   0.572583 0.499129 0.936421 0.399245
C60   C     C_3   0.396615 0.499748 0.927618 0.406055
C61   C     C_3   0.470544 0.517950 0.038998 -0.389654
C62   C     C_3   0.460126 0.592820 0.911528 -0.411576
C63   C     C_R   0.178311 0.059304 0.811669 -0.136943
C64   C     C_R   0.220477 0.752159 0.313367 -0.121840
C65   C     C_R   0.136349 0.058071 0.881184 -0.193008
C66   C     C_R   0.200230 0.138769 0.992192 0.113516
C67   C     C_R   0.793334 0.195090 0.701670 -0.145423
C68   C     C_R   0.305930 0.221025 0.032798 -0.149258
C69   C     C_R   0.347275 0.221507 0.962443 -0.140031
C70   C     C_R   0.284368 0.139869 0.852365 -0.111227
C71   C     C_R   0.171130 0.043676 0.088070 -0.230659
C72   C     C_R   0.100915 0.989260 0.116957 0.056468
C73   C     C_R   0.052942 0.043943 0.164808 0.024278
C74   C     C_R   0.061473 0.138504 0.162230 -0.240426
C75   C     C_R   0.098149 0.167097 0.096469 0.060715
C76   C     C_R   0.067789 0.252002 0.973720 -0.141419
C77   C     C_R   0.161782 0.124273 0.066330 0.026900
C78   C     C_R   0.000881 0.802335 0.097343 -0.144827
C79   C     C_R   0.865954 0.950079 0.135844 -0.151364
C80   C     C_R   0.794545 0.896977 0.164691 -0.158081
C81   C     C_R   0.835358 0.889471 0.257677 -0.100713
C82   C     C_R   0.947893 0.940952 0.325546 -0.119390
C83   C     C_R   0.019921 0.998652 0.299742 -0.188324
C84   C     C_R   0.978998 0.998352 0.201697 0.117198
C85   C     C_R   0.051689 0.223274 0.048056 0.057507
C86   C     C_R   0.094855 0.807450 0.010615 -0.150140
H1    H     H_    0.938853 0.236427 0.111949 0.092680
H2    H     H_    0.379862 0.775850 0.205711 0.089908
H3    H     H_    0.740730 0.206832 0.320342 0.105643
H4    H     H_    0.592776 0.052938 0.137480 0.099214
H5    H     H_    0.082948 0.658894 0.501072 0.130046
H6    H     H_    0.091090 0.812477 0.728843 0.112889
H7    H     H_    0.271286 0.951550 0.894533 0.137806
H8    H     H_    0.383819 0.719999 0.831878 0.099839
H9    H     H_    0.202604 0.576805 0.669674 0.106606
H10   H     H_    0.125064 0.006408 0.572022 0.092738
H11   H     H_    0.176853 0.323087 0.845398 0.099447
H12   H     H_    0.044827 0.677736 0.808020 0.116203
H13   H     H_    0.249317 0.108838 0.523905 0.102834
H14   H     H_    0.383710 0.058088 0.498184 0.111699
H15   H     H_    0.284421 0.815916 0.591467 0.126714
H16   H     H_    0.140783 0.858290 0.602634 0.115032
H17   H     H_    0.524626 0.013246 0.701635 0.124850
H18   H     H_    0.522603 0.819031 0.361531 0.122717
H19   H     H_    0.673265 0.005417 0.393114 0.115298
H20   H     H_    0.856156 0.087875 0.413879 0.127875
H21   H     H_    0.011490 0.101997 0.555912 0.101005
H22   H     H_    0.019034 0.676753 0.350092 0.106829
H23   H     H_    0.825444 0.173516 0.649005 0.133802
H24   H     H_    0.801148 0.949864 0.657943 0.112171
H25   H     H_    0.470127 0.318230 0.853368 0.143695
H26   H     H_    0.469432 0.370707 0.762682 0.157882
H27   H     H_    0.316254 0.377944 0.753529 0.153610
H28   H     H_    0.318179 0.318388 0.837651 0.163939
H29   H     H_    0.581875 0.454830 0.062772 0.148263
H30   H     H_    0.426711 0.452497 0.052696 0.162212
H31   H     H_    0.635970 0.673474 0.980754 0.150295
H32   H     H_    0.561902 0.577948 0.837340 0.157078
H33   H     H_    0.407501 0.579052 0.831034 0.151978
H34   H     H_    0.975516 0.822218 0.156008 0.130960
H35   H     H_    0.355378 0.676608 0.026542 0.087334
H36   H     H_    0.483774 0.675084 0.975605 0.142448
H37   H     H_    0.645364 0.599950 0.113975 0.156259
H38   H     H_    0.493208 0.597995 0.106356 0.151489
H39   H     H_    0.317581 0.139539 0.798647 0.123124
H40   H     H_    0.129054 0.995874 0.727030 0.106588
H41   H     H_    0.055332 0.992526 0.849387 0.118776
H42   H     H_    0.356785 0.282537 0.118667 0.117192
H43   H     H_    0.428121 0.284994 0.993269 0.113229
H44   H     H_    0.218944 0.011210 0.063035 0.125386
H45   H     H_    0.155054 0.836556 0.988096 0.101398
H46   H     H_    0.024127 0.178514 0.198688 0.126482
H47   H     H_    0.859735 0.324263 0.184749 0.113827
H48   H     H_    0.833293 0.951304 0.061032 0.114236
H49   H     H_    0.707567 0.859889 0.113929 0.107014
H50   H     H_    0.779843 0.845003 0.277950 0.117794
H51   H     H_    0.978928 0.934568 0.397137 0.119356
H52   H     H_    0.106685 0.036173 0.351030 0.118539
H53   H     H_    0.194941 0.752025 0.371628 0.119758
H54   H     H_    0.122959 0.247453 0.944132 0.126934
H55   H     H_    0.623999 0.321383 0.883570 0.093954
H56   H     H_    0.659330 0.167194 0.831475 0.087387
H57   H     H_    0.796520 0.677025 0.062842 0.110150
H58   H     H_    0.514841 0.089893 0.990243 0.102606
H59   H     H_    0.783954 0.367110 0.481373 0.129039
H60   H     H_    0.416332 0.904044 0.946223 0.092511
H61   H     H_    0.982015 0.028785 0.674253 0.115299
H62   H     H_    0.895524 0.324930 0.619158 0.102872
H63   H     H_    0.582245 0.281201 0.028548 0.093659
H64   H     H_    0.718884 0.437192 0.214012 0.112892
N1    N     N_R   0.947080 0.293830 0.002870 -0.041392
N2    N     N_R   0.153670 0.443180 0.946090 -0.036640
N3    N     N_R   0.002360 0.556820 0.208890 -0.038950
N4    N     N_R   0.210070 0.556820 0.002870 -0.033726
N5    N     N_R   0.945960 0.443180 0.152110 -0.039781
N6    N     N_R   0.151710 0.706170 0.208890 -0.042876
N7    N     N_R   0.004320 0.293830 0.946090 -0.041622
N8    N     N_R   0.789930 0.443180 0.997130 -0.035234
N9    N     N_R   0.054040 0.556820 0.847890 -0.040402
N10   N     N_R   0.848290 0.293830 0.791110 -0.041955
N11   N     N_R   0.995680 0.706170 0.053910 -0.041102
N12   N     N_R   0.052920 0.706170 0.997130 -0.041482
N13   N     N_R   0.791050 0.293830 0.847890 -0.038749
N14   N     N_R   0.846330 0.556820 0.053910 -0.036471
N15   N     N_R   0.997640 0.443180 0.791110 -0.040110
N16   N     N_R   0.208950 0.706170 0.152110 -0.039833
Ni1   Ni    Ni4+2 0.869690 0.369690 0.000000 0.211578
Ni2   Ni    Ni4+2 0.130310 0.630310 0.000000 0.217575
Ni3   Ni    Ni4+2 0.000970 0.369690 0.869780 0.215525
Ni4   Ni    Ni4+2 0.999030 0.630310 0.130220 0.213575

loop_
_geom_bond_atom_site_label_1
_geom_bond_atom_site_label_2
_ccdc_geom_bond_type
C50   H61   S    
C25   C31   A    
C66   C68   A    
C63   C65   A    
C58   C62   S    
C6    C45   A    
C74   H46   S    
C27   C29   A    
C71   C77   A    
C41   C42   A    
N14   Ni4   S    
C35   C36   A    
C9    C72   S    
C56   H12   S    
C18   H59   S    
C40   N4    A    
N11   N12   A    
C56   N9    A    
C57   H29   S    
C52   N5    A    
C40   H35   S    
C26   C27   A    
C30   H9    S    
C80   H49   S    
C61   H38   S    
C18   C24   A    
N1    N7    A    
C36   C37   A    
C82   H51   S    
C10   H63   S    
C79   C84   A    
C12   C64   A    
C16   H11   S    
C57   C59   S    
C10   C17   A    
C23   C40   A    
C58   H32   S    
N9    Ni2   S    
C60   C62   S    
C18   C19   A    
C73   C74   A    
C1    H1    S    
C79   H48   S    
C43   H18   S    
C7    C19   S    
C13   C14   A    
N7    Ni3   S    
C75   C85   S    
C48   H20   S    
C83   C84   A    
N5    Ni1   S    
C68   C69   A    
C47   H19   S    
N3    Ni4   S    
N10   Ni3   S    
C67   N10   A    
C86   N12   A    
C5    N15   A    
C4    C12   A    
C29   C30   A    
C68   H42   S    
C73   C84   S    
N8    N14   A    
C47   C53   A    
C3    C6    A    
C26   H7    S    
C28   C34   A    
C5    H62   S    
C21   C22   A    
C45   H55   S    
C52   H47   S    
N4    Ni2   S    
C7    C56   A    
C44   C46   A    
N8    Ni1   S    
C81   C82   A    
C54   C59   S    
C76   H54   S    
N15   Ni3   S    
C23   C60   S    
C22   C34   S    
C76   N7    A    
C74   C75   A    
N10   N13   A    
N16   Ni2   S    
C3    H57   S    
C8    C41   S    
C49   H21   S    
C5    C7    A    
C72   C73   A    
C55   H27   S    
C25   C26   A    
C82   C83   A    
C58   H31   S    
C37   H16   S    
N9    N15   A    
C13   C24   S    
C36   H15   S    
C51   C53   A    
C78   H34   S    
C43   C44   A    
C14   H3    S    
C37   C38   A    
C9    C86   A    
C57   H37   S    
C11   H64   S    
C47   C48   A    
C63   C70   A    
N6    N16   A    
N13   Ni1   S    
C61   H30   S    
C50   C51   A    
C54   H26   S    
C16   N2    A    
C39   H17   S    
C75   C77   A    
C62   H33   S    
C3    N14   A    
C8    C67   A    
C39   C46   A    
N12   Ni2   S    
N11   Ni4   S    
C70   H39   S    
C69   H43   S    
C48   C49   A    
N2    N4    A    
C65   C66   A    
C16   C23   A    
C32   C38   A    
C17   H58   S    
C28   N3    A    
C2    H56   S    
C22   C24   A    
C1    C85   A    
N3    N5    A    
C42   C43   A    
C65   H41   S    
C62   H36   S    
C81   H50   S    
C21   H5    S    
C15   C17   A    
C66   C77   S    
C54   C55   S    
C25   H6    S    
C6    C59   S    
C2    C8    A    
C45   N8    A    
C80   C81   A    
C2    N13   A    
C57   C61   S    
C4    H2    S    
C55   H28   S    
C51   H24   S    
C64   N6    A    
C34   C52   A    
C32   H13   S    
C33   H14   S    
C32   C33   A    
C19   C20   A    
C58   C59   S    
C71   C72   A    
C42   C53   S    
C71   H44   S    
N2    Ni3   S    
C11   C13   A    
C30   C31   A    
C67   H23   S    
C29   H8    S    
C28   H22   S    
C27   H60   S    
N1    Ni1   S    
N6    Ni4   S    
C33   C35   A    
C4    N16   A    
C54   H25   S    
C1    N1    A    
C9    C78   A    
C69   C70   A    
C86   H45   S    
C63   H40   S    
C10   C11   A    
C79   C80   A    
C20   C21   A    
C39   C41   A    
C78   N11   A    
C12   C44   S    
C49   C50   A    
C38   H10   S    
C14   C15   A    
C60   C61   S    
C55   C60   S    
C35   C46   S    
C76   C85   A    
C20   C31   S    
C83   H52   S    
C15   H4    S    
C64   H53   S    
