data_mof_unit_26532.cif
_audit_creation_date              2013-03-05T15:45:31-0500
_audit_creation_method            fapswitch 2.2
_symmetry_space_group_name_H-M    P1
_symmetry_Int_Tables_number       1
_space_group_crystal_system       triclinic
_cell_length_a                    10.980299
_cell_length_b                    11.059354
_cell_length_c                    18.793546
_cell_angle_alpha                 91.006735
_cell_angle_beta                  89.659377
_cell_angle_gamma                 59.915458
_cell_volume                      1974.16064817

loop_
_atom_site_label
_atom_site_type_symbol
_atom_site_description
_atom_site_fract_x
_atom_site_fract_y
_atom_site_fract_z
_atom_type_partial_charge
O1    O     O_R   0.507430 0.255570 0.581420 -0.529634
O2    O     O_R   0.280190 0.527390 0.578910 -0.519525
C1    C     C_R   0.246213 0.642857 0.611608 0.577052
O3    O     O_R   0.260310 0.739740 0.584580 -0.485375
O4    O     O_R   0.532250 0.695150 0.573830 -0.429400
C2    C     C_R   0.652936 0.625498 0.599814 0.578124
O5    O     O_R   0.744930 0.503430 0.576380 -0.548996
O6    O     O_R   0.699250 0.276390 0.571950 -0.499692
C3    C     C_R   0.628288 0.229557 0.602920 0.562274
O7    O     O_R   0.499020 0.256400 0.419850 -0.525381
O8    O     O_R   0.272400 0.528160 0.429140 -0.512948
C4    C     C_R   0.220963 0.648612 0.402194 0.541265
O9    O     O_R   0.251910 0.740570 0.423020 -0.526362
O10   O     O_R   0.524460 0.695920 0.424060 -0.511738
C5    C     C_R   0.640596 0.619057 0.390735 0.538521
O11   O     O_R   0.736530 0.504260 0.414810 -0.531918
O12   O     O_R   0.691460 0.277160 0.422180 -0.516611
C6    C     C_R   0.618752 0.227025 0.395511 0.545509
Cr1   Cr    Cr6+3 0.392930 0.397900 0.502230 1.018474
Cr2   Cr    Cr6+3 0.398240 0.708600 0.501260 1.065185
Cr3   Cr    Cr6+3 0.708800 0.393470 0.496460 1.018384
O13   O     O_3   0.499990 0.499990 0.499980 -0.246346
C7    C     C_3   0.602057 0.827598 0.777635 -0.256913
H1    H     H_    0.643927 0.900429 0.774845 0.089766
H2    H     H_    0.507261 0.880582 0.812859 0.167975
C8    C     C_3   0.556061 0.809382 0.702188 0.229148
H3    H     H_    0.549985 0.892189 0.667060 0.116426
H4    H     H_    0.907595 0.697456 0.770052 0.126049
H5    H     H_    0.795523 0.764867 0.663679 0.093805
C9    C     C_3   0.858914 0.632790 0.756361 -0.131595
C10   C     C_3   0.669903 0.574628 0.801741 0.359905
C11   C     C_3   0.722262 0.682849 0.807137 0.033338
C12   C     C_3   0.667873 0.662560 0.673513 0.044631
C13   C     C_3   0.808805 0.661966 0.678846 -0.363847
C14   C     C_3   0.655344 0.552551 0.720789 0.319420
H6    H     H_    0.738921 0.445998 0.704206 0.152620
H7    H     H_    0.887895 0.589067 0.638626 0.135857
C15   C     C_R   0.787194 0.169840 0.707437 -0.123940
H8    H     H_    0.865186 0.175163 0.674022 0.106631
C16   C     C_R   0.806984 0.157307 0.781865 0.032585
C17   C     C_R   0.695073 0.158467 0.824056 0.051472
C18   C     C_R   0.571591 0.183029 0.789754 -0.152419
H9    H     H_    0.482436 0.191819 0.818575 0.133371
C19   C     C_R   0.563194 0.180842 0.717506 -0.153227
H10   H     H_    0.469786 0.187758 0.694697 0.125746
C20   C     C_R   0.666704 0.180809 0.675494 0.025369
C21   C     C_R   0.265920 0.532287 0.727776 -0.081451
H11   H     H_    0.315967 0.431457 0.701200 0.139277
C22   C     C_R   0.251923 0.541863 0.802016 -0.162134
H12   H     H_    0.290271 0.449077 0.833174 0.111181
C23   C     C_R   0.189894 0.672840 0.835557 -0.009525
C24   C     C_R   0.175082 0.785292 0.796340 -0.108480
H13   H     H_    0.159088 0.878105 0.822786 0.134064
C25   C     C_R   0.178047 0.779832 0.723186 -0.056536
H14   H     H_    0.155904 0.872656 0.694592 0.157863
C26   C     C_R   0.217847 0.653560 0.687801 0.063461
C27   C     C_R   0.729097 0.527042 0.270448 -0.116402
H15   H     H_    0.793832 0.424018 0.291550 0.152134
C28   C     C_R   0.726413 0.540718 0.197631 -0.116242
H16   H     H_    0.793282 0.448890 0.164953 0.197621
C29   C     C_R   0.649950 0.672848 0.167778 0.017338
C30   C     C_R   0.563412 0.789495 0.211802 -0.126138
H17   H     H_    0.503809 0.892687 0.189922 0.131300
C31   C     C_R   0.561719 0.774596 0.285451 -0.129655
H18   H     H_    0.495233 0.865122 0.319033 0.121458
C32   C     C_R   0.648901 0.643669 0.315244 0.028949
C33   C     C_R   0.550046 0.150603 0.288696 -0.160330
H19   H     H_    0.468276 0.143310 0.317526 0.143040
C34   C     C_R   0.547529 0.148236 0.215832 -0.197272
H20   H     H_    0.468402 0.131844 0.190565 0.140923
C35   C     C_R   0.650668 0.158212 0.176579 0.042831
C36   C     C_R   0.752986 0.177368 0.211386 0.332124
C37   C     C_R   0.754185 0.181274 0.284759 -0.115384
H21   H     H_    0.832529 0.197466 0.311023 0.137047
C38   C     C_R   0.649892 0.172695 0.323531 -0.021255
C39   C     C_R   0.087676 0.800794 0.305993 -0.138142
H22   H     H_    0.061885 0.892940 0.338346 0.130874
C40   C     C_R   0.067485 0.814055 0.233916 -0.125285
H23   H     H_    0.020918 0.917839 0.212514 0.190170
C41   C     C_R   0.109346 0.695067 0.190007 0.032229
C42   C     C_R   0.160267 0.563799 0.219483 -0.135649
H24   H     H_    0.187701 0.472245 0.186325 0.127854
C43   C     C_R   0.182457 0.550018 0.292095 -0.125727
H25   H     H_    0.232608 0.446059 0.313672 0.140589
C44   C     C_R   0.153043 0.667988 0.334643 0.032350
O14   O     O_R   0.089490 0.825610 0.930610 -0.561711
O15   O     O_R   0.818370 0.054540 0.929880 -0.536900
C45   C     C_R   0.704137 0.102205 0.896038 0.525167
O16   O     O_R   0.605870 0.077310 0.915530 -0.536031
O17   O     O_R   0.646440 0.806700 0.917570 -0.537234
C46   C     C_R   0.752288 0.705430 0.882260 0.555982
O18   O     O_R   0.837200 0.593290 0.915250 -0.493021
O19   O     O_R   0.065330 0.635370 0.931590 -0.528545
C47   C     C_R   0.120669 0.705708 0.906136 0.516259
O20   O     O_R   0.068300 0.828790 0.091860 -0.507947
O21   O     O_R   0.798730 0.057480 0.079370 -0.433708
C48   C     C_R   0.674011 0.108142 0.103801 0.570431
O22   O     O_R   0.584680 0.080480 0.076790 -0.540215
O23   O     O_R   0.626790 0.809640 0.067050 -0.505672
C49   C     C_R   0.693738 0.690801 0.097078 0.534682
O24   O     O_R   0.816010 0.596460 0.076500 -0.516741
O25   O     O_R   0.045680 0.638310 0.081070 -0.501963
C50   C     C_R   0.082447 0.715919 0.115088 0.546140
Cr4   Cr    Cr6+3 0.937620 0.938540 0.007640 1.021346
Cr5   Cr    Cr6+3 0.625150 0.937450 0.994520 0.989451
Cr6   Cr    Cr6+3 0.937990 0.625080 0.001190 1.001023
O26   O     O_3   0.833590 0.833690 0.001120 -0.264262
C51   C     C_3   0.980242 0.477325 0.751014 -0.207795
C52   C     C_3   0.060764 0.404762 0.816478 -0.271979
C53   C     C_3   0.198193 0.272209 0.794286 -0.492562
H26   H     H_    0.176882 0.192966 0.769860 0.169398
H27   H     H_    0.257271 0.293196 0.753854 0.135185
H28   H     H_    0.266919 0.229562 0.840825 0.141820
H29   H     H_    0.081602 0.474548 0.848411 0.200837
H30   H     H_    0.997963 0.377665 0.850768 0.258640
H31   H     H_    0.946832 0.409665 0.724014 0.150591
H32   H     H_    0.059007 0.476644 0.713364 0.135168
C54   C     C_3   0.945419 0.152073 0.804565 -0.240392
C55   C     C_3   0.985565 0.140935 0.883581 -0.262529
C56   C     C_3   0.129234 0.117986 0.906031 -0.471192
H33   H     H_    0.211705 0.056839 0.865099 0.152719
H34   H     H_    0.124126 0.216573 0.922800 0.150601
H35   H     H_    0.163054 0.054802 0.955030 0.147619
H36   H     H_    0.900023 0.224142 0.917219 0.211144
H37   H     H_    0.006129 0.039082 0.894555 0.242940
H38   H     H_    0.032467 0.067705 0.773251 0.090607
H39   H     H_    0.944174 0.243422 0.783176 0.204438
F1    F     F_    0.854101 0.187993 0.174761 -0.664374
F2    F     F_    0.423100 0.824519 0.705455 -0.619421
F3    F     F_    0.771921 0.448803 0.826061 -0.722382
C57   C     C_3   0.535650 0.610075 0.847962 -0.121330
C58   C     C_3   0.567617 0.560855 0.926013 -0.282759
C59   C     C_3   0.436787 0.586864 0.967265 -0.469118
H40   H     H_    0.356979 0.699843 0.967646 0.179479
H41   H     H_    0.393831 0.523756 0.943515 0.151959
H42   H     H_    0.464747 0.554590 0.023214 0.151087
H43   H     H_    0.644053 0.446819 0.927162 0.213894
H44   H     H_    0.612303 0.615598 0.955878 0.218779
H45   H     H_    0.455465 0.722477 0.847104 0.136139
H46   H     H_    0.486902 0.551997 0.825102 0.211674
F4    F     F_    0.530755 0.554341 0.706371 -0.627526

loop_
_geom_bond_atom_site_label_1
_geom_bond_atom_site_label_2
_geom_bond_distance
_ccdc_geom_bond_type
C16   C54   1.554447 S    
O15   C45   1.270459 A    
C6    C38   1.438008 S    
C13   H7    1.115510 S    
C17   C18   1.405366 A    
C14   H6    1.107906 S    
C27   C32   1.400773 A    
O14   Cr4   2.063041 S    
C42   H24   1.083550 S    
C27   H15   1.080738 S    
C21   C22   1.399093 A    
O4    Cr2   1.964430 S    
C55   H36   1.111142 S    
C24   H13   1.063856 S    
C35   C48   1.438755 S    
O8    Cr1   1.973168 S    
C8    H3    1.113317 S    
O19   C47   1.298723 A    
O22   Cr5   2.071561 S    
C4    C44   1.440275 S    
C36   F1    1.358258 S    
C15   C16   1.415340 A    
C39   C40   1.372408 A    
C10   F3    1.365942 S    
C15   H8    1.084744 S    
C40   C41   1.405300 A    
C27   C28   1.378327 A    
C11   C46   1.496668 S    
Cr6   O26   1.996354 S    
C58   H44   1.100670 S    
C5    O11   1.269351 A    
C51   C52   1.508535 S    
O12   C6    1.278577 A    
C37   H21   1.082626 S    
C7    C8    1.551334 S    
C34   C35   1.398978 A    
C53   H26   1.107369 S    
C10   C57   1.573139 S    
C57   H46   1.105146 S    
O14   C47   1.268340 A    
O25   C50   1.280468 A    
C54   C55   1.540925 S    
C43   H25   1.083436 S    
C19   C20   1.379888 A    
C58   C59   1.520562 S    
O20   C50   1.264299 A    
C59   H42   1.111065 S    
C30   C31   1.397876 A    
C7    H1    1.111454 S    
C56   H35   1.113871 S    
C36   C37   1.379208 A    
C3    C20   1.460673 S    
Cr3   O13   1.984092 S    
C37   C38   1.397426 A    
C34   H20   1.083067 S    
C18   C19   1.362080 A    
C42   C43   1.385241 A    
C24   C25   1.374567 A    
C48   O22   1.270710 A    
O23   Cr5   1.974539 S    
C25   C26   1.391212 A    
C28   C29   1.399786 A    
O1    Cr1   2.096143 S    
C9    C13   1.541788 S    
C41   C50   1.439058 S    
C23   C24   1.395408 A    
C21   H11   1.075975 S    
O10   Cr2   1.954371 S    
Cr1   O13   1.997546 S    
O1    C3    1.278603 A    
C39   H22   1.084095 S    
C46   O18   1.290899 A    
C40   H23   1.082083 S    
O6    C3    1.274348 A    
C22   C23   1.390378 A    
C58   H43   1.111491 S    
O5    Cr3   2.078167 S    
C5    C32   1.460178 S    
H5    C13   1.114946 S    
O12   Cr3   1.955817 S    
C33   H19   1.083778 S    
C33   C34   1.369861 A    
C31   C32   1.404183 A    
C30   H17   1.082002 S    
O19   Cr6   1.954983 S    
Cr5   O26   1.986401 S    
C1    C26   1.453693 S    
C8    C12   1.548247 S    
O23   C49   1.283968 A    
O7    Cr1   2.066076 S    
C55   C56   1.530129 S    
O21   C48   1.270576 A    
C12   C13   1.548044 S    
C4    O9    1.279459 A    
C53   H28   1.105628 S    
C8    F2    1.384483 S    
C52   H29   1.081917 S    
C14   F4    1.386636 S    
C55   H37   1.056445 S    
O18   Cr6   2.085281 S    
C16   C17   1.452979 A    
C43   C44   1.408431 A    
Cr2   O13   1.996259 S    
O21   Cr4   1.943037 S    
C59   H40   1.109530 S    
C10   C14   1.558440 S    
C29   C49   1.460629 S    
C33   C38   1.400619 A    
C18   H9    1.075922 S    
C57   C58   1.553632 S    
C56   H33   1.108414 S    
C56   H34   1.103466 S    
O24   Cr6   2.077384 S    
C17   C45   1.481961 S    
C25   H14   1.082796 S    
O9    Cr2   2.084598 S    
C9    C51   1.561082 S    
O2    Cr1   1.946527 S    
C51   H32   1.111176 S    
C10   C11   1.568291 S    
C19   H10   1.081332 S    
O17   Cr5   1.954629 S    
C41   C42   1.394704 A    
O6    Cr3   1.974658 S    
O8    C4    1.273888 A    
O11   Cr3   2.093608 S    
C2    O5    1.281974 A    
C2    C12   1.470870 S    
C7    C11   1.591778 S    
C51   H31   1.102751 S    
H4    C9    1.114363 S    
O2    C1    1.280462 A    
C35   C36   1.406232 A    
C52   C53   1.534049 S    
C31   H18   1.083130 S    
O20   Cr4   2.094239 S    
C9    C11   1.612506 S    
O17   C46   1.305845 A    
O4    C2    1.259138 A    
O7    C6    1.265951 A    
C49   O24   1.271206 A    
C12   C14   1.578879 S    
O25   Cr6   1.964730 S    
C7    H2    1.109837 S    
C29   C30   1.405643 A    
C53   H27   1.096973 S    
C15   C20   1.405894 A    
C57   H45   1.106498 S    
C52   H30   1.090537 S    
C23   C47   1.470845 S    
O15   Cr4   1.974969 S    
O3    Cr2   2.072263 S    
C28   H16   1.082962 S    
C45   O16   1.292638 A    
C22   H12   1.078900 S    
C54   H39   1.087604 S    
O16   Cr5   2.096944 S    
C59   H41   1.109228 S    
O10   C5    1.275160 A    
C54   H38   1.100191 S    
C39   C44   1.392048 A    
Cr4   O26   1.997257 S    
C1    O3    1.270616 A    
C21   C26   1.404365 A    
