data_mof_unit_48047.cif
_audit_creation_date              2012-12-11T14:36:13-0500
_audit_creation_method            fapswitch 2.2
_symmetry_space_group_name_H-M    P1
_symmetry_Int_Tables_number       1
_space_group_crystal_system       triclinic
_cell_length_a                    13.527899
_cell_length_b                    13.564137
_cell_length_c                    27.381614
_cell_angle_alpha                 90.809035
_cell_angle_beta                  89.80861
_cell_angle_gamma                 60.133335
_cell_volume                      4356.31992352

loop_
_atom_site_label
_atom_site_type_symbol
_atom_type_description
_atom_site_fract_x
_atom_site_fract_y
_atom_site_fract_z
_atom_type_partial_charge
C1    C     C_R   0.620519 0.101971 0.569729 0.544470
C2    C     C_1   0.634104 0.725305 0.614622 -0.011596
C3    C     C_3   0.737724 0.532406 0.762839 -0.090341
C4    C     C_3   0.693572 0.627503 0.802633 0.034265
C5    C     C_3   0.622803 0.599680 0.735457 -0.125279
C6    C     C_3   0.672177 0.663863 0.707537 0.037044
C7    C     C_3   0.581597 0.692692 0.775507 0.121227
C8    C     C_3   0.628152 0.758736 0.747582 -0.117633
C9    C     C_1   0.698964 0.612949 0.855405 -0.038779
C10   C     C_1   0.655195 0.691828 0.655789 -0.041100
C11   C     C_3   0.058811 0.172883 0.736145 -0.133217
C12   C     C_R   0.599865 0.778780 0.568308 0.544968
C13   C     C_3   0.144180 0.082809 0.771537 0.286502
C14   C     C_1   0.093973 0.203385 0.901387 -0.004152
C15   C     C_1   0.220536 0.144226 0.615562 -0.007889
C16   C     C_3   0.052319 0.268529 0.770710 -0.158800
C17   C     C_3   0.136741 0.177359 0.805837 0.036346
C18   C     C_3   0.154612 0.265754 0.743186 -0.086641
C19   C     C_3   0.161338 0.170113 0.709413 0.004783
C20   C     C_3   0.237275 0.174595 0.778621 0.254428
C21   C     C_3   0.244822 0.080755 0.744632 0.107259
C22   C     C_1   0.118201 0.186880 0.858667 -0.014784
C23   C     C_R   0.275981 0.122949 0.569004 0.541849
C24   C     C_1   0.186647 0.158930 0.657108 -0.030328
C25   C     C_3   0.628456 0.284762 0.738694 -0.120387
C26   C     C_3   0.560223 0.258522 0.776641 0.288645
C27   C     C_1   0.693632 0.208871 0.902568 -0.002896
C28   C     C_1   0.637177 0.136830 0.617017 -0.014620
C29   C     C_3   0.737919 0.215439 0.769367 -0.142799
C30   C     C_3   0.667635 0.191233 0.807111 0.088401
C31   C     C_3   0.764666 0.104689 0.740842 -0.076991
C32   C     C_3   0.654865 0.173679 0.711324 -0.018179
C33   C     C_3   0.693438 0.083513 0.778629 0.097329
C34   C     C_R   0.622569 0.099469 0.431025 0.566386
C35   C     C_3   0.584162 0.148829 0.748760 -0.099305
C36   C     C_1   0.678173 0.199635 0.859928 -0.014656
C37   C     C_1   0.646890 0.157813 0.658938 -0.063963
C38   C     C_R   0.744570 0.696337 0.361044 0.089853
C39   C     C_R   0.753527 0.682467 0.309734 0.014757
C40   C     C_R   0.756185 0.673903 0.206773 0.006184
C41   C     C_R   0.838859 0.686491 0.231837 -0.122852
C42   C     C_R   0.839878 0.687271 0.282813 -0.114319
C43   C     C_R   0.763896 0.656272 0.156083 -0.135214
C44   C     C_R   0.680595 0.641595 0.132131 -0.005651
C45   C     C_R   0.603935 0.773270 0.431016 0.564345
C46   C     C_R   0.574977 0.676927 0.360442 -0.166411
C47   C     C_R   0.583819 0.661492 0.310124 0.003914
C48   C     C_R   0.668866 0.671247 0.284398 0.042793
C49   C     C_R   0.502284 0.646875 0.284803 -0.137494
C50   C     C_R   0.496789 0.654966 0.234285 -0.134048
C51   C     C_R   0.580165 0.665554 0.208314 0.018060
C52   C     C_R   0.668589 0.670105 0.233191 0.065479
C53   C     C_R   0.581586 0.662684 0.157705 -0.136921
C54   C     C_R   0.646862 0.706992 0.385133 0.035281
C55   C     C_R   0.230109 0.052053 0.354989 -0.149257
C56   C     C_R   0.277927 0.120941 0.430835 0.537687
C57   C     C_R   0.213719 0.060333 0.304271 0.041914
C58   C     C_R   0.177384 0.082500 0.202856 0.002052
C59   C     C_R   0.200602 0.981762 0.225603 -0.112458
C60   C     C_R   0.220105 0.969207 0.276083 0.106759
C61   C     C_R   0.142161 0.102071 0.154124 -0.139973
C62   C     C_R   0.119365 0.204081 0.132192 -0.016502
C63   C     C_R   0.190838 0.247489 0.359414 0.125999
C64   C     C_R   0.192905 0.250758 0.308114 0.051508
C65   C     C_R   0.197825 0.159256 0.280779 -0.035388
C66   C     C_R   0.197221 0.339601 0.283444 0.129566
C67   C     C_3   0.785080 0.598064 0.734429 0.293999
C68   C     C_R   0.194155 0.342262 0.231950 0.261188
C69   C     C_R   0.177842 0.261912 0.205863 0.009011
C70   C     C_R   0.184709 0.167737 0.229880 0.000281
C71   C     C_R   0.149219 0.277041 0.156548 -0.100104
C72   C     C_R   0.223866 0.142898 0.382437 -0.020187
C73   C     C_R   0.573341 0.242707 0.363948 0.093094
C74   C     C_R   0.580006 0.260243 0.313408 0.045149
C75   C     C_R   0.577156 0.284668 0.210668 0.041067
C76   C     C_R   0.498294 0.373314 0.241189 -0.084257
C77   C     C_R   0.502779 0.363026 0.291708 -0.139587
C78   C     C_3   0.743305 0.691315 0.774882 -0.138621
C79   C     C_R   0.577296 0.296580 0.159387 0.229801
C80   C     C_R   0.665802 0.208340 0.131524 0.014381
C81   C     C_R   0.730497 0.049604 0.353589 -0.157604
C82   C     C_R   0.740991 0.066618 0.304208 -0.040882
C83   C     C_R   0.661576 0.170371 0.283339 -0.009431
C84   C     C_R   0.825633 0.978439 0.274859 0.267567
C85   C     C_R   0.821804 0.988399 0.223954 0.301153
C86   C     C_R   0.736335 0.088814 0.202265 -0.022482
C87   C     C_R   0.660579 0.182456 0.232171 -0.065645
C88   C     C_R   0.726651 0.099298 0.151247 0.078429
C89   C     C_1   0.703141 0.596077 0.898470 -0.004655
C90   C     C_R   0.645141 0.134221 0.383230 0.025298
C91   C     C_R   0.049168 0.236380 0.949855 0.541342
C92   C     C_R   0.712573 0.561087 0.947893 0.546246
C93   C     C_R   0.722595 0.225505 0.950960 0.542008
C94   C     C_R   0.050380 0.244175 0.087728 0.542697
C95   C     C_R   0.706548 0.576852 0.085959 0.543191
C96   C     C_R   0.715195 0.232819 0.088053 0.541202
Cr1   Cr    Cr6+3 0.417550 0.169090 0.500530 1.034674
Cr2   Cr    Cr6+3 0.669180 0.913420 0.499920 1.036271
Cr3   Cr    Cr6+3 0.413260 0.917540 0.499520 1.020272
Cr4   Cr    Cr6+3 0.909170 0.177380 0.020380 1.024945
Cr5   Cr    Cr6+3 0.912710 0.429210 0.018220 1.023381
Cr6   Cr    Cr6+3 0.657170 0.432570 0.019030 1.003182
H1    H     H_    0.794015 0.726167 0.791892 0.103783
H2    H     H_    0.159199 0.341148 0.731363 0.123291
H3    H     H_    0.974474 0.347217 0.782752 0.140404
H4    H     H_    0.601885 0.367619 0.721417 0.097847
H5    H     H_    0.522031 0.120626 0.739803 0.119200
H6    H     H_    0.848768 0.039825 0.725656 0.111234
H7    H     H_    0.801248 0.242011 0.778469 0.111286
H8    H     H_    0.838512 0.644796 0.136235 0.119128
H9    H     H_    0.902578 0.695738 0.211781 0.149558
H10   H     H_    0.907964 0.692733 0.300750 0.162386
H11   H     H_    0.512050 0.661531 0.138850 0.111137
H12   H     H_    0.428591 0.650914 0.215668 0.077999
H13   H     H_    0.438825 0.635544 0.304241 0.097382
H14   H     H_    0.503615 0.678580 0.379407 0.128061
H15   H     H_    0.125691 0.041856 0.134529 0.116521
H16   H     H_    0.251682 0.973756 0.373276 0.153915
H17   H     H_    0.204445 0.912658 0.203950 0.084554
H18   H     H_    0.584987 0.851337 0.741028 0.096829
H19   H     H_    0.138351 0.352357 0.138612 0.166721
H20   H     H_    0.432898 0.452159 0.226887 0.134203
H21   H     H_    0.442180 0.435524 0.313392 0.090842
H22   H     H_    0.784758 0.966434 0.368430 0.166485
H23   H     H_    0.571535 0.564356 0.719390 0.100278
H24   H     H_    0.781432 0.439774 0.769379 0.096672
H25   H     H_    0.984845 0.173765 0.718285 0.106209
O1    O     O_R   0.301710 0.195650 0.554160 -0.512578
O2    O     O_R   0.658900 0.818120 0.449760 -0.459055
O3    O     O_R   0.503220 0.801620 0.445520 -0.533421
O4    O     O_R   0.319370 0.022040 0.450020 -0.504275
O5    O     O_3   0.499990 0.000010 0.499990 -0.254702
O6    O     O_R   0.818720 0.150820 0.967160 -0.504165
O7    O     O_R   0.006410 0.181720 0.970200 -0.489663
O8    O     O_R   0.027890 0.334070 0.964920 -0.508181
O9    O     O_R   0.809600 0.521790 0.967960 -0.495981
O10   O     O_R   0.635520 0.542770 0.964420 -0.507233
O11   O     O_R   0.665950 0.325030 0.970100 -0.498463
O12   O     O_R   0.522390 0.158990 0.550460 -0.494810
O13   O     O_R   0.816620 0.158530 0.074540 -0.507372
O14   O     O_R   0.004460 0.188870 0.069750 -0.499634
O15   O     O_R   0.025800 0.341780 0.072300 -0.522396
O16   O     O_R   0.807650 0.528950 0.067500 -0.496643
O17   O     O_R   0.633420 0.550490 0.071810 -0.543349
O18   O     O_R   0.664000 0.332180 0.069640 -0.499980
O19   O     O_3   0.826350 0.346390 0.019210 -0.247069
O20   O     O_R   0.694390 0.003530 0.554040 -0.510119
O21   O     O_R   0.657700 0.819660 0.549320 -0.497701
O22   O     O_R   0.501930 0.803280 0.552920 -0.505812
O23   O     O_R   0.318170 0.023580 0.549580 -0.491817
O24   O     O_R   0.303010 0.193990 0.446760 -0.518465
O25   O     O_R   0.523600 0.157450 0.450900 -0.457039
O26   O     O_R   0.695690 0.001860 0.446640 -0.532044
O27   O     O_3   0.327299 0.182600 0.800606 -0.563832
C97   C     C_3   0.395345 0.085930 0.828869 -0.006885
H26   H     H_    0.471497 0.025556 0.807018 0.126218
H27   H     H_    0.350867 0.040037 0.841299 0.146886
C98   C     C_3   0.434812 0.122400 0.874048 -0.357160
H28   H     H_    0.360031 0.180956 0.897086 0.163417
H29   H     H_    0.492213 0.046635 0.895607 0.095543
H30   H     H_    0.481656 0.166574 0.863273 0.195013
O28   O     O_3   0.455118 0.338112 0.798457 -0.542715
C99   C     C_3   0.373172 0.392113 0.761843 0.015089
H31   H     H_    0.363080 0.329048 0.739097 0.151761
H32   H     H_    0.397185 0.442789 0.737987 0.110576
C100  C     C_3   0.258617 0.472923 0.785798 -0.355253
H33   H     H_    0.265418 0.537952 0.808350 0.152813
H34   H     H_    0.193519 0.516550 0.757304 0.077190
H35   H     H_    0.231043 0.424945 0.809438 0.197097
N1    N     N_3   0.731255 0.973486 0.800533 -0.635734
H36   H     H_    0.735944 0.918356 0.772458 0.212846
H37   H     H_    0.667351 0.982370 0.824706 0.223922
O29   O     O_3   0.893086 0.542319 0.711124 -0.558320
C101  C     C_3   0.926790 0.622387 0.699342 -0.012542
H38   H     H_    0.958243 0.645564 0.732609 0.126546
H39   H     H_    0.855893 0.701032 0.683477 0.131042
C102  C     C_3   0.023019 0.570256 0.661658 -0.365026
H40   H     H_    0.993734 0.546167 0.628045 0.169759
H41   H     H_    0.049873 0.632870 0.652199 0.094157
H42   H     H_    0.097344 0.493537 0.676413 0.144008
N2    N     N_3   0.829887 0.705401 0.388595 -0.609445
H43   H     H_    0.834449 0.775747 0.376617 0.243599
H44   H     H_    0.908566 0.631976 0.382219 0.225631
N3    N     N_3   0.244144 0.865221 0.298970 -0.684338
H45   H     H_    0.323965 0.832120 0.314981 0.238689
H46   H     H_    0.249903 0.805348 0.272944 0.214807
O30   O     O_3   0.221306 0.413808 0.206870 -0.542618
C103  C     C_3   0.126971 0.525013 0.206747 -0.010710
H47   H     H_    0.063492 0.541799 0.236162 0.110703
H48   H     H_    0.082817 0.539886 0.171198 0.132609
C104  C     C_3   0.168620 0.609720 0.213065 -0.393062
H49   H     H_    0.213949 0.611181 0.179508 0.143357
H50   H     H_    0.094580 0.695156 0.220329 0.151567
H51   H     H_    0.227115 0.587155 0.244442 0.130411
N4    N     N_3   0.215201 0.420658 0.310413 -0.625040
H52   H     H_    0.141511 0.500252 0.309441 0.225617
H53   H     H_    0.282016 0.426024 0.294264 0.250385
N5    N     N_3   0.148178 0.351578 0.387499 -0.604844
H54   H     H_    0.098029 0.351485 0.416630 0.230693
H55   H     H_    0.215965 0.359922 0.400786 0.275009
O31   O     O_3   0.477632 0.371257 0.135639 -0.535072
C105  C     C_3   0.466865 0.479552 0.130864 0.012716
H56   H     H_    0.549732 0.477666 0.132643 0.159401
H57   H     H_    0.410739 0.537333 0.160007 0.097406
C106  C     C_3   0.407606 0.530956 0.082998 -0.321918
H58   H     H_    0.321318 0.540052 0.083032 0.138632
H59   H     H_    0.398423 0.616393 0.078755 0.089376
H60   H     H_    0.456987 0.476106 0.051442 0.185744
N6    N     N_3   0.491318 0.331784 0.395403 -0.614034
H61   H     H_    0.505460 0.400805 0.394381 0.218208
H62   H     H_    0.409513 0.356994 0.382637 0.241539
N7    N     N_3   0.774963 0.999999 0.119607 -0.569564
H63   H     H_    0.741460 0.949032 0.130784 0.249035
H64   H     H_    0.745822 0.022130 0.083932 0.225390
N8    N     N_3   0.470007 0.742197 0.799224 -0.628672
H65   H     H_    0.410466 0.757899 0.771901 0.235248
H66   H     H_    0.469871 0.679646 0.821028 0.239731
O32   O     O_3   0.901016 0.897959 0.195518 -0.537192
C107  C     C_3   0.992206 0.916230 0.183122 0.010393
H67   H     H_    0.056847 0.880395 0.212031 0.120718
H68   H     H_    0.966251 0.007725 0.178869 0.132487
C108  C     C_3   0.047686 0.854094 0.135226 -0.364604
H69   H     H_    0.057756 0.767766 0.134514 0.154446
H70   H     H_    0.994824 0.901972 0.103827 0.187910
H71   H     H_    0.132968 0.846264 0.130947 0.070623
O33   O     O_3   0.905754 0.876717 0.294878 -0.580095
C109  C     C_3   0.990059 0.891520 0.318705 -0.021581
H72   H     H_    0.953899 0.958145 0.347964 0.130501
H73   H     H_    0.035472 0.916376 0.292306 0.163933
C110  C     C_3   0.074816 0.780256 0.342204 -0.378464
H74   H     H_    0.117982 0.712675 0.313819 0.141709
H75   H     H_    0.139887 0.791164 0.362356 0.136402
H76   H     H_    0.029962 0.753762 0.368366 0.145114
O34   O     O_3   0.141342 0.987459 0.789820 -0.545118
C111  C     C_3   0.135786 0.921792 0.750658 0.000904
H77   H     H_    0.211151 0.891187 0.725893 0.162739
H78   H     H_    0.056588 0.971513 0.729421 0.117265
C112  C     C_3   0.134302 0.818559 0.770790 -0.375461
H79   H     H_    0.058500 0.846296 0.794925 0.177582
H80   H     H_    0.130415 0.765867 0.740249 0.083215
H81   H     H_    0.212740 0.766204 0.792027 0.157832
N9    N     N_3   0.348714 0.979629 0.728567 -0.645188
H82   H     H_    0.389180 0.936616 0.759989 0.247632
H83   H     H_    0.401192 0.006626 0.712541 0.224133

loop_
_geom_bond_atom_site_label_1
_geom_bond_atom_site_label_2
_ccdc_geom_bond_type
C60   N3    S    
C83   C87   A    
C8    C78   S    
C45   O2    A    
C97   H27   S    
C11   C13   S    
C41   C42   A    
C39   C48   A    
C95   O17   A    
C66   C68   A    
C99   H31   S    
C74   C83   A    
C43   C44   A    
C2    C12   S    
C104  H50   S    
C66   N4    S    
C3    H24   S    
C7    C8    S    
C47   C49   A    
C106  H58   S    
C95   O16   A    
C96   O18   A    
Cr3   O22   S    
C112  H81   S    
C11   C19   S    
C20   C21   S    
C38   N2    S    
C20   O27   S    
Cr3   O5    S    
C49   H13   S    
C103  C104  S    
C29   H7    S    
C19   C21   S    
C67   O29   S    
C73   C90   A    
C93   O6    A    
Cr4   O14   S    
N8    H66   S    
Cr6   O18   S    
C85   C86   A    
C5    C6    S    
C86   C88   A    
C106  H60   S    
Cr2   O20   S    
C33   N1    S    
C65   C70   A    
N2    H43   S    
C17   C20   S    
N3    H45   S    
C110  H76   S    
C103  H48   S    
C18   C19   S    
Cr6   O11   S    
C74   C77   A    
C69   C71   A    
C1    O20   A    
C42   H10   S    
C101  H38   S    
C93   O11   A    
Cr4   O13   S    
C98   H30   S    
N6    H62   S    
C112  H79   S    
C44   C53   A    
C98   H29   S    
C40   C43   A    
C109  H72   S    
C68   O30   S    
Cr4   O19   S    
C16   C17   S    
C79   O31   S    
C105  C106  S    
C30   C36   S    
C1    C28   S    
N9    H83   S    
C111  H77   S    
C31   C33   S    
N5    H54   S    
C43   H8    S    
C80   C96   S    
C55   C72   A    
C30   C33   S    
C69   C70   A    
C61   C62   A    
C25   C32   S    
C15   C23   S    
Cr2   O26   S    
C84   O33   S    
C59   C60   A    
C97   C98   S    
C100  H34   S    
C111  H78   S    
C92   O9    A    
C67   C78   S    
Cr6   O17   S    
Cr1   O1    S    
C92   O10   A    
Cr4   O7    S    
C53   H11   S    
C25   H4    S    
N6    H61   S    
C39   C42   A    
Cr5   O8    S    
C73   C74   A    
C25   C29   S    
Cr3   O23   S    
C112  H80   S    
Cr5   O19   S    
C13   O34   S    
C105  H56   S    
C81   H22   S    
C61   H15   S    
C51   C52   A    
C94   O15   A    
C32   C35   S    
C99   C100  S    
C76   C77   A    
N2    H44   S    
C9    C89   T    
C107  H67   S    
C5    C7    S    
C40   C41   A    
C34   O25   A    
C86   C87   A    
C58   C70   A    
C57   C60   A    
C6    C8    S    
N4    H52   S    
C108  H71   S    
C4    C7    S    
C58   C59   A    
O29   C101  S    
C11   C16   S    
C88   N7    S    
Cr3   O4    S    
C26   O28   S    
C81   C82   A    
C104  H49   S    
C103  H47   S    
C56   O24   A    
Cr6   O10   S    
C64   C66   A    
C98   H28   S    
C11   H25   S    
C75   C76   A    
C34   C90   S    
C4    C78   S    
C29   C30   S    
C77   H21   S    
C111  C112  S    
C107  H68   S    
Cr5   O15   S    
C47   C48   A    
C38   C54   A    
C48   C52   A    
C110  H75   S    
C102  H42   S    
C46   C54   A    
C50   C51   A    
Cr1   O24   S    
C13   C21   S    
C16   C18   S    
C18   H2    S    
C32   C37   S    
C84   C85   A    
C89   C92   S    
C108  H70   S    
C101  C102  S    
O27   C97   S    
C105  H57   S    
C16   H3    S    
C102  H40   S    
C81   C90   A    
C75   C87   A    
C15   C24   T    
C109  H73   S    
C23   O23   A    
N7    H64   S    
C45   C54   S    
O33   C109  S    
C82   C84   A    
C55   C57   A    
C41   H9    S    
C100  H33   S    
C49   C50   A    
C27   C93   S    
O34   C111  S    
Cr2   O5    S    
C3    C4    S    
C2    C10   T    
C31   H6    S    
Cr4   O6    S    
C8    H18   S    
O28   C99   S    
Cr5   O9    S    
C73   N6    S    
C46   C47   A    
C6    C67   S    
C59   H17   S    
Cr3   O3    S    
C56   C72   S    
C78   H1    S    
C94   O14   A    
C12   O22   A    
C85   O32   S    
C31   C32   S    
C3    C67   S    
Cr1   O5    S    
C57   C65   A    
C63   C64   A    
C3    C5    S    
C1    O12   A    
C96   O13   A    
C63   N5    S    
C26   C30   S    
C13   C17   S    
C27   C36   T    
C17   C22   S    
N3    H46   S    
O31   C105  S    
C46   H14   S    
C76   H20   S    
C64   C65   A    
C14   C22   T    
C62   C94   S    
C19   C24   S    
C25   C26   S    
C104  H51   S    
O30   C103  S    
C80   C88   A    
C44   C95   S    
C40   C52   A    
Cr6   O19   S    
C107  C108  S    
Cr5   O16   S    
C12   O21   A    
O32   C107  S    
C38   C39   A    
C91   O7    A    
Cr2   O21   S    
C28   C37   T    
C58   C61   A    
N9    H82   S    
Cr2   O2    S    
C63   C72   A    
C33   C35   S    
Cr1   O25   S    
C102  H41   S    
C62   C71   A    
C18   C20   S    
N8    H65   S    
C110  H74   S    
C68   C69   A    
C101  H39   S    
C14   C91   S    
C34   O26   A    
C56   O4    A    
C35   H5    S    
C6    C10   S    
C51   C53   A    
C79   C80   A    
C71   H19   S    
C26   C35   S    
C45   O3    A    
C109  C110  S    
C91   O8    A    
N7    H63   S    
C100  H35   S    
C29   C31   S    
C82   C83   A    
N1    H36   S    
C5    H23   S    
C97   H26   S    
C21   N9    S    
C99   H32   S    
N5    H55   S    
N1    H37   S    
C50   H12   S    
C4    C9    S    
C106  H59   S    
C75   C79   A    
C108  H69   S    
Cr1   O12   S    
C7    N8    S    
C23   O1    A    
N4    H53   S    
C55   H16   S    
