data_mof_unit_59679.cif
_audit_creation_date              2012-12-11T15:21:22-0500
_audit_creation_method            fapswitch 2.2
_symmetry_space_group_name_H-M    P1
_symmetry_Int_Tables_number       1
_space_group_crystal_system       triclinic
_cell_length_a                    18.37239
_cell_length_b                    18.346898
_cell_length_c                    51.233098
_cell_angle_alpha                 90.171169
_cell_angle_beta                  90.003924
_cell_angle_gamma                 120.069606
_cell_volume                      14945.2045492

loop_
_atom_site_label
_atom_site_type_symbol
_atom_type_description
_atom_site_fract_x
_atom_site_fract_y
_atom_site_fract_z
_atom_type_partial_charge
C1    C     C_R   0.409762 0.584006 0.287464 0.523894
C2    C     C_R   0.407574 0.584717 0.211973 0.510909
C3    C     C_R   0.106631 0.529122 0.367737 0.183513
C4    C     C_R   0.062598 0.503005 0.137242 0.193484
C5    C     C_R   0.619865 0.525866 0.679393 -0.021206
C6    C     C_R   0.637205 0.514411 0.825475 -0.008337
C7    C     C_R   0.511119 0.381078 0.670203 -0.104768
C8    C     C_R   0.509784 0.378149 0.830286 -0.098743
C9    C     C_R   0.505542 0.401626 0.644326 0.049504
C10   C     C_R   0.507777 0.391978 0.857173 0.051129
C11   C     C_R   0.559270 0.484536 0.635797 0.178399
C12   C     C_R   0.574112 0.465451 0.868505 0.185765
C13   C     C_R   0.586152 0.527178 0.483213 0.037450
C14   C     C_R   0.560996 0.599012 0.013448 0.034996
C15   C     C_R   0.513822 0.526768 0.473373 0.030566
C16   C     C_R   0.574693 0.548560 0.031497 0.035487
C17   C     C_R   0.452071 0.523506 0.490645 0.022793
C18   C     C_R   0.596479 0.488700 0.022552 0.012735
C19   C     C_R   0.652903 0.546717 0.465825 -0.075772
C20   C     C_R   0.525500 0.646709 0.022752 -0.072474
C21   C     C_R   0.365638 0.513885 0.453219 -0.059880
C22   C     C_R   0.607425 0.454297 0.067985 -0.077032
C23   C     C_R   0.417361 0.543900 0.535709 -0.120946
C24   C     C_R   0.603200 0.405680 0.985124 -0.154260
C25   C     C_R   0.071068 0.483723 0.449032 -0.117960
C26   C     C_R   0.008803 0.446728 0.057023 -0.116947
C27   C     C_R   0.430206 0.544813 0.562437 -0.081044
C28   C     C_R   0.601423 0.391414 0.958374 -0.131570
C29   C     C_R   0.376968 0.514364 0.480036 -0.115552
C30   C     C_R   0.615518 0.444383 0.041362 -0.135285
C31   C     C_R   0.590376 0.174183 0.712576 0.511887
C32   C     C_R   0.591562 0.176340 0.787701 0.503845
C33   C     C_R   0.825207 0.415900 0.712458 0.571580
C34   C     C_R   0.825196 0.415919 0.787617 0.553604
C35   C     C_R   0.583813 0.409636 0.712657 0.520883
C36   C     C_R   0.584626 0.409128 0.787791 0.507861
C37   C     C_R   0.005554 0.432215 0.431375 -0.008426
C38   C     C_R   0.942013 0.428304 0.074609 -0.004609
C39   C     C_R   0.930752 0.362712 0.441246 0.293449
C40   C     C_R   0.858474 0.390210 0.064737 0.286787
C41   C     C_R   0.150586 0.546405 0.439523 0.036068
C42   C     C_R   0.091551 0.476138 0.066631 0.045860
C43   C     C_R   0.139759 0.564445 0.314174 0.017788
C44   C     C_R   0.127341 0.556845 0.187842 0.004161
C45   C     C_R   0.872000 0.430527 0.687630 0.013258
C46   C     C_R   0.866987 0.427969 0.813392 0.018526
C47   C     C_R   0.955844 0.418906 0.512088 0.043874
C48   C     C_R   0.902467 0.422294 0.992791 0.057352
C49   C     C_R   0.105649 0.509702 0.521640 -0.015246
C50   C     C_R   0.042048 0.440626 0.984781 -0.015672
C51   C     C_R   0.021568 0.462708 0.530340 0.028988
C52   C     C_R   0.966035 0.431736 0.975146 0.031904
C53   C     C_R   0.176092 0.591435 0.287786 0.578781
C54   C     C_R   0.174368 0.590308 0.212570 0.560840
C55   C     C_R   0.872280 0.386595 0.520408 -0.049983
C56   C     C_R   0.834505 0.428982 0.982909 -0.093381
C57   C     C_R   0.853514 0.387773 0.546552 -0.041825
C58   C     C_R   0.823618 0.433233 0.956245 -0.099131
C59   C     C_R   0.917713 0.421434 0.565318 0.035962
C60   C     C_R   0.881591 0.433518 0.938418 0.032905
C61   C     C_R   0.002578 0.460344 0.557321 -0.072243
C62   C     C_R   0.954110 0.434099 0.947767 -0.067288
C63   C     C_R   0.067990 0.497506 0.576088 0.036951
C64   C     C_R   0.014940 0.438172 0.929905 0.034679
C65   C     C_R   0.045752 0.492419 0.602835 0.459489
C66   C     C_R   0.000933 0.441555 0.902827 0.452917
C67   C     C_R   0.898629 0.418619 0.591878 0.451107
C68   C     C_R   0.869226 0.435058 0.911433 0.432665
C69   C     C_R   0.936843 0.388792 0.653631 0.000183
C70   C     C_R   0.905959 0.372455 0.850712 -0.006650
C71   C     C_R   0.903303 0.378135 0.678808 0.216217
C72   C     C_R   0.883685 0.366896 0.824377 0.212725
C73   C     C_R   0.879830 0.495582 0.671220 -0.154345
C74   C     C_R   0.880089 0.496979 0.828981 -0.131454
C75   C     C_R   0.415398 0.824117 0.287749 0.547580
C76   C     C_R   0.415998 0.825071 0.212523 0.542610
C77   C     C_R   0.913192 0.505434 0.646246 -0.059142
C78   C     C_R   0.903102 0.502168 0.855148 -0.037937
C79   C     C_R   0.940083 0.451041 0.637161 0.191386
C80   C     C_R   0.913609 0.438605 0.866375 0.192998
C81   C     C_R   0.975454 0.414360 0.485634 -0.007796
C82   C     C_R   0.911997 0.413148 0.019950 0.001213
C83   C     C_R   0.056324 0.473174 0.476343 -0.013787
C84   C     C_R   0.993080 0.436925 0.029672 -0.012448
C85   C     C_R   0.121923 0.521596 0.494317 -0.007331
C86   C     C_R   0.058609 0.451504 0.012067 -0.004163
C87   C     C_R   0.917898 0.352185 0.468252 0.248335
C88   C     C_R   0.843658 0.379726 0.037698 0.229796
C89   C     C_R   0.215699 0.594740 0.457701 0.209786
C90   C     C_R   0.156553 0.491467 0.048735 0.262971
C91   C     C_R   0.170095 0.544548 0.540555 -0.114284
C92   C     C_R   0.099755 0.440106 0.966760 -0.098095
C93   C     C_R   0.152514 0.538228 0.567241 0.255056
C94   C     C_R   0.087097 0.438578 0.939903 0.262329
C95   C     C_R   0.200902 0.581797 0.484406 -0.136177
C96   C     C_R   0.139538 0.479127 0.022170 -0.094069
C97   C     C_R   0.018192 0.450875 0.404473 0.454027
C98   C     C_R   0.961383 0.447187 0.101457 0.456900
C99   C     C_R   0.368127 0.888746 0.407716 0.472301
C100  C     C_R   0.455778 0.031566 0.102306 0.455710
C101  C     C_R   0.495994 0.020191 0.401403 0.432814
C102  C     C_R   0.525669 0.951712 0.096604 0.435278
C103  C     C_R   0.498316 0.913893 0.354793 -0.035317
C104  C     C_R   0.382111 0.898165 0.147085 -0.054396
C105  C     C_R   0.495378 0.885906 0.329216 -0.118659
C106  C     C_R   0.365457 0.860765 0.171757 -0.136722
C107  C     C_R   0.362637 0.881611 0.322547 -0.138330
C108  C     C_R   0.515079 0.931103 0.180708 -0.120723
C109  C     C_R   0.365874 0.909869 0.348057 -0.056200
C110  C     C_R   0.531528 0.969316 0.156252 -0.034051
C111  C     C_R   0.432731 0.924377 0.364521 0.230165
C112  C     C_R   0.465385 0.951077 0.138942 0.235976
C113  C     C_R   0.437178 0.979530 0.445049 -0.062345
C114  C     C_R   0.507653 0.022925 0.059273 -0.049164
C115  C     C_R   0.366208 0.907680 0.434491 0.064792
C116  C     C_R   0.471349 0.058074 0.075823 0.054390
C117  C     C_R   0.298518 0.855836 0.451412 0.056477
C118  C     C_R   0.449459 0.115660 0.064925 0.023181
C119  C     C_R   0.161475 0.558614 0.412238 0.470325
C120  C     C_R   0.106486 0.490804 0.093697 0.459704
C121  C     C_R   0.500700 0.037363 0.428258 -0.014730
C122  C     C_R   0.538153 0.972725 0.070053 -0.002766
C123  C     C_R   0.426421 0.867498 0.313029 0.006081
C124  C     C_R   0.432007 0.874834 0.188444 0.012124
C125  C     C_R   0.557127 0.128146 0.687581 -0.028430
C126  C     C_R   0.570731 0.150691 0.815103 0.001404
C127  C     C_R   0.389533 0.953694 0.516890 0.036058
C128  C     C_R   0.487678 0.100553 0.993216 0.048650
C129  C     C_R   0.535316 0.065843 0.509926 -0.007905
C130  C     C_R   0.536530 0.998814 0.988108 -0.012287
C131  C     C_R   0.468954 0.014861 0.527051 0.022796
C132  C     C_R   0.511138 0.052867 0.976926 0.025499
C133  C     C_R   0.322820 0.909437 0.534660 -0.125117
C134  C     C_R   0.466406 0.156598 0.981120 -0.131962
C135  C     C_R   0.334931 0.922947 0.561427 -0.083147
C136  C     C_R   0.465297 0.162980 0.954139 -0.104200
C137  C     C_R   0.414349 0.979769 0.571658 0.038557
C138  C     C_R   0.486072 0.114513 0.937963 0.038431
C139  C     C_R   0.482440 0.024877 0.554497 -0.068025
C140  C     C_R   0.508477 0.058559 0.949228 -0.068023
C141  C     C_R   0.127390 0.608438 0.358062 -0.055905
C142  C     C_R   0.097639 0.587699 0.144268 -0.074468
C143  C     C_R   0.563881 0.079556 0.564664 0.030843
C144  C     C_R   0.527769 0.008079 0.932879 0.027062
C145  C     C_R   0.573714 0.091515 0.592014 0.458668
C146  C     C_R   0.532925 0.021914 0.905562 0.458537
C147  C     C_R   0.426872 0.993281 0.598713 0.439338
C148  C     C_R   0.486513 0.122344 0.910699 0.435108
C149  C     C_R   0.490129 0.123128 0.646077 -0.050188
C150  C     C_R   0.497065 0.041939 0.847666 -0.037441
C151  C     C_R   0.510346 0.152181 0.671644 -0.128902
C152  C     C_R   0.517351 0.065861 0.821535 -0.132772
C153  C     C_R   0.578132 0.068302 0.677874 -0.009525
C154  C     C_R   0.603866 0.212352 0.835178 -0.003336
C155  C     C_R   0.558401 0.040766 0.651796 -0.003950
C156  C     C_R   0.585184 0.186966 0.861214 -0.008500
C157  C     C_R   0.516096 0.069340 0.635833 0.202224
C158  C     C_R   0.531331 0.102480 0.867699 0.195169
C159  C     C_R   0.380308 0.938278 0.489442 0.022271
C160  C     C_R   0.484135 0.088778 0.020832 0.036769
C161  C     C_R   0.445491 0.993635 0.472461 0.006185
C162  C     C_R   0.513035 0.037016 0.031835 0.020272
C163  C     C_R   0.143738 0.625953 0.331571 -0.165035
C164  C     C_R   0.129322 0.614358 0.169356 -0.170408
C165  C     C_R   0.519669 0.063032 0.482743 0.023591
C166  C     C_R   0.546962 0.998533 0.015562 0.031746
C167  C     C_R   0.307768 0.869954 0.478370 -0.133573
C168  C     C_R   0.453480 0.127766 0.037909 -0.136099
C169  C     C_R   0.566351 0.112482 0.438522 -0.030687
C170  C     C_R   0.582816 0.946352 0.054267 -0.053981
C171  C     C_R   0.617006 0.112535 0.520247 -0.047997
C172  C     C_R   0.543615 0.941188 0.971648 -0.048799
C173  C     C_R   0.632018 0.119574 0.547018 0.254121
C174  C     C_R   0.541305 0.946071 0.944584 0.268085
C175  C     C_R   0.574586 0.127013 0.465297 0.229403
C176  C     C_R   0.590837 0.962147 0.027623 0.211056
C177  C     C_R   0.557686 0.546544 0.401820 0.431547
C178  C     C_R   0.520688 0.614365 0.094209 0.444581
C179  C     C_R   0.420984 0.530268 0.408981 0.444024
C180  C     C_R   0.564257 0.513726 0.103675 0.439846
C181  C     C_R   0.406672 0.482449 0.351353 -0.055418
C182  C     C_R   0.558467 0.606930 0.158225 -0.048794
C183  C     C_R   0.390186 0.493430 0.325655 -0.129574
C184  C     C_R   0.526369 0.612392 0.182444 -0.134486
C185  C     C_R   0.113605 0.482666 0.323767 0.211001
C186  C     C_R   0.087290 0.470305 0.181137 0.207033
C187  C     C_R   0.516497 0.632182 0.324972 -0.019765
C188  C     C_R   0.383366 0.522523 0.166267 -0.012200
C189  C     C_R   0.530398 0.620953 0.351264 -0.016522
C190  C     C_R   0.417027 0.515934 0.142419 -0.008708
C191  C     C_R   0.474715 0.547384 0.364627 0.206919
C192  C     C_R   0.503678 0.559608 0.138063 0.208943
C193  C     C_R   0.503908 0.531219 0.446046 -0.032651
C194  C     C_R   0.563571 0.556066 0.058669 -0.031081
C195  C     C_R   0.568665 0.542744 0.428847 0.032224
C196  C     C_R   0.534355 0.609740 0.067455 0.039272
C197  C     C_R   0.643801 0.552681 0.439100 -0.084562
C198  C     C_R   0.514475 0.653757 0.049231 -0.063194
C199  C     C_R   0.429585 0.524912 0.436023 0.041927
C200  C     C_R   0.579402 0.508265 0.076934 0.024597
C201  C     C_R   0.442019 0.569414 0.312382 -0.031955
C202  C     C_R   0.438982 0.571445 0.186773 -0.021083
C203  C     C_R   0.570063 0.441025 0.687612 -0.048129
C204  C     C_R   0.575230 0.436971 0.814291 -0.046443
C205  C     C_R   0.591123 0.512901 0.510255 0.027374
C206  C     C_R   0.576446 0.594978 0.986481 0.018970
C207  C     C_R   0.097912 0.465994 0.350411 -0.010241
C208  C     C_R   0.055647 0.444205 0.155856 0.010769
C209  C     C_R   0.467388 0.529373 0.517878 0.024410
C210  C     C_R   0.595973 0.473608 0.995242 0.024009
C211  C     C_R   0.535113 0.520882 0.527646 0.004948
C212  C     C_R   0.585919 0.527027 0.977338 0.009827
C213  C     C_R   0.647799 0.488850 0.520785 0.209376
C214  C     C_R   0.582909 0.655832 0.968057 0.212614
C215  C     C_R   0.657069 0.486592 0.547700 -0.060783
C216  C     C_R   0.579295 0.639142 0.941447 -0.035998
C217  C     C_R   0.607526 0.502322 0.564978 -0.008375
C218  C     C_R   0.577577 0.566515 0.932205 -0.009082
C219  C     C_R   0.545474 0.518322 0.555019 -0.043439
C220  C     C_R   0.585346 0.512526 0.950032 -0.039370
C221  C     C_R   0.492609 0.530130 0.572402 0.031560
C222  C     C_R   0.592466 0.444176 0.940571 0.033834
C223  C     C_R   0.501798 0.524482 0.599422 0.424393
C224  C     C_R   0.590341 0.430141 0.913447 0.430828
C225  C     C_R   0.614612 0.496354 0.592097 0.421270
C226  C     C_R   0.571939 0.548792 0.905341 0.427404
C227  C     C_R   0.614404 0.546116 0.653312 -0.016356
C228  C     C_R   0.637044 0.526139 0.852539 0.003369
Cr1   Cr    Cr6+3 0.456550 0.732290 0.250000 1.038251
Cr2   Cr    Cr6+3 0.275740 0.543450 0.250000 1.152924
Cr3   Cr    Cr6+3 0.267710 0.724260 0.250000 1.043082
Cr4   Cr    Cr6+3 0.543450 0.275740 0.750000 1.054920
Cr5   Cr    Cr6+3 0.724260 0.267710 0.750000 1.164522
Cr6   Cr    Cr6+3 0.732290 0.456550 0.750000 1.045903
H1    H     H_    0.133208 0.657383 0.371230 0.187342
H2    H     H_    0.103550 0.633516 0.129898 0.140718
H3    H     H_    0.235555 0.575372 0.535115 0.129926
H4    H     H_    0.154921 0.438494 0.973087 0.153863
H5    H     H_    0.856523 0.536843 0.677183 0.170953
H6    H     H_    0.868334 0.545154 0.821385 0.183326
H7    H     H_    0.915084 0.553367 0.633514 0.157668
H8    H     H_    0.909924 0.554274 0.866965 0.162297
H9    H     H_    0.252007 0.622942 0.497125 0.143112
H10   H     H_    0.192659 0.495785 0.009610 0.149184
H11   H     H_    0.308625 0.868023 0.310597 0.139262
H12   H     H_    0.567555 0.943624 0.193263 0.151587
H13   H     H_    0.315111 0.918173 0.355296 0.150086
H14   H     H_    0.596047 0.010378 0.150284 0.162043
H15   H     H_    0.080502 0.404124 0.357813 0.181573
H16   H     H_    0.028105 0.378552 0.150375 0.181464
H17   H     H_    0.492982 0.197218 0.678492 0.151716
H18   H     H_    0.490990 0.018394 0.806329 0.134912
H19   H     H_    0.457563 0.145567 0.633787 0.178755
H20   H     H_    0.454901 0.976367 0.852311 0.170630
H21   H     H_    0.281440 0.888033 0.574174 0.179933
H22   H     H_    0.448746 0.207173 0.945948 0.170287
H23   H     H_    0.259549 0.865496 0.528494 0.118673
H24   H     H_    0.451254 0.197746 0.991847 0.114828
H25   H     H_    0.256425 0.825775 0.490371 0.093069
H26   H     H_    0.432516 0.169370 0.030833 0.092765
H27   H     H_    0.545113 0.875081 0.322554 0.182979
H28   H     H_    0.300923 0.817429 0.177189 0.128085
H29   H     H_    0.550131 0.924519 0.367368 0.164926
H30   H     H_    0.330421 0.883006 0.133860 0.140912
H31   H     H_    0.610983 0.161264 0.425671 0.227174
H32   H     H_    0.614047 0.915204 0.062763 0.202906
H33   H     H_    0.670994 0.140527 0.507492 0.232671
H34   H     H_    0.547272 0.888792 0.979668 0.224081
H35   H     H_    0.576395 0.997545 0.643633 0.186873
H36   H     H_    0.612164 0.233188 0.876765 0.214469
H37   H     H_    0.584289 0.669897 0.361616 0.189298
H38   H     H_    0.375707 0.481712 0.126256 0.192319
H39   H     H_    0.696450 0.566237 0.426503 0.183326
H40   H     H_    0.487682 0.691944 0.055316 0.190756
H41   H     H_    0.653415 0.609933 0.646334 0.188234
H42   H     H_    0.685789 0.583615 0.861476 0.190674
H43   H     H_    0.700893 0.468323 0.555108 0.195761
H44   H     H_    0.581557 0.685461 0.927878 0.231045
H45   H     H_    0.714397 0.561809 0.472686 0.186286
H46   H     H_    0.501054 0.675331 0.009709 0.185037
H47   H     H_    0.333934 0.443260 0.316642 0.177252
H48   H     H_    0.569912 0.650489 0.197671 0.138389
H49   H     H_    0.364091 0.424622 0.361378 0.154567
H50   H     H_    0.625645 0.641942 0.154847 0.149587
H51   H     H_    0.306610 0.505690 0.445973 0.187871
H52   H     H_    0.621535 0.417876 0.081569 0.221021
H53   H     H_    0.368917 0.556874 0.529462 0.120779
H54   H     H_    0.607819 0.360632 0.997434 0.144571
H55   H     H_    0.471836 0.316525 0.676441 0.178564
H56   H     H_    0.461222 0.319438 0.821945 0.193681
H57   H     H_    0.389783 0.555555 0.575340 0.215391
H58   H     H_    0.606844 0.338280 0.951661 0.168955
H59   H     H_    0.324727 0.504934 0.492054 0.117157
H60   H     H_    0.637639 0.401910 0.036104 0.169738
H61   H     H_    0.957963 0.346867 0.646498 0.181690
H62   H     H_    0.915157 0.323745 0.859277 0.184488
H63   H     H_    0.788162 0.361733 0.552025 0.208234
H64   H     H_    0.769996 0.437540 0.949607 0.168320
H65   H     H_    0.820736 0.363045 0.506646 0.229167
H66   H     H_    0.791008 0.434954 0.995692 0.163118
H67   H     H_    0.163976 0.689347 0.325001 0.152360
H68   H     H_    0.159402 0.680948 0.173836 0.138929
N1    N     N_R   0.095145 0.512725 0.395396 -0.408201
N2    N     N_R   0.042474 0.478620 0.110305 -0.410714
N3    N     N_R   0.962267 0.453525 0.610139 -0.406123
N4    N     N_R   0.928570 0.439083 0.894062 -0.402647
N5    N     N_R   0.431816 0.945361 0.391637 -0.398024
N6    N     N_R   0.483225 0.979499 0.112218 -0.390880
N7    N     N_R   0.505460 0.049479 0.608405 -0.404916
N8    N     N_R   0.513728 0.079471 0.894935 -0.400322
N9    N     N_R   0.484526 0.540534 0.392251 -0.391751
N10   N     N_R   0.533722 0.565145 0.111806 -0.396319
N11   N     N_R   0.560735 0.505537 0.608760 -0.407215
N12   N     N_R   0.577736 0.480898 0.896279 -0.408115
O1    O     O_R   0.475290 0.813700 0.278840 -0.497481
O2    O     O_R   0.475290 0.813700 0.221160 -0.500940
O3    O     O_2   0.229728 0.609916 0.403259 -0.378276
O4    O     O_2   0.176592 0.515467 0.102700 -0.406272
O5    O     O_2   0.100001 0.522948 0.619677 -0.398345
O6    O     O_2   0.053240 0.447797 0.886939 -0.408104
O7    O     O_2   0.315691 0.820402 0.398887 -0.418218
O8    O     O_2   0.415914 0.052616 0.116411 -0.450348
O9    O     O_2   0.367903 0.955494 0.613705 -0.474483
O10   O     O_2   0.463664 0.168275 0.900888 -0.466438
O11   O     O_2   0.549559 0.071236 0.386675 -0.471265
O12   O     O_2   0.550588 0.906599 0.105757 -0.484663
O13   O     O_2   0.642277 0.140893 0.601371 -0.398744
O14   O     O_2   0.557373 0.985267 0.891272 -0.414078
O15   O     O_2   0.612844 0.554629 0.386755 -0.490730
O16   O     O_2   0.495600 0.661084 0.101912 -0.462237
O17   O     O_2   0.667395 0.481132 0.600947 -0.488354
O18   O     O_2   0.561410 0.593513 0.889944 -0.473169
O19   O     O_2   0.357489 0.527177 0.400281 -0.467323
O20   O     O_2   0.576322 0.471478 0.119628 -0.456655
O21   O     O_2   0.456186 0.534294 0.614668 -0.459417
O22   O     O_2   0.599577 0.372835 0.905061 -0.459707
O23   O     O_R   0.448450 0.657720 0.276690 -0.516022
O24   O     O_R   0.448450 0.657720 0.223310 -0.494605
O25   O     O_R   0.524710 0.338410 0.721160 -0.496634
O26   O     O_R   0.524710 0.338410 0.778840 -0.494535
O27   O     O_R   0.551550 0.209270 0.723310 -0.493301
O28   O     O_R   0.551550 0.209270 0.776690 -0.501321
O29   O     O_R   0.661590 0.186300 0.721160 -0.486243
O30   O     O_R   0.661590 0.186300 0.778840 -0.462082
O31   O     O_R   0.790730 0.342280 0.723310 -0.426497
O32   O     O_R   0.790730 0.342280 0.776690 -0.441479
O33   O     O_R   0.813700 0.475290 0.721160 -0.509543
O34   O     O_R   0.813700 0.475290 0.778840 -0.509131
O35   O     O_R   0.657720 0.448450 0.723310 -0.507610
O36   O     O_R   0.657720 0.448450 0.776690 -0.517073
O37   O     O_3   0.666667 0.333333 0.750000 -0.267397
O38   O     O_R   0.338410 0.524710 0.278840 -0.475898
O39   O     O_R   0.338410 0.524710 0.221160 -0.495853
O40   O     O_R   0.209270 0.551550 0.276690 -0.427000
O41   O     O_R   0.209270 0.551550 0.223310 -0.454391
O42   O     O_R   0.186300 0.661590 0.278840 -0.516861
O43   O     O_R   0.186300 0.661590 0.221160 -0.510860
O44   O     O_R   0.342280 0.790730 0.276690 -0.500473
O45   O     O_R   0.342280 0.790730 0.223310 -0.497432
O46   O     O_3   0.333333 0.666667 0.250000 -0.259320
O47   O     O_2   0.960374 0.413884 0.389013 -0.412243
O48   O     O_2   0.906987 0.437554 0.117015 -0.409413
O49   O     O_2   0.825192 0.384743 0.598898 -0.445371
O50   O     O_2   0.805069 0.431838 0.903306 -0.459251
Cl1   Cl    Cl    0.099718 0.398953 0.303433 -0.496788
Cl2   Cl    Cl    0.075569 0.392443 0.203523 -0.484620
Cl3   Cl    Cl    0.318034 0.674637 0.448853 -0.548014
Cl4   Cl    Cl    0.262462 0.528178 0.057695 -0.524152
Cl5   Cl    Cl    0.240776 0.584601 0.588231 -0.498718
Cl6   Cl    Cl    0.165303 0.437008 0.920207 -0.452170
C229  C     C_2   0.214348 0.789192 0.442267 0.321808
H69   H     H_    0.178092 0.733243 0.454016 0.105289
O51   O     O_2   0.182007 0.798771 0.422739 -0.456854
C230  C     C_2   0.426375 0.169122 0.080632 0.304562
H70   H     H_    0.377807 0.181456 0.073641 0.099443
O52   O     O_2   0.465548 0.205020 0.100329 -0.390264
C231  C     C_2   0.618097 0.032163 0.694610 0.293097
H71   H     H_    0.618146 0.037802 0.715674 0.140200
O53   O     O_2   0.650212 0.993948 0.685059 -0.439747
C232  C     C_2   0.656786 0.303532 0.829368 0.233751
H72   H     H_    0.668197 0.325480 0.809433 0.118946
O54   O     O_2   0.687451 0.355690 0.846874 -0.478542
Cl7   Cl    Cl    0.853570 0.283919 0.420622 -0.375683
Cl8   Cl    Cl    0.769398 0.350608 0.085537 -0.418705
Cl9   Cl    Cl    0.738583 0.176327 0.556727 -0.466948
Cl10  Cl    Cl    0.551789 0.869150 0.926811 -0.412788
Cl11  Cl    Cl    0.643361 0.232083 0.475146 -0.480789
Cl12  Cl    Cl    0.669997 0.950381 0.011920 -0.482084
C233  C     C_2   0.581446 0.708600 0.311379 0.257655
H73   H     H_    0.589222 0.708601 0.290420 0.136421
O55   O     O_2   0.629030 0.772189 0.323615 -0.494288
C234  C     C_2   0.290709 0.485080 0.167944 0.292270
H74   H     H_    0.263228 0.509632 0.181492 0.145347
O56   O     O_2   0.243674 0.427237 0.153563 -0.441660
C235  C     C_2   0.675530 0.594298 0.697675 0.268146
H75   H     H_    0.667847 0.585249 0.718603 0.126777
O57   O     O_2   0.729946 0.662631 0.689550 -0.466926
C236  C     C_2   0.700998 0.584849 0.809454 0.272789
H76   H     H_    0.690325 0.588734 0.788823 0.131213
O58   O     O_2   0.765743 0.640648 0.819259 -0.481021
Cl13  Cl    Cl    0.695881 0.443043 0.502276 -0.576168
Cl14  Cl    Cl    0.613397 0.760870 0.976294 -0.501668
Cl15  Cl    Cl    0.902036 0.298363 0.698205 -0.471825
Cl16  Cl    Cl    0.876859 0.281397 0.806516 -0.477617
C237  C     C_2   0.445985 0.335599 0.626029 0.275965
H77   H     H_    0.443553 0.350054 0.605651 0.131585
O59   O     O_2   0.398545 0.263859 0.633486 -0.502746
C238  C     C_2   0.436364 0.329702 0.873203 0.327355
H78   H     H_    0.430385 0.343013 0.893474 0.136476
O60   O     O_2   0.382754 0.262655 0.863926 -0.448114
Cl17  Cl    Cl    0.840097 0.252209 0.480012 -0.472380
Cl18  Cl    Cl    0.739355 0.309015 0.026966 -0.577928

loop_
_geom_bond_atom_site_label_1
_geom_bond_atom_site_label_2
_ccdc_geom_bond_type
C194  C196  A    
C63   C65   A    
Cr5   O29   S    
C33   C45   S    
C185  C207  A    
C19   H45   S    
C2    C202  S    
C39   C87   A    
C170  C176  A    
C56   H66   S    
C225  N11   Am   
C171  C173  A    
C214  Cl14  S    
C18   C210  A    
C84   C86   A    
C73   H5    S    
C4    C142  A    
C54   O41   A    
C57   C59   A    
C146  N8    Am   
C58   C60   A    
C108  H12   S    
C105  C123  A    
C60   C62   A    
C61   C63   A    
C184  H48   S    
C227  H41   S    
C96   H10   S    
C7    C203  A    
C22   H52   S    
C12   C228  A    
C81   C83   A    
C122  C170  A    
C50   C52   A    
C159  C161  A    
C171  H33   S    
C97   N1    Am   
C98   N2    Am   
Cr4   O37   S    
C46   C72   A    
C206  C214  A    
Cr6   O33   S    
C158  N8    S    
C167  H25   S    
C108  C124  A    
C4    C208  A    
C23   C27   A    
C77   C79   A    
C34   O34   A    
C191  N9    S    
C183  C201  A    
C140  C144  A    
C8    C204  A    
C28   H58   S    
C234  O56   D    
C25   C41   A    
C26   C38   A    
C47   C81   A    
C93   Cl5   S    
C212  C220  A    
C193  C199  A    
C21   C29   A    
C185  Cl1   S    
C119  O3    D    
C64   C66   A    
Cr3   O43   S    
C79   N3    S    
C164  H68   S    
C86   C96   A    
C134  H24   S    
C91   H3    S    
C92   C94   A    
C94   Cl6   S    
C208  H16   S    
C20   C198  A    
C138  C140  A    
C126  C154  A    
C238  O60   D    
C82   C84   A    
C14   C206  A    
C233  H73   S    
C143  C173  A    
Cr2   O40   S    
C135  C137  A    
C187  C201  A    
C177  C195  A    
C189  H37   S    
C190  H38   S    
C75   O44   A    
C181  H49   S    
Cr1   O24   S    
C6    C236  S    
C186  C208  A    
C3    C207  A    
C40   C88   A    
C156  C158  A    
C64   C94   A    
C172  H34   S    
C237  H77   S    
C99   C115  A    
C66   N4    Am   
C228  H42   S    
C188  C202  A    
C116  C118  A    
C160  C168  A    
C223  O21   D    
C177  O15   D    
C224  O22   D    
C113  C161  A    
C206  C212  A    
C48   C52   A    
C182  H50   S    
C28   C222  A    
C144  C174  A    
C133  C135  A    
C73   C77   A    
C104  H30   S    
Cr3   O42   S    
C186  Cl2   S    
C218  C226  A    
C161  C165  A    
C232  H72   S    
C113  C115  A    
C41   C89   A    
C34   O32   A    
C45   C71   A    
C181  C191  A    
C3    C141  A    
C48   C56   A    
C38   C98   A    
C111  N5    S    
C92   H4    S    
Cr1   O1    S    
C77   H7    S    
C68   N4    Am   
C216  C218  A    
C179  N9    Am   
C149  C151  A    
C214  C216  A    
C43   C185  A    
C149  H19   S    
C106  H28   S    
C223  N11   Am   
C188  C190  A    
C32   C126  S    
C189  C191  A    
C230  H70   S    
C125  C151  A    
C59   C67   A    
C139  C143  A    
C187  C233  S    
C194  C200  A    
C159  C167  A    
C62   C64   A    
C34   C46   S    
Cr1   O2    S    
C24   C28   A    
C35   O35   A    
C74   H6    S    
C67   O49   D    
C21   C199  A    
C1    O38   A    
C58   H64   S    
C172  C174  A    
C127  C131  A    
C178  O16   D    
C59   C61   A    
C192  N10   S    
C29   H59   S    
C104  C112  A    
C68   O50   D    
C49   C51   A    
C178  C196  A    
C5    C227  A    
C42   C90   A    
C160  C162  A    
C147  O9    D    
C180  C200  A    
C128  C134  A    
C218  C220  A    
Cr6   O37   S    
C48   C82   A    
C90   Cl4   S    
C141  H1    S    
C103  C105  A    
C222  C224  A    
C9    C237  S    
C10   C12   A    
C180  O20   D    
C55   H65   S    
C210  C212  A    
C236  O58   D    
C69   C79   A    
Cr4   O26   S    
C106  C124  A    
C152  H18   S    
C99   N5    Am   
C26   C42   A    
C25   C83   A    
C67   N3    Am   
C50   C92   A    
C183  H47   S    
C176  Cl12  S    
C26   C84   A    
C22   C30   A    
C177  N9    Am   
C178  N10   Am   
C20   H46   S    
C80   N4    S    
C5    C203  A    
C114  C116  A    
C90   C96   A    
C101  N5    Am   
C211  C219  A    
C169  H31   S    
C12   N12   S    
C76   O45   A    
C13   C15   A    
C213  C215  A    
C52   C62   A    
C85   C95   A    
C42   C120  A    
C149  C157  A    
C82   C88   A    
C133  H23   S    
C56   C58   A    
C145  O13   D    
C14   C16   A    
C110  C112  A    
C231  O53   D    
C16   C194  A    
C44   C54   S    
C113  C121  A    
C109  H13   S    
C11   C227  A    
C31   C125  S    
C27   H57   S    
C72   Cl16  S    
C217  C225  A    
C195  C197  A    
Cr6   O34   S    
C24   H54   S    
C100  O8    D    
C155  C157  A    
C17   C29   A    
C100  C116  A    
C107  C123  A    
C1    C201  S    
C104  C106  A    
C155  H35   S    
C137  C139  A    
C182  C192  A    
C22   C200  A    
C49   C91   A    
Cr4   O27   S    
C17   C209  A    
C142  C164  A    
C87   Cl17  S    
C114  C162  A    
Cr6   O35   S    
C156  H36   S    
C229  H69   S    
C103  C111  A    
C4    N2    S    
Cr3   O46   S    
C162  C166  A    
C43   C53   S    
C130  C172  A    
C115  C117  A    
C6    C228  A    
C75   O1    A    
C153  C155  A    
C88   Cl18  S    
C89   Cl3   S    
C154  C156  A    
C181  C183  A    
C47   C55   A    
C205  C213  A    
C226  N12   Am   
Cr5   O30   S    
C107  C109  A    
C225  O17   D    
C220  C222  A    
Cr2   O41   S    
C107  H11   S    
C19   C197  A    
C13   C19   A    
C70   C80   A    
C14   C20   A    
C144  C146  A    
C145  N7    Am   
C24   C210  A    
C47   C51   A    
Cr1   O23   S    
Cr5   O37   S    
C101  C121  A    
C89   C95   A    
C130  C132  A    
C6    C204  A    
C224  N12   Am   
C91   C93   A    
C197  H39   S    
C99   O7    D    
C76   O2    A    
C147  N7    Am   
C169  C175  A    
Cr2   O38   S    
C41   C119  A    
C207  H15   S    
C81   C87   A    
C154  C232  S    
C153  C231  S    
C226  O18   D    
C83   C85   A    
C146  O14   D    
C13   C205  A    
C165  C175  A    
C40   Cl8   S    
C102  N6    Am   
C30   H60   S    
C232  O54   D    
C110  H14   S    
C15   C17   A    
C190  C192  A    
C150  C158  A    
C216  H44   S    
C137  C147  A    
C127  C133  A    
C234  H74   S    
C151  H17   S    
C235  H75   S    
C179  O19   D    
C132  C140  A    
C63   C93   A    
C57   H63   S    
C129  C165  A    
C97   O47   D    
Cr3   O44   S    
C109  C111  A    
C168  H26   S    
C37   C39   A    
C11   N11   S    
C38   C40   A    
C7    H55   S    
C179  C199  A    
C117  C167  A    
C117  C229  S    
C118  C168  A    
C213  Cl13  S    
Cr1   O46   S    
C78   C80   A    
C205  C211  A    
C230  O52   D    
C31   O29   A    
C76   C124  S    
C15   C193  A    
C23   H53   S    
C238  H78   S    
C60   C68   A    
Cr5   O32   S    
C74   C78   A    
C233  O55   D    
C39   Cl7   S    
C44   C164  A    
C135  H21   S    
C102  C122  A    
C21   H51   S    
C120  N2    Am   
Cr2   O39   S    
C119  N1    Am   
C65   O5    D    
C100  N6    Am   
C44   C186  A    
C36   O36   A    
C43   C163  A    
C121  C169  A    
C118  C230  S    
C174  Cl10  S    
C33   O31   A    
C170  H32   S    
C188  C234  S    
C51   C61   A    
C32   O28   A    
C37   C97   A    
C8    H56   S    
C78   H8    S    
C157  N7    S    
C75   C123  S    
C215  C217  A    
C237  O59   D    
C45   C73   A    
C69   C71   A    
C130  C166  A    
C25   C37   A    
C129  C171  A    
C180  N10   Am   
C108  C110  A    
C193  C195  A    
C69   H61   S    
C18   C30   A    
C70   H62   S    
C53   O40   A    
C150  H20   S    
C98   O48   D    
C112  N6    S    
C142  H2    S    
Cr5   O31   S    
C126  C152  A    
C128  C132  A    
C3    N1    S    
Cr2   O46   S    
C125  C153  A    
C182  C184  A    
C101  O11   D    
C184  C202  A    
C49   C85   A    
C131  C139  A    
C136  C138  A    
C175  Cl11  S    
C134  C136  A    
C23   C209  A    
C229  O51   D    
C163  H67   S    
C71   Cl15  S    
C31   O27   A    
C219  C221  A    
C138  C148  A    
C54   O43   A    
C66   O6    D    
C9    C11   A    
C231  H71   S    
C65   N3    Am   
C105  H27   S    
C141  C163  A    
C120  O4    D    
C33   O33   A    
C150  C152  A    
C2    O24   A    
C1    O23   A    
C32   O30   A    
C127  C159  A    
C46   C74   A    
C128  C160  A    
C148  N8    Am   
C143  C145  A    
C103  H29   S    
C10   C238  S    
C136  H22   S    
C8    C10   A    
C2    O39   A    
C173  Cl9   S    
C198  H40   S    
C217  C219  A    
C166  C176  A    
C55   C57   A    
C27   C221  A    
Cr4   O28   S    
C221  C223  A    
C235  O57   D    
C35   C203  S    
Cr6   O36   S    
C209  C211  A    
C5    C235  S    
C102  O12   D    
C53   O42   A    
Cr3   O45   S    
C187  C189  A    
C196  C198  A    
C50   C86   A    
C114  C122  A    
C7    C9    A    
C16   C18   A    
C215  H43   S    
C35   O25   A    
C236  H76   S    
C70   C72   A    
C36   C204  S    
Cr4   O25   S    
C36   O26   A    
C148  O10   D    
C95   H9    S    
C129  C131  A    
