data_mof_unit_8350.cif
_audit_creation_date              2013-03-05T15:57:56-0500
_audit_creation_method            fapswitch 2.2
_symmetry_space_group_name_H-M    P1
_symmetry_Int_Tables_number       1
_space_group_crystal_system       triclinic
_cell_length_a                    15.093174
_cell_length_b                    15.260582
_cell_length_c                    16.811431
_cell_angle_alpha                 108.21662
_cell_angle_beta                  106.098525
_cell_angle_gamma                 109.498205
_cell_volume                      3136.49936648

loop_
_atom_site_label
_atom_site_type_symbol
_atom_site_description
_atom_site_fract_x
_atom_site_fract_y
_atom_site_fract_z
_atom_type_partial_charge
C1    C     C_R   0.087668 0.289620 0.076414 -0.140152
C2    C     C_R   0.910014 0.722487 0.960877 -0.138950
H1    H     H_    0.165934 0.315269 0.124854 0.113135
H2    H     H_    0.830557 0.706103 0.924934 0.120654
N1    N     N_R   0.055660 0.348550 0.045620 -0.045427
N2    N     N_R   0.944340 0.651450 0.954380 -0.043656
C3    C     C_R   0.935311 0.519188 0.746123 -0.118057
C4    C     C_R   0.063722 0.551027 0.264605 -0.133863
H3    H     H_    0.857330 0.501467 0.704314 0.086572
H4    H     H_    0.142117 0.601123 0.317284 0.102862
N3    N     N_R   0.960830 0.507850 0.823700 -0.050704
N4    N     N_R   0.039170 0.492150 0.176300 -0.049003
C5    C     C_R   0.775985 0.204710 0.810547 -0.091198
C6    C     C_R   0.280450 0.782380 0.176820 -0.110974
H5    H     H_    0.763553 0.140545 0.827684 0.100024
H6    H     H_    0.309383 0.835734 0.149755 0.121945
N5    N     N_R   0.811290 0.303410 0.871650 -0.034991
N6    N     N_R   0.188710 0.696590 0.128350 -0.043407
C7    C     C_R   0.276542 0.553862 0.965825 0.327450
C8    C     C_R   0.697203 0.398041 0.989080 0.279650
N7    N     N_R   0.205200 0.552990 0.997670 -0.082348
N8    N     N_R   0.794800 0.447010 0.002330 -0.088859
C9    C     C_R   0.787341 0.302580 0.735740 -0.131733
C10   C     C_R   0.274324 0.684813 0.250657 -0.150065
H7    H     H_    0.792578 0.333236 0.687264 0.178718
H8    H     H_    0.296658 0.642744 0.286180 0.174841
N9    N     N_R   0.814800 0.361830 0.823700 -0.057245
N10   N     N_R   0.185200 0.638170 0.176300 -0.055548
C11   C     C_R   0.264480 0.452381 0.038693 -0.151200
C12   C     C_R   0.704172 0.497892 0.917461 -0.175821
H9    H     H_    0.278773 0.404864 0.071464 0.160524
H10   H     H_    0.682752 0.533019 0.873511 0.160746
N11   N     N_R   0.201680 0.494570 0.045620 -0.066440
N12   N     N_R   0.798320 0.505430 0.954380 -0.066335
C13   C     C_R   0.106946 0.601480 0.821750 -0.111035
C14   C     C_R   0.890586 0.467208 0.187143 -0.083979
H11   H     H_    0.185570 0.660131 0.848527 0.160810
H12   H     H_    0.808746 0.441203 0.168282 0.120752
N13   N     N_R   0.068420 0.560530 0.871650 -0.050332
N14   N     N_R   0.931580 0.439470 0.128350 -0.025765
C15   C     C_R   0.915064 0.203179 0.997561 -0.086231
C16   C     C_R   0.083745 0.804863 0.043943 -0.110519
H13   H     H_    0.834530 0.148208 0.971418 0.132820
H14   H     H_    0.163582 0.862462 0.087624 0.107775
N15   N     N_R   0.948070 0.295860 0.997670 -0.038883
N16   N     N_R   0.051930 0.704140 0.002330 -0.042038
C17   C     C_R   0.001281 0.197828 0.046515 0.028242
C18   C     C_R   0.997283 0.819443 0.016149 0.044577
C19   C     C_R   0.025376 0.577112 0.742405 0.050391
C20   C     C_R   0.971651 0.538720 0.273318 0.023388
C21   C     C_R   0.761342 0.202116 0.723608 0.061716
C22   C     C_R   0.336914 0.776951 0.254653 0.089394
C23   C     C_R   0.311707 0.488002 0.988002 -0.104266
C24   C     C_R   0.639077 0.429096 0.937038 -0.076416
C25   C     C_R   0.923022 0.939022 0.048094 -0.234121
C26   C     C_R   0.085788 0.090476 0.044113 -0.216128
H15   H     H_    0.862038 0.880502 0.052275 0.139740
H16   H     H_    0.146777 0.147085 0.038124 0.159981
H17   H     H_    0.713707 0.909029 0.973632 0.141870
H18   H     H_    0.291173 0.101401 0.144590 0.139907
C27   C     C_R   0.001780 0.919441 0.030853 0.065829
C28   C     C_R   0.004569 0.108239 0.055838 0.053724
C29   C     C_R   0.085219 0.996802 0.030224 0.017372
C30   C     C_R   0.923757 0.034252 0.061809 0.030926
C31   C     C_R   0.736489 0.981534 0.031304 -0.157948
C32   C     C_R   0.273652 0.045178 0.076858 -0.138914
Ni1   Ni    Ni4+2 0.119340 0.493420 0.109960 0.209082
Ni2   Ni    Ni4+2 0.880660 0.506580 0.890040 0.203852
Ni3   Ni    Ni4+2 0.872590 0.372590 0.000000 0.294166
Ni4   Ni    Ni4+2 0.127410 0.627410 0.000000 0.260121
C33   C     C_R   0.687006 0.095704 0.124784 -0.031255
C34   C     C_R   0.333382 0.962849 0.970150 -0.024673
H19   H     H_    0.616046 0.709472 0.414256 0.141011
H20   H     H_    0.394520 0.204630 0.514410 0.125275
C35   C     C_R   0.578561 0.712240 0.282341 -0.087360
C36   C     C_R   0.423936 0.202476 0.646228 -0.122249
H21   H     H_    0.610605 0.795900 0.311788 0.130788
H22   H     H_    0.419044 0.125692 0.621594 0.112591
C37   C     C_R   0.535767 0.653630 0.186765 -0.172350
C38   C     C_R   0.443107 0.256453 0.738137 -0.140536
H23   H     H_    0.535846 0.693177 0.143279 0.162133
H24   H     H_    0.451481 0.219808 0.783603 0.165631
C39   C     C_R   0.500250 0.545752 0.147826 -0.062112
C40   C     C_R   0.449118 0.355995 0.770883 -0.062415
C41   C     C_R   0.504635 0.495499 0.206181 0.332230
C42   C     C_R   0.438149 0.402656 0.710280 0.345331
C43   C     C_R   0.545072 0.556044 0.302325 -0.236823
C44   C     C_R   0.417424 0.346408 0.617552 -0.205603
H25   H     H_    0.549304 0.520241 0.348679 0.164176
H26   H     H_    0.408788 0.380395 0.569985 0.159509
C45   C     C_R   0.582740 0.663612 0.340017 -0.071366
C46   C     C_R   0.410009 0.246925 0.585817 -0.165192
C47   C     C_R   0.557215 0.472893 0.033700 -0.129286
C48   C     C_R   0.382838 0.425926 0.883036 -0.104090
H27   H     H_    0.627095 0.494922 0.092557 0.105672
H28   H     H_    0.313276 0.406102 0.825208 0.134782
C49   C     C_R   0.548320 0.431335 0.943745 0.120145
C50   C     C_R   0.393929 0.470612 0.974017 0.106969
C51   C     C_R   0.461236 0.406419 0.866958 0.076491
C52   C     C_R   0.480483 0.492577 0.049941 0.097404
C53   C     C_R   0.659582 0.001965 0.051650 -0.075834
C54   C     C_R   0.354719 0.034461 0.057392 -0.042261
C55   C     C_R   0.961783 0.584998 0.359219 0.126712
C56   C     C_R   0.032635 0.617344 0.674475 0.115777
C57   C     C_R   0.136279 0.693284 0.604046 -0.203271
C58   C     C_R   0.856835 0.565190 0.444532 -0.207947
C59   C     C_R   0.129949 0.670983 0.676748 -0.174130
C60   C     C_R   0.863831 0.551980 0.361194 -0.168156
C61   C     C_R   0.941896 0.593814 0.601627 -0.258220
C62   C     C_R   0.051641 0.647807 0.442624 -0.265339
C63   C     C_R   0.947532 0.608124 0.525101 0.176240
C64   C     C_R   0.045585 0.654563 0.525082 0.181718
H29   H     H_    0.127518 0.679323 0.442988 0.117699
H30   H     H_    0.866124 0.554657 0.599118 0.119912
H31   H     H_    0.792538 0.508256 0.298390 0.134807
H32   H     H_    0.201631 0.691053 0.731790 0.145123
H33   H     H_    0.211980 0.731529 0.605994 0.128453
H34   H     H_    0.780883 0.531783 0.443995 0.141803
C65   C     C_R   0.720346 0.110101 0.635082 -0.027532
C66   C     C_R   0.445396 0.849072 0.322218 -0.020076
C67   C     C_R   0.590670 0.017301 0.380777 -0.180416
C68   C     C_R   0.635410 0.922316 0.557054 -0.188948
C69   C     C_R   0.501390 0.932830 0.308454 -0.273284
C70   C     C_R   0.703375 0.014447 0.636560 -0.239926
C71   C     C_R   0.491664 0.842196 0.404706 0.474064
C72   C     C_R   0.685925 0.112444 0.548211 0.495784
C73   C     C_R   0.586047 0.925529 0.475025 -0.059945
C74   C     C_R   0.625017 0.018450 0.467493 -0.036199
H35   H     H_    0.578635 0.945215 0.010471 0.141042
H36   H     H_    0.434055 0.082051 0.109757 0.129985
H37   H     H_    0.734565 0.009742 0.700373 0.146260
H38   H     H_    0.472878 0.938001 0.244522 0.156960
H39   H     H_    0.626202 0.085355 0.371124 0.180410
H40   H     H_    0.614587 0.849806 0.562203 0.172429
H41   H     H_    0.627345 0.111504 0.140198 0.110791
H42   H     H_    0.396201 0.954995 0.954840 0.121472
C75   C     C_R   0.791446 0.169044 0.178025 -0.050494
C76   C     C_R   0.230992 0.902045 0.902360 -0.109013
H43   H     H_    0.812624 0.241650 0.234683 0.118770
H44   H     H_    0.215042 0.848329 0.834589 0.117611
C77   C     C_R   0.868656 0.148803 0.158222 -0.141594
C78   C     C_R   0.149408 0.911533 0.921686 -0.129841
H45   H     H_    0.949261 0.206260 0.200549 0.120146
H46   H     H_    0.070436 0.864059 0.868431 0.121047
C79   C     C_R   0.841869 0.055109 0.084080 0.087830
C80   C     C_R   0.170251 0.982890 0.009415 0.082514
N17   N     N_R   0.471648 0.385142 0.170040 0.230397
O1    O     O_R   0.406617 0.321737 0.084086 -0.404863
O2    O     O_R   0.501999 0.346312 0.224725 -0.431908
N18   N     N_R   0.450826 0.507079 0.742071 0.238814
O3    O     O_R   0.520374 0.578364 0.824451 -0.389798
O4    O     O_R   0.403103 0.534614 0.684763 -0.393295
O5    O     O_3   0.704136 0.204318 0.541183 -0.646964
C81   C     C_3   0.615019 0.220419 0.530733 0.187541
H47   H     H_    0.603501 0.236711 0.595297 0.114549
H48   H     H_    0.542601 0.152372 0.473165 0.103747
C82   C     C_3   0.629712 0.313008 0.509806 -0.861846
H49   H     H_    0.640397 0.298030 0.444941 0.264109
H50   H     H_    0.560333 0.326188 0.501176 0.216214
H51   H     H_    0.698866 0.383963 0.567392 0.237072
O6    O     O_3   0.446918 0.754965 0.416757 -0.649038
C83   C     C_3   0.393211 0.772556 0.472172 0.165873
H52   H     H_    0.324868 0.780477 0.435382 0.094779
H53   H     H_    0.443334 0.843639 0.539345 0.114245
C84   C     C_3   0.355604 0.680131 0.492811 -0.825990
H54   H     H_    0.422912 0.671245 0.529978 0.269962
H55   H     H_    0.314109 0.692249 0.536878 0.209057
H56   H     H_    0.302045 0.607835 0.427417 0.240703
N19   N     N_R   0.331640 0.636166 0.947610 0.212788
O7    O     O_R   0.343221 0.729000 0.991636 -0.467843
O8    O     O_R   0.378692 0.621902 0.894343 -0.358506
N20   N     N_R   0.656113 0.305174 0.999990 0.221742
O9    O     O_R   0.557975 0.257651 0.980529 -0.384779
O10   O     O_R   0.714341 0.261866 0.020594 -0.445524

loop_
_geom_bond_atom_site_label_1
_geom_bond_atom_site_label_2
_geom_bond_distance
_ccdc_geom_bond_type
C10   C22   1.375873 A    
C12   H10   1.081045 S    
N5    Ni3   1.855533 S    
C84   H54   1.110743 S    
C43   C45   1.395096 A    
C30   C79   1.487878 S    
C32   C80   1.406857 A    
N19   O8    1.299099 A    
N19   O7    1.301057 A    
C6    N6    1.338807 A    
C2    H2    1.081361 S    
N17   O1    1.301142 A    
C31   C53   1.398823 A    
N1    Ni1   1.868495 S    
C19   C56   1.468315 S    
C42   N18   1.438373 S    
O6    C83   1.415890 S    
C33   C75   1.397163 A    
C65   C70   1.404873 A    
N3    Ni2   1.858657 S    
C3    N3    1.336476 A    
C75   H43   1.082585 S    
C82   H49   1.110712 S    
C11   C23   1.377565 A    
C55   C62   1.400515 A    
C1    N1    1.323833 A    
C60   H31   1.080756 S    
C7    N7    1.326954 A    
C36   H22   1.082528 S    
C78   C80   1.403512 A    
C61   C63   1.390695 A    
C33   H41   1.082315 S    
C56   C61   1.403932 A    
C69   H38   1.079723 S    
C42   C44   1.406596 A    
C12   C24   1.372081 A    
C34   H42   1.082362 S    
N7    N11   1.374372 A    
C48   C50   1.400772 A    
C11   N11   1.322194 A    
C16   N16   1.315795 A    
H20   C46   1.082371 S    
C68   C73   1.398600 A    
C27   C29   1.415115 A    
C32   C54   1.397534 A    
C68   H40   1.083304 S    
C28   C30   1.411394 A    
N9    Ni2   1.868302 S    
C5    C21   1.401949 A    
C6    C22   1.393463 A    
C44   C46   1.396081 A    
C13   C19   1.380876 A    
C21   C65   1.473843 S    
C24   C49   1.415882 S    
C55   C60   1.407511 A    
C9    N9    1.322869 A    
C10   N10   1.323153 A    
C29   C80   1.482914 S    
C81   H48   1.112206 S    
C39   C41   1.422386 A    
C66   C69   1.404925 A    
C38   C40   1.405819 A    
C48   H28   1.084878 S    
C26   C28   1.391926 A    
C7    C23   1.382571 A    
C34   C76   1.397464 A    
C33   C53   1.397213 A    
H18   C32   1.083230 S    
C20   C55   1.469108 S    
C82   H50   1.110236 S    
C58   H34   1.084144 S    
C15   H13   1.080227 S    
C57   H33   1.081354 S    
C84   H55   1.106451 S    
C2    N2    1.337100 A    
C16   H14   1.078203 S    
C17   C28   1.439170 S    
C49   C51   1.398968 A    
N20   O10   1.300450 A    
C83   H53   1.112109 S    
C58   C63   1.398556 A    
C41   C43   1.407631 A    
N8    N12   1.374375 A    
N4    Ni1   1.858660 S    
N16   Ni4   1.886021 S    
N14   Ni3   1.855081 S    
C12   N12   1.332218 A    
N15   Ni3   1.886020 S    
N5    N9    1.374376 A    
C36   C38   1.395287 A    
C14   N14   1.338410 A    
N10   Ni1   1.868303 S    
N6    N10   1.374376 A    
H19   C45   1.082247 S    
C81   C82   1.521278 S    
C8    C24   1.367796 A    
C76   C78   1.397942 A    
N12   Ni2   1.859450 S    
C37   H23   1.083764 S    
C66   C71   1.422860 A    
C1    C17   1.375505 A    
C2    C18   1.395801 A    
N1    N15   1.389415 A    
C70   H37   1.080883 S    
C1    H1    1.081823 S    
N4    N14   1.389415 A    
C13   N13   1.337197 A    
C65   C72   1.424187 A    
C83   C84   1.520768 S    
C57   C59   1.386315 A    
C9    C21   1.380062 A    
C47   C52   1.364687 A    
C4    N4    1.336842 A    
C25   C30   1.394118 A    
C15   C17   1.377076 A    
C26   C29   1.371173 A    
C25   H15   1.084476 S    
C16   C18   1.375317 A    
N3    N13   1.389413 A    
C35   H21   1.081127 S    
C62   H29   1.081431 S    
C3    C19   1.383002 A    
C81   H47   1.111280 S    
C76   H44   1.077141 S    
C61   H30   1.080758 S    
C67   C74   1.397549 A    
C22   C66   1.471876 S    
C38   H24   1.083407 S    
C8    N20   1.437223 S    
C57   C64   1.395360 A    
C36   C46   1.394010 A    
C84   H56   1.110296 S    
C50   C52   1.401293 A    
C39   C52   1.478744 S    
C5    H5    1.077380 S    
C6    H6    1.079414 S    
C8    N8    1.325536 A    
C68   C70   1.384718 A    
C73   C74   1.403413 A    
C47   C49   1.392169 A    
C78   H46   1.083206 S    
C14   C20   1.387054 A    
N20   O9    1.301076 A    
N11   Ni1   1.859449 S    
C58   C60   1.390792 A    
C83   H52   1.112352 S    
C13   H11   1.074605 S    
C3    H3    1.078114 S    
C75   C77   1.398384 A    
C72   C74   1.398200 A    
N2    N16   1.389416 A    
C63   C64   1.411622 A    
N17   O2    1.301690 A    
C40   C51   1.483055 S    
C71   O6    1.383329 S    
C54   H36   1.082312 S    
C44   H26   1.082639 S    
C35   C45   1.393572 A    
C23   C50   1.417171 S    
C82   H51   1.108551 S    
N6    Ni4   1.855532 S    
C5    N5    1.342058 A    
N7    Ni4   1.886175 S    
C77   H45   1.083031 S    
C41   N17   1.444311 S    
C11   H9    1.078965 S    
H17   C31   1.083017 S    
C14   H12   1.077355 S    
C37   C39   1.403059 A    
C10   H8    1.074687 S    
C7    N19   1.430846 S    
C18   C27   1.442272 S    
C47   H27   1.086769 S    
C34   C54   1.396461 A    
C48   C51   1.387091 A    
C25   C27   1.400141 A    
C31   C79   1.407141 A    
N2    Ni2   1.868494 S    
C77   C79   1.407766 A    
C43   H25   1.082493 S    
N13   Ni4   1.855083 S    
C26   H16   1.085688 S    
C4    C20   1.394179 A    
N18   O4    1.301497 A    
C9    H7    1.067089 S    
C62   C64   1.388472 A    
C59   H32   1.080273 S    
C67   C69   1.381191 A    
C72   O5    1.385488 S    
C4    H4    1.077266 S    
C71   C73   1.400303 A    
N8    Ni3   1.886175 S    
C15   N15   1.332712 A    
N18   O3    1.301093 A    
C40   C42   1.418172 A    
C67   H39   1.083672 S    
O5    C81   1.420204 S    
C35   C37   1.392536 A    
C56   C59   1.405541 A    
C53   H35   1.082458 S    
