data_mof_unit_27844.cif
_audit_creation_date              2012-10-26T20:32:02-0400
_audit_creation_method            fapswitch 2.2
_symmetry_space_group_name_H-M    P1
_symmetry_Int_Tables_number       1
_space_group_crystal_system       triclinic
_cell_length_a                    10.628003
_cell_length_b                    10.842066
_cell_length_c                    9.560494
_cell_angle_alpha                 89.17668
_cell_angle_beta                  89.173191
_cell_angle_gamma                 90.290303
_cell_volume                      1101.40728728

loop_
_atom_site_label
_atom_site_type_symbol
_atom_type_description
_atom_site_fract_x
_atom_site_fract_y
_atom_site_fract_z
_atom_type_partial_charge
C1    C     C_R   0.504397 0.262678 0.500580 0.549882
C2    C     C_R   0.500418 0.934667 0.621949 -0.016415
C3    C     C_3   0.397628 0.933045 0.731274 0.136709
C4    C     C_R   0.259390 0.501474 0.500925 0.559449
C5    C     C_3   0.412919 0.071717 0.738230 -0.179689
C6    C     C_R   0.570679 0.583764 0.070915 0.167924
C7    C     C_R   0.421830 0.424909 0.077813 -0.017202
C8    C     C_R   0.419466 0.425041 0.927542 0.368722
C9    C     C_R   0.570411 0.584140 0.923921 0.101359
C10   C     C_3   0.709765 0.600775 0.915561 -0.281044
C11   C     C_3   0.709820 0.599729 0.074238 -0.267762
C12   C     C_3   0.962070 0.497192 0.365777 -0.114329
C13   C     C_R   0.498679 0.737826 0.498686 0.569761
C14   C     C_R   0.740577 0.499286 0.499136 0.539998
C15   C     C_3   0.037393 0.504378 0.634279 -0.162230
C16   C     C_3   0.956709 0.400490 0.570648 -0.138691
C17   C     C_3   0.877278 0.499477 0.497691 0.008356
C18   C     C_3   0.955280 0.603353 0.562231 -0.123918
C19   C     C_3   0.041156 0.599232 0.431944 0.277343
C20   C     C_3   0.223383 0.326534 0.912421 -0.033793
C21   C     C_3   0.208501 0.202150 0.988580 -0.420738
C22   C     C_3   0.995438 0.769074 0.293096 -0.014378
C23   C     C_3   0.043909 0.398551 0.439362 -0.153264
C24   C     C_3   0.024260 0.906642 0.292772 -0.372779
C25   C     C_3   0.409747 0.920073 0.164952 -0.010364
C26   C     C_3   0.338803 0.807681 0.113897 -0.342575
C27   C     C_3   0.227658 0.792938 0.729957 0.024397
C28   C     C_3   0.101678 0.821209 0.799770 -0.396071
C29   C     C_3   0.122526 0.502316 0.502954 0.055425
C30   C     C_R   0.509483 0.061727 0.624756 -0.042982
C31   C     C_R   0.517508 0.129992 0.500470 -0.037627
C32   C     C_R   0.531903 0.068244 0.373437 -0.155486
C33   C     C_R   0.519898 0.939725 0.368944 0.239598
C34   C     C_R   0.504762 0.871724 0.495591 0.049313
Cu1   Cu    Cu3+1 0.499990 0.499980 0.640670 0.973569
Cu2   Cu    Cu3+1 0.500010 0.500020 0.359330 0.948051
H1    H     H_    0.454701 0.102993 0.837659 0.119333
H2    H     H_    0.193244 0.403505 0.981261 0.097002
H3    H     H_    0.290016 0.182334 0.056225 0.131634
H4    H     H_    0.121522 0.202362 0.054332 0.103930
H5    H     H_    0.200140 0.126752 0.912036 0.146562
H6    H     H_    0.759276 0.520078 0.870668 0.154305
H7    H     H_    0.737133 0.691553 0.868553 0.123687
H8    H     H_    0.757460 0.517508 0.118506 0.137636
H9    H     H_    0.069589 0.510155 0.743780 0.101892
H10   H     H_    0.900091 0.756234 0.341844 0.124466
H11   H     H_    0.992141 0.737058 0.183256 0.128359
H12   H     H_    0.737885 0.689549 0.119294 0.138452
H13   H     H_    0.115817 0.925712 0.239817 0.146945
H14   H     H_    0.949529 0.957472 0.236393 0.096097
H15   H     H_    0.028063 0.940000 0.401960 0.168189
H16   H     H_    0.932055 0.494811 0.255439 0.093013
H17   H     H_    0.542463 0.119360 0.275705 0.136835
H18   H     H_    0.441696 0.976500 0.073203 0.120003
H19   H     H_    0.341222 0.976599 0.226007 0.117342
H20   H     H_    0.312865 0.745796 0.203305 0.224359
H21   H     H_    0.251740 0.837249 0.061183 0.078144
H22   H     H_    0.397378 0.756888 0.037897 0.129151
H23   H     H_    0.915304 0.687261 0.610498 0.096440
H24   H     H_    0.288274 0.742222 0.805149 0.115913
H25   H     H_    0.210385 0.729534 0.642437 0.187889
H26   H     H_    0.035564 0.858410 0.720981 0.156691
H27   H     H_    0.060832 0.735810 0.847636 0.087529
H28   H     H_    0.113991 0.891035 0.882217 0.141046
H29   H     H_    0.083098 0.314602 0.390221 0.108212
H30   H     H_    0.918513 0.318299 0.627709 0.114643
H31   H     H_    0.424700 0.885990 0.830442 0.090316
H32   H     H_    0.328877 0.124319 0.704087 0.192505
H33   H     H_    0.363242 0.362365 0.138902 0.124541
H34   H     H_    0.156673 0.326557 0.824354 0.154396
N1    N     N_R   0.500800 0.500930 0.147930 -0.266927
N2    N     N_R   0.500800 0.500890 0.852020 -0.227243
O1    O     O_R   0.500000 0.319640 0.618810 -0.450325
O2    O     O_3   0.091662 0.705132 0.364065 -0.566004
O3    O     O_3   0.516788 0.881508 0.240884 -0.547518
O4    O     O_3   0.279664 0.903145 0.672867 -0.559752
O5    O     O_R   0.500010 0.319680 0.381230 -0.525361
O6    O     O_R   0.316850 0.499950 0.618770 -0.492898
O7    O     O_R   0.316860 0.499990 0.381190 -0.502241
O8    O     O_R   0.499990 0.680320 0.618770 -0.527895
O9    O     O_R   0.500000 0.680360 0.381190 -0.448676
O10   O     O_R   0.683140 0.500010 0.618810 -0.512499
O11   O     O_R   0.683150 0.500050 0.381230 -0.512510
O12   O     O_3   0.346568 0.340960 0.855097 -0.536126

loop_
_geom_bond_atom_site_label_1
_geom_bond_atom_site_label_2
_ccdc_geom_bond_type
C15   C18   S    
C5    H1    S    
C10   H6    S    
C1    O5    A    
Cu1   Cu2   S    
C9    N2    A    
C6    C9    A    
Cu2   O5    S    
C7    C8    A    
C12   C23   S    
C23   C29   S    
C27   H24   S    
C7    N1    A    
C30   C31   A    
Cu2   O11   S    
C15   C16   S    
C13   O9    A    
Cu1   O8    S    
C1    C31   S    
C18   C19   S    
C27   H25   S    
C33   O3    S    
C16   C17   S    
C12   C17   S    
C9    C10   S    
C4    C29   S    
Cu2   N1    S    
C2    C34   A    
C24   H15   S    
C22   H11   S    
C13   O8    A    
C14   C17   S    
C20   H34   S    
C11   H12   S    
C14   O11   A    
C5    H32   S    
C12   H16   S    
Cu1   O10   S    
C15   C29   S    
C24   H14   S    
C6    N1    A    
C8    N2    A    
C25   H18   S    
C4    O7    A    
C6    C11   S    
C25   C26   S    
C25   O3    S    
C4    O6    A    
C20   H2    S    
C31   C32   A    
C21   H3    S    
Cu2   O9    S    
C17   C18   S    
C11   H8    S    
C3    O4    S    
C26   H22   S    
C21   H5    S    
C28   H28   S    
C22   H10   S    
Cu1   N2    S    
C16   C23   S    
C20   O12   S    
C22   C24   S    
C16   H30   S    
C22   O2    S    
C27   O4    S    
C19   C29   S    
C32   H17   S    
C5    C30   S    
C24   H13   S    
Cu1   O1    S    
C10   H7    S    
C8    O12   S    
C19   O2    S    
C3    H31   S    
C25   H19   S    
C3    C5    S    
Cu2   O7    S    
C26   H20   S    
C7    H33   S    
Cu1   O6    S    
C2    C30   A    
C1    O1    A    
C32   C33   A    
C23   H29   S    
C2    C3    S    
C13   C34   S    
C21   H4    S    
C12   C19   S    
C33   C34   A    
C26   H21   S    
C10   C11   S    
C28   H27   S    
C18   H23   S    
C20   C21   S    
C27   C28   S    
C14   O10   A    
C15   H9    S    
C28   H26   S    
