data_mof_unit_58835.cif
_audit_creation_date              2012-12-11T17:07:30-0500
_audit_creation_method            fapswitch 2.2
_symmetry_space_group_name_H-M    P1
_symmetry_Int_Tables_number       1
_space_group_crystal_system       triclinic
_cell_length_a                    6.951689
_cell_length_b                    14.524363
_cell_length_c                    16.077919
_cell_angle_alpha                 89.956653
_cell_angle_beta                  89.988744
_cell_angle_gamma                 90.009528
_cell_volume                      1623.36854577

loop_
_atom_site_label
_atom_site_type_symbol
_atom_type_description
_atom_site_fract_x
_atom_site_fract_y
_atom_site_fract_z
_atom_type_partial_charge
O1    O     O_R   0.505720 0.583900 0.413310 -0.544936
O2    O     O_R   0.175940 0.594920 0.586080 -0.550457
O3    O     O_R   0.005640 0.416100 0.586690 -0.538256
C1    C     C_R   0.344732 0.617022 0.614819 0.684993
O4    O     O_R   0.176000 0.594930 0.413930 -0.524816
O5    O     O_R   0.005700 0.416110 0.413310 -0.518554
C2    C     C_R   0.344816 0.617002 0.385199 0.732598
O6    O     O_R   0.505660 0.583890 0.586690 -0.539351
O7    O     O_3   0.339200 0.441330 0.500000 -0.366717
V1    V     V_3+5 0.064350 0.510880 0.500000 1.437238
O8    O     O_R   0.675980 0.405080 0.413920 -0.548707
C3    C     C_R   0.844782 0.385904 0.382976 0.754006
O9    O     O_R   0.675920 0.405070 0.586070 -0.539045
C4    C     C_R   0.844841 0.383186 0.614657 0.690226
V2    V     V_3+5 0.564340 0.489120 0.500000 1.417795
O10   O     O_3   0.839360 0.558670 0.500000 -0.378034
H1    H     H_    0.624555 0.079980 0.518640 0.108095
C5    C     C_R   0.985833 0.434067 0.777842 -0.144422
C6    C     C_R   0.052346 0.461227 0.855770 -0.124420
C7    C     C_R   0.060861 0.398089 0.920609 -0.118227
C8    C     C_R   0.003844 0.307225 0.907868 -0.135231
C9    C     C_R   0.937982 0.277215 0.829054 0.069837
C10   C     C_R   0.927419 0.342161 0.762744 0.070974
C11   C     C_R   0.879377 0.184763 0.816172 -0.186635
C12   C     C_R   0.809201 0.157438 0.737003 0.071685
C13   C     C_R   0.797126 0.222572 0.670865 0.070009
C14   C     C_R   0.855789 0.315050 0.683728 -0.184600
C15   C     C_R   0.754066 0.065114 0.721573 -0.143022
C16   C     C_R   0.686995 0.038013 0.643711 -0.128400
C17   C     C_R   0.675296 0.101524 0.579244 -0.122631
C18   C     C_R   0.730523 0.192618 0.592156 -0.136507
H2    H     H_    0.980017 0.486203 0.729963 0.105133
H3    H     H_    0.096235 0.531859 0.865985 0.116653
H4    H     H_    0.111070 0.419681 0.981282 0.114501
H5    H     H_    0.010656 0.261301 0.960761 0.102481
H6    H     H_    0.763657 0.012540 0.769038 0.100483
H7    H     H_    0.645292 0.967126 0.633229 0.111015
H8    H     H_    0.721968 0.238731 0.539442 0.102240
C19   C     C_R   0.749459 0.176852 0.248430 0.098948
C20   C     C_R   0.882973 0.184187 0.183723 -0.097136
C21   C     C_R   0.017422 0.256469 0.188228 -0.263587
H9    H     H_    0.124869 0.262974 0.139661 0.116434
C22   C     C_R   0.002734 0.326028 0.249612 -0.001670
C23   C     C_R   0.858447 0.319546 0.312873 -0.125276
C24   C     C_R   0.739665 0.241557 0.311821 0.055209
C25   C     C_3   0.525769 0.233563 0.317137 -0.397197
C26   C     C_3   0.536873 0.163091 0.247270 -0.398150
H10   H     H_    0.451268 0.298141 0.299019 0.172639
H11   H     H_    0.478371 0.203459 0.377343 0.165067
H12   H     H_    0.469379 0.187198 0.188449 0.179819
H13   H     H_    0.495288 0.092556 0.267244 0.158680
C27   C     C_R   0.508224 0.683554 0.740827 0.112566
C28   C     C_R   0.352758 0.682659 0.685378 -0.114400
C29   C     C_R   0.200741 0.744301 0.701176 -0.187965
H14   H     H_    0.077943 0.746334 0.660083 0.133899
C30   C     C_R   0.211980 0.808558 0.766630 -0.174327
H15   H     H_    0.096812 0.857873 0.774208 0.129350
C31   C     C_R   0.375902 0.813307 0.818101 -0.115695
C32   C     C_R   0.519762 0.747384 0.805417 0.102583
C33   C     C_3   0.729894 0.761196 0.792424 -0.411345
C34   C     C_3   0.717459 0.691457 0.722372 -0.401240
H16   H     H_    0.816378 0.736729 0.846222 0.177224
H17   H     H_    0.763420 0.831980 0.770500 0.161112
H18   H     H_    0.796052 0.626643 0.735887 0.166408
H19   H     H_    0.744530 0.721550 0.659857 0.165797
C35   C     C_R   0.506620 0.682250 0.258203 0.108559
C36   C     C_R   0.352686 0.682378 0.314478 -0.090941
C37   C     C_R   0.201274 0.744504 0.299093 -0.157533
H20   H     H_    0.079010 0.746931 0.340515 0.126240
C38   C     C_R   0.212552 0.808741 0.233576 -0.181896
H21   H     H_    0.098059 0.858486 0.226335 0.125931
C39   C     C_R   0.375833 0.812939 0.181655 -0.113676
C40   C     C_R   0.518215 0.746055 0.193583 0.105094
C41   C     C_3   0.729445 0.757818 0.205002 -0.412690
C42   C     C_3   0.716909 0.687878 0.275092 -0.397250
H22   H     H_    0.766609 0.828231 0.226701 0.164131
H23   H     H_    0.812799 0.732762 0.150530 0.184453
H24   H     H_    0.747723 0.717425 0.337434 0.163234
H25   H     H_    0.792002 0.622198 0.260950 0.213509
O11   O     O_R   0.229140 0.916090 0.913340 -0.539670
O12   O     O_R   0.558860 0.905090 0.086080 -0.540265
O13   O     O_R   0.729100 0.083920 0.086690 -0.538139
C43   C     C_R   0.389800 0.883171 0.114991 0.696035
O14   O     O_R   0.558860 0.905090 0.913930 -0.541748
O15   O     O_R   0.729100 0.083920 0.913310 -0.534902
C44   C     C_R   0.389799 0.883348 0.884906 0.702102
O16   O     O_R   0.229140 0.916080 0.086720 -0.539571
O17   O     O_3   0.395570 0.058660 0.000020 -0.366876
V3    V     V_3+5 0.670450 0.989140 0.000000 1.401940
O18   O     O_R   0.058810 0.094980 0.913910 -0.538704
C45   C     C_R   0.889948 0.116748 0.885286 0.698039
O19   O     O_R   0.058810 0.094980 0.086060 -0.545053
C46   C     C_R   0.890069 0.116817 0.114829 0.694094
V4    V     V_3+5 0.170450 0.010950 0.999970 1.403957
O20   O     O_3   0.895460 0.941370 0.999990 -0.371412
C47   C     C_2   0.128389 0.407726 0.238764 0.338223
H26   H     H_    0.263703 0.401022 0.205601 0.033247
O21   O     O_2   0.077806 0.484078 0.261567 -0.543201

loop_
_geom_bond_atom_site_label_1
_geom_bond_atom_site_label_2
_ccdc_geom_bond_type
C43   O16   A    
C1    C28   S    
C21   H9    S    
C6    C7    A    
C20   C46   S    
C1    O6    A    
O15   C45   A    
C28   C29   A    
C23   C24   A    
C12   C15   A    
C25   H11   S    
C13   C14   A    
O13   V3    S    
C41   H22   S    
C33   H17   S    
C15   C16   A    
O14   C44   A    
C27   C34   S    
O5    C3    A    
C17   C18   A    
V2    O10   S    
O16   V4    S    
C30   H15   S    
C33   H16   S    
C5    C6    A    
C40   C41   S    
O11   C44   A    
C29   H14   S    
O8    V2    S    
C37   H20   S    
C41   H23   S    
C47   O21   D    
C38   H21   S    
O1    V2    S    
C10   C14   A    
C4    C14   S    
O7    V1    S    
C19   C24   A    
O12   V3    S    
C35   C36   A    
C32   C33   S    
O13   C46   A    
C8    C9    A    
H1    C17   S    
C21   C22   A    
C31   C44   S    
O12   C43   A    
O18   V4    S    
C26   H12   S    
C29   C30   A    
O17   V4    S    
C41   C42   S    
C5    C10   A    
C11   C12   A    
C6    H3    S    
C19   C20   A    
O4    C2    A    
O15   V3    S    
C26   H13   S    
C12   C13   A    
C24   C25   S    
C35   C40   A    
C36   C37   A    
C33   C34   S    
V3    O20   S    
C34   H18   S    
O2    C1    A    
C22   C23   A    
C16   C17   A    
C27   C32   A    
C47   H26   S    
O19   V4    S    
C22   C47   S    
O17   V3    S    
O3    C4    A    
C20   C21   A    
O6    V2    S    
O9    V2    S    
C9    C11   A    
C5    H2    S    
O14   V3    S    
O11   V4    S    
O2    V1    S    
C11   C45   S    
C27   C28   A    
C19   C26   S    
C25   C26   S    
O1    C2    A    
C39   C40   A    
O5    V1    S    
O8    C3    A    
C8    H5    S    
C18   H8    S    
C31   C32   A    
C7    H4    S    
O4    V1    S    
C3    C23   S    
O3    V1    S    
V1    O10   S    
O18   C45   A    
C35   C42   S    
O19   C46   A    
C30   C31   A    
O7    V2    S    
V4    O20   S    
C42   H24   S    
C39   C43   S    
C2    C36   S    
C25   H10   S    
C34   H19   S    
C13   C18   A    
C7    C8    A    
C15   H6    S    
C37   C38   A    
C16   H7    S    
C9    C10   A    
C38   C39   A    
O9    C4    A    
C42   H25   S    
