data_mof_unit_45399.cif
_audit_creation_date              2013-03-05T16:09:27-0500
_audit_creation_method            fapswitch 2.2
_symmetry_space_group_name_H-M    P1
_symmetry_Int_Tables_number       1
_space_group_crystal_system       triclinic
_cell_length_a                    8.20301
_cell_length_b                    15.177326
_cell_length_c                    22.925466
_cell_angle_alpha                 99.195863
_cell_angle_beta                  89.941418
_cell_angle_gamma                 99.1097
_cell_volume                      2781.13129459

loop_
_atom_site_label
_atom_site_type_symbol
_atom_site_description
_atom_site_fract_x
_atom_site_fract_y
_atom_site_fract_z
_atom_type_partial_charge
P1    P     P_3+3 0.056000 0.422550 0.367550 0.531542
O1    O     O_2   0.889550 0.449610 0.359390 -0.342186
O2    O     O_3   0.130110 0.450560 0.430470 -0.414510
O3    O     O_3   0.674110 0.616450 0.398780 -0.401125
O4    O     O_2   0.806571 0.559839 0.297463 -0.283636
O5    O     O_3   0.017309 0.304583 0.349401 -0.515191
O6    O     O_3   0.722558 0.720589 0.307227 -0.462938
H1    H     H_    0.737283 0.787055 0.393885 0.149639
C1    C     C_3   0.671755 0.873814 0.333880 -0.083319
H2    H     H_    0.588599 0.913111 0.361455 0.053958
P2    P     P_3+3 0.670460 0.710570 0.550500 0.503361
P3    P     P_3+3 0.134090 0.779507 0.429697 0.501185
O7    O     O_2   0.848090 0.724020 0.533700 -0.346255
O8    O     O_3   0.092920 0.663620 0.428750 -0.365853
O9    O     O_2   0.004617 0.821417 0.469307 -0.343905
O10   O     O_3   0.673322 0.732739 0.627680 -0.529860
O11   O     O_3   0.084789 0.798751 0.358942 -0.461401
C2    C     C_3   0.216456 0.782325 0.321945 0.223587
H3    H     H_    0.234392 0.710374 0.317624 0.091153
H4    H     H_    0.330195 0.827658 0.339781 -0.040803
C3    C     C_3   0.184676 0.805206 0.260906 -0.004592
H5    H     H_    0.176946 0.878385 0.265021 0.155676
C4    C     C_3   0.248650 0.735556 0.607098 0.429779
H6    H     H_    0.343861 0.697810 0.586257 0.082505
H7    H     H_    0.153925 0.738089 0.573168 0.132571
C5    C     C_3   0.330232 0.831407 0.632705 -0.816274
H8    H     H_    0.446428 0.829662 0.656782 0.276195
H9    H     H_    0.357302 0.872617 0.597050 0.205017
H10   H     H_    0.248290 0.864711 0.664614 0.296248
Ba1   Ba    Ba6+2 0.856850 0.543240 0.473390 1.615585
C6    C     C_3   0.963478 0.266124 0.398699 0.340823
H11   H     H_    0.846512 0.288479 0.413049 0.093965
H12   H     H_    0.056246 0.285198 0.435473 0.136702
C7    C     C_3   0.936147 0.163875 0.381014 -0.782799
H13   H     H_    0.901370 0.130569 0.419719 0.220910
H14   H     H_    0.051577 0.141592 0.363197 0.266638
C8    C     C_3   0.739724 0.667145 0.651570 0.428312
H15   H     H_    0.852524 0.651912 0.628604 0.109842
H16   H     H_    0.646250 0.605074 0.648176 0.081399
C9    C     C_3   0.784036 0.704653 0.716273 -0.828302
H17   H     H_    0.870223 0.769650 0.719696 0.303639
H18   H     H_    0.845457 0.657479 0.737184 0.202926
H19   H     H_    0.670571 0.716368 0.740803 0.253505
P4    P     P_3+3 0.133720 0.577520 0.632450 0.475759
O12   O     O_2   0.300150 0.550420 0.640640 -0.363573
O13   O     O_3   0.059600 0.549520 0.569540 -0.408118
O14   O     O_3   0.515600 0.383630 0.601220 -0.380513
O15   O     O_3   0.173936 0.695093 0.653069 -0.551248
P5    P     P_3+3 0.057553 0.219853 0.570354 0.434397
O16   O     O_3   0.613290 0.389640 0.467990 -0.393399
O17   O     O_3   0.096790 0.336450 0.571260 -0.396809
O18   O     O_2   0.189481 0.178131 0.531927 -0.376325
O19   O     O_3   0.098648 0.197028 0.640793 -0.530143
Ba2   Ba    Ba6+2 0.332990 0.456830 0.526620 1.559821
P6    P     P_3+3 0.666249 0.610427 0.322435 0.554187
C10   C     C_3   0.663217 0.780640 0.352436 0.352393
H20   H     H_    0.532670 0.755654 0.361536 -0.079206
O20   O     O_3   0.576420 0.610430 0.532020 -0.404523
C11   C     C_3   0.473875 0.322269 0.345154 0.370985
H21   H     H_    0.356935 0.341802 0.363197 0.095262
H22   H     H_    0.575306 0.380791 0.354808 0.124558
C12   C     C_3   0.452555 0.295870 0.278439 -0.805400
H23   H     H_    0.348163 0.239238 0.267466 0.269286
H24   H     H_    0.426286 0.354163 0.258477 0.206124
P7    P     P_3+3 0.524081 0.276158 0.445991 0.426081
O21   O     O_2   0.341600 0.276000 0.466340 -0.371601
O22   O     O_3   0.512007 0.248176 0.368886 -0.567269
C13   C     C_3   0.045160 0.262756 0.683333 0.325802
H25   H     H_    0.104362 0.331713 0.677858 0.151850
H26   H     H_    0.908889 0.258065 0.680731 0.057583
C14   C     C_3   0.094975 0.247082 0.744148 -0.688763
H27   H     H_    0.226353 0.237767 0.745042 0.269154
H28   H     H_    0.080866 0.306629 0.777352 0.231377
H29   H     H_    0.016655 0.185888 0.755599 0.270788
P8    P     P_3+3 0.533522 0.399480 0.678330 0.466564
C15   C     C_3   0.538045 0.228295 0.652046 0.427705
H30   H     H_    0.656522 0.246759 0.630256 0.027283
O23   O     O_2   0.375340 0.434168 0.702429 -0.404629
O24   O     O_3   0.519916 0.293815 0.701275 -0.511864
H31   H     H_    0.433500 0.220851 0.619918 0.163762
H32   H     H_    0.549266 0.084944 0.633266 0.214825
C16   C     C_3   0.538285 0.137512 0.672085 -0.876216
H33   H     H_    0.421321 0.117538 0.694512 0.278888
H34   H     H_    0.644215 0.141886 0.703121 0.273576
H35   H     H_    0.016206 0.273460 0.035522 0.215621
C17   C     C_R   0.345554 0.521053 0.331558 -0.551109
C18   C     C_R   0.120350 0.573579 0.941323 -0.089472
C19   C     C_R   0.071568 0.571724 0.881826 0.574918
O25   O     O_2   0.101460 0.640578 0.859809 -0.564126
N1    N     N_R   0.987033 0.493510 0.848803 -0.171072
C20   C     C_R   0.948734 0.416007 0.874442 0.550531
O26   O     O_2   0.861788 0.349821 0.846839 -0.540318
C21   C     C_R   0.007235 0.413244 0.932658 -0.206529
C22   C     C_R   0.089019 0.494209 0.966855 -0.018583
C23   C     C_R   0.201369 0.653526 0.975568 -0.179191
C24   C     C_R   0.250247 0.656581 0.034526 0.388637
C25   C     C_R   0.214868 0.577861 0.061737 -0.227730
C26   C     C_R   0.138262 0.496242 0.026962 -0.024307
C27   C     C_R   0.983898 0.332972 0.958532 0.382166
C28   C     C_R   0.035315 0.335790 0.017245 -0.165765
C29   C     C_R   0.111155 0.416450 0.052094 -0.102219
C30   C     C_R   0.161480 0.418393 0.111493 0.650426
N2    N     N_R   0.221302 0.499604 0.147371 -0.161565
C31   C     C_R   0.248633 0.578565 0.122829 0.661579
C32   C     C_2   0.773309 0.471168 0.770358 -0.142736
C33   C     C_3   0.721120 0.479710 0.708245 0.160619
C34   C     C_1   0.009565 0.518687 0.686041 0.291511
C35   C     C_2   0.058206 0.521578 0.742086 -0.210675
C36   C     C_2   0.934985 0.493832 0.787633 0.087330
C37   C     C_R   0.420494 0.543910 0.232402 -0.224009
C38   C     C_R   0.461546 0.553569 0.292467 0.200159
C39   C     C_R   0.189292 0.475567 0.311796 0.163395
C40   C     C_R   0.144239 0.466820 0.250481 0.293569
C41   C     C_R   0.261239 0.502902 0.210278 0.004022
O27   O     O_2   0.152076 0.347612 0.131207 -0.536987
O28   O     O_2   0.299461 0.650029 0.154617 -0.543619
C42   C     C_2   0.863607 0.474368 0.666817 -0.491497
H36   H     H_    0.512497 0.569356 0.202715 0.205916
H37   H     H_    0.229982 0.714626 0.956202 0.212561
H38   H     H_    0.186870 0.544081 0.755314 0.187124
H39   H     H_    0.679562 0.454663 0.802067 0.169238
H40   H     H_    0.379571 0.528369 0.377869 0.188912
H41   H     H_    0.850554 0.428526 0.624958 0.166907
C43   C     C_R   0.849800 0.170588 0.538631 0.205858
C44   C     C_R   0.783370 0.078064 0.533647 -0.062536
C45   C     C_R   0.644622 0.891646 0.526531 -0.198517
C46   C     C_R   0.786202 0.931646 0.562979 0.405791
C47   C     C_R   0.859178 0.020526 0.562113 -0.212795
C48   C     C_R   0.578975 0.796873 0.517127 0.245984
C49   C     C_R   0.432678 0.766132 0.483533 -0.518991
C50   C     C_R   0.614691 0.195686 0.482977 0.229565
C51   C     C_R   0.548540 0.102850 0.476074 -0.016836
C52   C     C_R   0.631907 0.043789 0.502606 0.038565
C53   C     C_R   0.400801 0.067674 0.444064 -0.078592
C54   C     C_R   0.333060 0.977271 0.440016 -0.185058
C55   C     C_R   0.412380 0.917525 0.466277 -0.009204
C56   C     C_R   0.564253 0.950481 0.497803 0.025269
C57   C     C_R   0.344382 0.825569 0.461140 0.150075
C58   C     C_R   0.760721 0.228578 0.515648 -0.547527
H42   H     H_    0.218642 0.954953 0.415079 0.213096
H43   H     H_    0.333949 0.109369 0.422141 0.175694
H44   H     H_    0.381614 0.694977 0.477609 0.174151
H45   H     H_    0.810451 0.299840 0.520350 0.176802
H46   H     H_    0.835883 0.142476 0.346766 0.274733
H47   H     H_    0.628582 0.865807 0.287070 0.159518
H48   H     H_    0.567352 0.274544 0.259349 0.289591
N3    N     N_R   0.838460 0.924810 0.341710 0.284338
O29   O     O_R   0.902213 0.951757 0.394703 -0.416130
O30   O     O_R   0.912403 0.956014 0.297299 -0.342561
H49   H     H_    0.290832 0.792314 0.232540 0.124611
N4    N     N_R   0.915345 0.246669 0.925481 0.272616
O31   O     O_R   0.798794 0.194678 0.947976 -0.319912
O32   O     O_R   0.992715 0.212349 0.879970 -0.337828
N5    N     N_R   0.342114 0.739628 0.064802 0.264664
O33   O     O_R   0.289211 0.815601 0.063036 -0.318875
O34   O     O_R   0.492992 0.741546 0.083068 -0.305876
N6    N     N_R   0.981581 0.423668 0.229381 0.266305
O35   O     O_R   0.898657 0.460017 0.193863 -0.350455
O36   O     O_R   0.923296 0.343172 0.240018 -0.329704
N7    N     N_R   0.842856 0.891714 0.609581 0.251046
O37   O     O_R   0.775898 0.907792 0.660873 -0.384618
O38   O     O_R   0.993407 0.875208 0.608181 -0.413434
H50   H     H_    0.969269 0.045877 0.589210 0.207026
N8    N     N_R   0.033370 0.751162 0.233208 0.313408
O39   O     O_R   0.015955 0.663391 0.224444 -0.320925
O40   O     O_R   0.922046 0.790379 0.211946 -0.264095

loop_
_geom_bond_atom_site_label_1
_geom_bond_atom_site_label_2
_geom_bond_distance
_ccdc_geom_bond_type
P4    O15   1.749523 S    
C18   C19   1.416571 A    
C45   C56   1.428644 A    
C52   C56   1.423753 A    
C21   C22   1.416634 A    
C2    C3    1.526911 S    
O16   P7    1.755095 S    
C35   H38   1.084417 S    
C43   C58   1.392430 A    
C23   C24   1.401803 A    
C15   O24   1.404448 S    
O6    P6    1.752665 S    
C37   H36   1.082854 S    
H32   C16   1.110113 S    
C54   C55   1.403616 A    
C10   H20   1.109214 S    
Ba1   Ba2   4.539552 S    
C7    H46   1.110691 S    
C5    H8    1.107980 S    
O16   Ba2   2.903691 S    
C45   C46   1.425544 A    
N8    O39   1.299841 A    
N3    O30   1.300275 A    
C7    H13   1.105187 S    
C8    C9    1.523875 S    
P1    C39   1.877232 S    
O2    Ba2   2.743699 S    
C22   C26   1.430561 A    
C18   C22   1.409549 A    
C35   C36   1.514249 S    
C2    H4    1.103928 S    
P1    O1    1.506853 D    
C4    C5    1.525896 S    
O19   C13   1.401980 S    
C37   C38   1.397099 A    
C28   C29   1.404013 A    
C12   H24   1.108417 S    
C30   O27   1.221930 D    
C11   O22   1.402031 S    
C31   O28   1.219078 D    
C58   H45   1.082099 S    
C9    H19   1.110650 S    
C24   N5    1.434920 S    
N3    O29   1.300564 A    
P2    Ba1   3.420751 S    
C13   H25   1.108085 S    
P7    O22   1.749845 S    
C18   C23   1.404131 A    
P3    O11   1.752188 S    
C17   H40   1.081911 S    
C44   C47   1.389280 A    
C4    H6    1.104493 S    
C6    H12   1.107778 S    
P2    O20   1.583711 S    
C1    H2    1.108190 S    
C37   C41   1.412166 A    
N5    O34   1.301447 A    
O10   C8    1.390816 S    
C9    H18   1.104859 S    
O5    C6    1.393276 S    
Ba1   O16   2.806263 S    
C11   H21   1.108699 S    
N6    O36   1.300245 A    
C3    N8    1.459199 S    
C3    H5    1.111437 S    
N4    O32   1.300914 A    
N6    O35   1.301393 A    
H1    C10   1.111070 S    
O6    C10   1.406884 S    
O8    Ba1   2.758378 S    
P2    C48   1.870021 S    
C39   C40   1.433893 A    
P7    C50   1.839254 S    
P4    O13   1.534408 S    
C25   C26   1.415581 A    
C54   H42   1.077509 S    
C8    H16   1.108804 S    
C11   H22   1.110731 S    
P1    O5    1.749770 S    
C29   C30   1.417799 A    
O7    Ba1   2.880063 S    
N2    C41   1.470502 S    
C15   H30   1.109104 S    
C55   C57   1.404964 A    
C15   C16   1.520744 S    
C20   O26   1.220282 D    
C14   H28   1.105746 S    
C2    H3    1.113665 S    
C45   C48   1.435722 A    
P5    O17   1.744580 S    
P5    C43   1.848656 S    
C27   N4    1.434048 S    
C1    N3    1.456786 S    
C47   H50   1.078992 S    
P1    O2    1.534592 S    
N7    O38   1.297793 A    
O2    Ba1   2.919399 S    
C17   C39   1.394964 A    
C8    H15   1.102130 S    
C20   C21   1.427893 A    
P2    O10   1.746936 S    
C6    H11   1.100317 S    
P3    O9    1.544193 D    
N4    O31   1.301084 A    
P5    O18   1.544341 D    
C24   C25   1.424386 A    
O13   Ba2   2.920382 S    
C12   H23   1.110690 S    
O11   C2    1.401399 S    
C6    C7    1.520474 S    
C32   H39   1.085655 S    
C1    C10   1.531826 S    
C3    H49   1.109774 S    
N5    O33   1.301131 A    
C40   C41   1.436514 A    
C5    H10   1.109441 S    
O14   Ba2   2.746370 S    
C51   C53   1.401419 A    
C9    H17   1.110699 S    
P3    O8    1.734313 S    
O12   Ba2   2.802858 S    
P7    O21   1.567199 D    
C16   H34   1.110678 S    
O3    P6    1.738696 S    
P3    C57   1.855722 S    
C34   C35   1.337719 D    
C46   C47   1.389703 A    
C49   C57   1.399135 A    
P4    O12   1.507078 D    
C48   C49   1.400271 A    
Ba2   O20   2.805646 S    
P4    C34   1.845027 S    
C44   C52   1.414049 A    
C21   C27   1.424670 A    
C11   C12   1.520826 S    
C4    O15   1.396362 S    
P6    C38   1.841300 S    
O4    P6    1.542785 D    
C15   H31   1.111189 S    
C19   N1    1.384325 Am   
C55   C56   1.419018 A    
C14   H29   1.110366 S    
C53   C54   1.384912 A    
Ba2   O21   2.880287 S    
C26   C29   1.409069 A    
C32   C33   1.518413 S    
C5    H9    1.108018 S    
C27   C28   1.403035 A    
Ba1   O13   2.743028 S    
O1    Ba1   2.802491 S    
O17   Ba2   2.759013 S    
C23   H37   1.083809 S    
N7    O37   1.301288 A    
N8    O40   1.300592 A    
C17   C38   1.393878 A    
C42   H41   1.086128 S    
O14   P8    1.748697 S    
C14   H27   1.109526 S    
C33   C42   1.509273 S    
H35   C28   1.083823 S    
C53   H43   1.079775 S    
P2    O7    1.497646 D    
N1    C20   1.389764 Am   
C32   C36   1.359097 D    
C13   C14   1.518335 S    
P5    O19   1.748792 S    
Ba1   O20   2.904595 S    
C1    H47   1.112340 S    
P1    Ba1   3.380897 S    
C51   C52   1.417876 A    
C7    H14   1.110965 S    
C4    H7    1.109302 S    
C30   N2    1.386308 Am   
C49   H44   1.081747 S    
P8    O23   1.545315 D    
C25   C31   1.426008 A    
C50   C58   1.392162 A    
P4    Ba2   3.381314 S    
C19   O25   1.222341 D    
P8    C33   1.860939 S    
C13   H26   1.109845 S    
C16   H33   1.110639 S    
C12   H48   1.110611 S    
N2    C31   1.390397 Am   
N1    C36   1.467278 S    
C40   N6    1.437566 S    
P8    O24   1.753255 S    
C46   N7    1.421928 S    
C34   C42   1.315867 D    
O3    Ba1   2.747269 S    
C50   C51   1.411244 A    
C43   C44   1.410143 A    
