data_mof_unit_16686.cif
_audit_creation_date              2012-12-10T19:06:25-0500
_audit_creation_method            fapswitch 2.2
_symmetry_space_group_name_H-M    P1
_symmetry_Int_Tables_number       1
_space_group_crystal_system       triclinic
_cell_length_a                    23.533883
_cell_length_b                    10.815086
_cell_length_c                    9.529314
_cell_angle_alpha                 89.922827
_cell_angle_beta                  89.609074
_cell_angle_gamma                 90.221261
_cell_volume                      2425.33340295

loop_
_atom_site_label
_atom_site_type_symbol
_atom_type_description
_atom_site_fract_x
_atom_site_fract_y
_atom_site_fract_z
_atom_type_partial_charge
C1    C     C_R   0.500971 0.262271 0.500052 0.808035
C2    C     C_R   0.971206 0.273467 0.549635 0.160740
C3    C     C_R   0.030727 0.276424 0.546930 -0.220597
C4    C     C_R   0.060331 0.385916 0.516179 -0.041960
C5    C     C_R   0.029926 0.494480 0.486660 -0.018271
C6    C     C_R   0.059543 0.604849 0.455274 -0.010743
C7    C     C_R   0.029068 0.712973 0.425833 -0.167020
C8    C     C_R   0.969892 0.711927 0.428084 -0.160678
C9    C     C_R   0.119958 0.389913 0.515407 0.560940
C10   C     C_R   0.119144 0.604338 0.455213 0.566917
C11   C     C_R   0.236215 0.551742 0.608561 0.210961
C12   C     C_R   0.390880 0.501785 0.500716 0.803532
C13   C     C_R   0.295945 0.553314 0.614447 0.068832
C14   C     C_R   0.328124 0.503099 0.501434 -0.103576
C15   C     C_R   0.299571 0.453960 0.384975 -0.243388
C16   C     C_R   0.240513 0.452637 0.380398 -0.162964
C17   C     C_R   0.208774 0.501097 0.491579 0.325548
C18   C     C_R   0.761327 0.487701 0.623528 -0.108916
C19   C     C_R   0.702066 0.489095 0.624892 -0.236048
C20   C     C_R   0.671791 0.497256 0.498511 -0.035013
C21   C     C_R   0.702033 0.502499 0.370900 -0.215362
C22   C     C_R   0.761235 0.501443 0.369772 -0.102893
C23   C     C_R   0.500881 0.737711 0.499878 0.812175
C24   C     C_R   0.791044 0.494254 0.495987 0.360954
C25   C     C_R   0.504680 0.063328 0.626065 0.115526
C26   C     C_R   0.506476 0.129219 0.500105 -0.099518
C27   C     C_R   0.516124 0.064728 0.374172 -0.212528
C28   C     C_R   0.516014 0.935825 0.374030 -0.219230
C29   C     C_R   0.506170 0.870806 0.499769 -0.112968
C30   C     C_R   0.504272 0.936183 0.625744 0.184057
C31   C     C_3   0.462558 0.929144 0.744294 -0.429885
C32   C     C_3   0.463126 0.069545 0.745064 -0.492042
C33   C     C_R   0.521642 0.598561 0.073099 0.197311
C34   C     C_R   0.609134 0.499341 0.499562 0.801101
C35   C     C_R   0.472894 0.409792 0.075070 -0.073598
C36   C     C_R   0.472760 0.409985 0.926084 -0.100786
C37   C     C_R   0.522007 0.598035 0.925607 0.250798
C38   C     C_3   0.581611 0.644656 0.918660 0.229452
C39   C     C_3   0.580890 0.647400 0.078399 -0.573001
C40   C     C_R   0.880436 0.600660 0.463051 0.527178
C41   C     C_R   0.880012 0.385971 0.523016 0.552894
C42   C     C_R   0.940037 0.382582 0.521075 -0.018527
C43   C     C_R   0.969889 0.493054 0.489058 -0.063693
C44   C     C_R   0.939904 0.602704 0.459706 -0.000257
Cu1   Cu    Cu3+1 0.500000 0.499980 0.640670 0.950570
Cu2   Cu    Cu3+1 0.500000 0.500020 0.359330 0.947027
H1    H     H_    0.680117 0.483165 0.724723 0.141587
H2    H     H_    0.680141 0.507138 0.271830 0.144961
H3    H     H_    0.784037 0.505818 0.270786 0.135686
H4    H     H_    0.521098 0.113167 0.275256 0.165696
H5    H     H_    0.520930 0.887822 0.275063 0.167895
H6    H     H_    0.421054 0.888860 0.712449 0.185366
H7    H     H_    0.481327 0.888079 0.840289 0.231464
H8    H     H_    0.421888 0.111119 0.714259 0.201098
H9    H     H_    0.482488 0.108986 0.841294 0.197123
H10   H     H_    0.451833 0.335571 0.131313 0.139811
H11   H     H_    0.053624 0.192042 0.569558 0.189483
H12   H     H_    0.451425 0.336233 0.870721 0.145550
H13   H     H_    0.611058 0.575326 0.872187 0.086739
H14   H     H_    0.610934 0.580453 0.124790 0.178242
H15   H     H_    0.582734 0.741992 0.123675 0.207842
H16   H     H_    0.050814 0.798890 0.401481 0.186869
H17   H     H_    0.947741 0.797156 0.405252 0.186023
H18   H     H_    0.323023 0.415056 0.297448 0.170303
H19   H     H_    0.219237 0.413700 0.290158 0.156664
H20   H     H_    0.784213 0.481823 0.721490 0.136646
N1    N     N_R   0.851951 0.493662 0.494385 -0.480048
N2    N     N_R   0.147929 0.498139 0.486036 -0.451842
N3    N     N_R   0.500360 0.500930 0.147930 -0.178246
N4    N     N_R   0.500360 0.500890 0.852020 -0.216294
O1    O     O_R   0.500000 0.319640 0.618810 -0.580972
O2    O     O_2   0.849625 0.283008 0.552221 -0.492805
O3    O     O_2   0.149806 0.286960 0.545121 -0.534623
O4    O     O_2   0.148184 0.709008 0.425107 -0.532882
O5    O     O_R   0.500010 0.319680 0.381230 -0.591374
O6    O     O_R   0.417880 0.499940 0.618820 -0.590791
O7    O     O_R   0.417880 0.499980 0.381240 -0.574299
O8    O     O_R   0.499990 0.680320 0.618770 -0.555859
O9    O     O_R   0.500000 0.680360 0.381190 -0.581615
O10   O     O_R   0.582120 0.500020 0.618760 -0.585707
O11   O     O_R   0.582120 0.500060 0.381180 -0.580573
O12   O     O_2   0.851146 0.704984 0.436039 -0.535132
N5    N     N_3   0.943127 0.158935 0.581755 -0.501799
H21   H     H_    0.956130 0.093108 0.508063 0.219983
H22   H     H_    0.956624 0.129474 0.680588 0.223030
O13   O     O_3   0.583631 0.763704 0.857797 -0.564812
C45   C     C_3   0.640867 0.799093 0.837365 0.071967
H23   H     H_    0.662815 0.734472 0.764162 0.148018
H24   H     H_    0.663824 0.801495 0.939177 0.150292
C46   C     C_3   0.643054 0.927804 0.773046 -0.751115
H25   H     H_    0.619104 0.993900 0.839906 0.244549
H26   H     H_    0.687889 0.959370 0.764161 0.215043
H27   H     H_    0.624231 0.926158 0.666563 0.243301
N6    N     N_3   0.202748 0.600650 0.721681 -0.564016
H28   H     H_    0.213258 0.553120 0.813468 0.234520
H29   H     H_    0.213637 0.693710 0.734827 0.254102
N7    N     N_3   0.322370 0.609171 0.734048 -0.601535
H30   H     H_    0.343609 0.541087 0.790940 0.246777
H31   H     H_    0.351248 0.676616 0.699735 0.228621

loop_
_geom_bond_atom_site_label_1
_geom_bond_atom_site_label_2
_ccdc_geom_bond_type
C45   H23   S    
Cu1   O1    S    
C10   O4    S    
C41   C42   A    
C35   C36   A    
C31   H6    S    
N7    H30   S    
C7    C8    A    
C41   N1    A    
Cu1   Cu2   S    
C26   C27   A    
C29   C30   A    
C38   O13   S    
Cu1   O6    S    
C18   C24   A    
C23   C29   S    
C28   C29   A    
C2    C42   A    
C36   H12   S    
C5    C6    A    
C28   H5    S    
C19   H1    S    
C15   C16   A    
C18   C19   A    
Cu2   N3    S    
C24   N1    S    
C34   O10   A    
Cu2   O9    S    
C31   C32   S    
C16   C17   A    
C40   N1    A    
C15   H18   S    
Cu1   O8    S    
C34   O11   A    
C32   H9    S    
C27   H4    S    
C33   N3    A    
C21   H2    S    
C20   C34   S    
C25   C32   S    
C5    C43   A    
C21   C22   A    
C2    N5    S    
C9    O3    S    
C32   H8    S    
Cu2   O5    S    
N7    H31   S    
C36   N4    A    
C39   H15   S    
Cu1   N4    S    
C1    O5    A    
C40   O12   S    
O13   C45   S    
C25   C26   A    
C33   C37   A    
C43   C44   A    
C7    H16   S    
C37   C38   S    
Cu2   O11   S    
C46   H26   S    
N5    H21   S    
C30   C31   S    
C12   O7    A    
C33   C39   S    
C31   H7    S    
N6    H29   S    
C22   H3    S    
C3    H11   S    
C11   N6    S    
N5    H22   S    
C12   C14   S    
C12   O6    A    
C1    C26   S    
C22   C24   A    
C42   C43   A    
C3    C4    A    
C46   H27   S    
C25   C30   A    
C11   C17   A    
C17   N2    S    
C35   H10   S    
C8    C44   A    
C4    C5    A    
C6    C10   A    
Cu2   O7    S    
C6    C7    A    
C10   N2    A    
C18   H20   S    
C41   O2    S    
C37   N4    A    
C19   C20   A    
C45   H24   S    
C2    C3    A    
C9    N2    A    
C11   C13   A    
C46   H25   S    
C38   C39   S    
C1    O1    A    
C39   H14   S    
Cu1   O10   S    
C23   O8    A    
C13   N7    S    
N6    H28   S    
C8    H17   S    
C38   H13   S    
C40   C44   A    
C20   C21   A    
C35   N3    A    
C45   C46   S    
C27   C28   A    
C14   C15   A    
C16   H19   S    
C23   O9    A    
C4    C9    A    
C13   C14   A    
