data_mof_unit_63097.cif
_audit_creation_date              2013-03-05T16:13:27-0500
_audit_creation_method            fapswitch 2.2
_symmetry_space_group_name_H-M    P1
_symmetry_Int_Tables_number       1
_space_group_crystal_system       triclinic
_cell_length_a                    19.40746
_cell_length_b                    14.732857
_cell_length_c                    15.922024
_cell_angle_alpha                 89.935463
_cell_angle_beta                  89.932823
_cell_angle_gamma                 90.473616
_cell_volume                      4552.38025461

loop_
_atom_site_label
_atom_site_type_symbol
_atom_site_description
_atom_site_fract_x
_atom_site_fract_y
_atom_site_fract_z
_atom_type_partial_charge
O1    O     O_R   0.500080 0.575970 0.379360 -0.544819
O2    O     O_R   0.500080 0.424030 0.379360 -0.550558
C1    C     C_R   0.500065 0.500061 0.339975 0.812862
O3    O     O_R   0.599930 0.575960 0.499920 -0.581820
O4    O     O_R   0.599930 0.424040 0.499920 -0.573878
C2    C     C_R   0.632837 0.500354 0.500330 0.837050
Cu1   Cu    Cu3+1 0.500090 0.589920 0.499910 1.137532
Cu2   Cu    Cu3+1 0.500090 0.410080 0.499910 1.132876
O5    O     O_R   0.500070 0.575900 0.620490 -0.547727
O6    O     O_R   0.500070 0.424100 0.620490 -0.560014
O7    O     O_R   0.400220 0.575910 0.499940 -0.533768
O8    O     O_R   0.400220 0.424090 0.499940 -0.537521
C3    C     C_R   0.500110 0.499947 0.659895 0.809174
C4    C     C_R   0.366652 0.499889 0.498480 0.864911
C5    C     C_R   0.744985 0.583635 0.497662 -0.170444
C6    C     C_R   0.744930 0.419942 0.509622 -0.160900
C7    C     C_R   0.817049 0.585666 0.498805 0.307412
C8    C     C_R   0.816926 0.419909 0.513786 0.303272
C9    C     C_R   0.853523 0.503293 0.507575 -0.176615
C10   C     C_R   0.708648 0.501283 0.502255 -0.157091
N1    N     N_R   0.965233 0.450998 0.455870 -0.137067
N2    N     N_R   0.963719 0.558219 0.564170 -0.123631
N3    N     N_R   0.033734 0.451912 0.457109 -0.140430
N4    N     N_R   0.032268 0.559199 0.565314 -0.110432
C11   C     C_R   0.068313 0.506285 0.511594 0.526312
C12   C     C_R   0.929116 0.504177 0.509332 0.505176
C13   C     C_R   0.180665 0.584372 0.488808 0.223293
C14   C     C_R   0.178787 0.424752 0.528330 0.231005
C15   C     C_R   0.252848 0.581745 0.480831 0.217502
C16   C     C_R   0.250908 0.421931 0.520283 0.203659
C17   C     C_R   0.289310 0.500688 0.498469 -0.341606
C18   C     C_R   0.143858 0.506177 0.512898 -0.253356
C19   C     C_3   0.454128 0.576302 0.047903 0.055185
C20   C     C_3   0.475803 0.408386 0.050117 0.052357
C21   C     C_3   0.475064 0.408087 0.951602 0.015022
C22   C     C_3   0.459336 0.578090 0.949484 -0.004829
C23   C     C_1   0.502071 0.499817 0.749134 0.006865
C24   C     C_3   0.503300 0.501555 0.083297 -0.127823
C25   C     C_3   0.507996 0.499907 0.916593 -0.203025
C26   C     C_3   0.584418 0.514166 0.951975 0.496232
C27   C     C_3   0.578166 0.518566 0.051156 -0.395790
C28   C     C_1   0.504665 0.499708 0.824380 0.171689
C29   C     C_1   0.501703 0.500885 0.175433 0.113915
C30   C     C_1   0.500747 0.500324 0.250698 -0.033204
C31   C     C_3   0.455723 0.051521 0.574791 0.029472
C32   C     C_3   0.453030 0.944734 0.571681 0.066795
C33   C     C_3   0.574235 0.053775 0.506508 0.014176
C34   C     C_3   0.574452 0.946266 0.514839 -0.009372
N5    N     N_1   0.498600 0.724970 0.501390 -0.110933
N6    N     N_1   0.498600 0.275030 0.501390 -0.114144
C35   C     C_3   0.498412 0.092383 0.497831 -0.334786
C36   C     C_3   0.499070 0.907164 0.498344 -0.338451
C37   C     C_3   0.474624 0.944860 0.407556 0.303318
C38   C     C_3   0.468246 0.056046 0.410108 0.309031
C39   C     C_1   0.499562 0.804345 0.500100 0.469353
C40   C     C_1   0.499066 0.195526 0.500771 0.470248
H1    H     H_    0.717289 0.646748 0.490827 0.212364
H2    H     H_    0.717117 0.356113 0.514701 0.227043
N7    N     N_R   0.616821 0.599250 0.921116 0.170819
O9    O     O_R   0.610872 0.622521 0.842558 -0.249141
O10   O     O_R   0.668415 0.634206 0.962565 -0.227791
N8    N     N_R   0.630114 0.440041 0.924059 0.182801
O11   O     O_R   0.669920 0.397653 0.976544 -0.219939
O12   O     O_R   0.645154 0.433793 0.844541 -0.238415
H3    H     H_    0.477736 0.924759 0.631515 0.202201
H4    H     H_    0.486369 0.068601 0.631108 0.189398
H5    H     H_    0.601432 0.067881 0.446722 0.214663
H6    H     H_    0.608314 0.919521 0.464851 0.192437
N9    N     N_R   0.615305 0.101234 0.571196 0.178356
O13   O     O_R   0.602111 0.092887 0.650984 -0.239763
O14   O     O_R   0.667166 0.152112 0.548261 -0.247478
N10   N     N_R   0.608299 0.914180 0.592515 0.182805
O15   O     O_R   0.581836 0.849509 0.638356 -0.298748
O16   O     O_R   0.673285 0.933414 0.603287 -0.169736
N11   N     N_R   0.396477 0.089449 0.401387 0.179495
O17   O     O_R   0.342856 0.044782 0.428127 -0.170992
O18   O     O_R   0.386190 0.169561 0.369254 -0.210996
N12   N     N_R   0.408189 0.905240 0.379572 0.191599
O19   O     O_R   0.380153 0.835985 0.417085 -0.220924
O20   O     O_R   0.385130 0.926403 0.305326 -0.154817
N13   N     N_R   0.505445 0.095524 0.336716 0.166516
O21   O     O_R   0.484135 0.075175 0.261431 -0.138873
O22   O     O_R   0.550301 0.161257 0.343988 -0.309157
N14   N     N_R   0.526026 0.913026 0.344379 0.132428
O23   O     O_R   0.519014 0.832149 0.312324 -0.228442
O24   O     O_R   0.582593 0.957433 0.327005 -0.283632
N15   N     N_R   0.388995 0.092849 0.594526 0.203959
O25   O     O_R   0.359362 0.072280 0.665541 -0.194015
O26   O     O_R   0.367389 0.163772 0.554629 -0.210438
N16   N     N_R   0.384626 0.900450 0.577288 0.201783
O27   O     O_R   0.379333 0.822808 0.616011 -0.255528
O28   O     O_R   0.328401 0.938457 0.551203 -0.128683
N17   N     N_R   0.852078 0.671418 0.488096 0.159474
O29   O     O_R   0.825041 0.745277 0.517849 -0.227748
O30   O     O_R   0.905324 0.678157 0.438650 -0.253172
N18   N     N_R   0.851646 0.335135 0.527159 0.163990
O31   O     O_R   0.826087 0.260344 0.496335 -0.219553
O32   O     O_R   0.902854 0.330173 0.579622 -0.233824
N19   N     N_R   0.144371 0.665175 0.465936 0.174570
O33   O     O_R   0.114160 0.713384 0.523368 -0.203708
O34   O     O_R   0.147830 0.695759 0.389351 -0.201412
N20   N     N_R   0.140979 0.344261 0.552137 0.180817
O35   O     O_R   0.095942 0.347150 0.612673 -0.238880
O36   O     O_R   0.150570 0.268175 0.512569 -0.170810
N21   N     N_R   0.288144 0.661798 0.452513 0.188873
O37   O     O_R   0.277757 0.738640 0.490438 -0.165954
O38   O     O_R   0.320932 0.660899 0.381179 -0.252963
N22   N     N_R   0.284576 0.337729 0.533828 0.181240
O39   O     O_R   0.285819 0.302813 0.608889 -0.225427
O40   O     O_R   0.299143 0.287685 0.469097 -0.193274
H7    H     H_    0.406431 0.561136 0.926613 0.132349
H8    H     H_    0.419683 0.409172 0.933056 0.115551
H9    H     H_    0.400703 0.553705 0.063886 0.114882
H10   H     H_    0.420894 0.402422 0.070490 0.130017
N23   N     N_R   0.511556 0.330594 0.087966 0.197738
O41   O     O_R   0.478198 0.276931 0.139016 -0.212991
O42   O     O_R   0.575415 0.312721 0.070478 -0.211308
N24   N     N_R   0.461457 0.666651 0.086769 0.211662
O43   O     O_R   0.412203 0.725198 0.077272 -0.190635
O44   O     O_R   0.513376 0.688117 0.134648 -0.252703
N25   N     N_R   0.500963 0.322221 0.916120 0.215142
O45   O     O_R   0.471665 0.246577 0.939701 -0.193315
O46   O     O_R   0.538454 0.320422 0.848488 -0.244990
N26   N     N_R   0.475671 0.668124 0.913503 0.209017
O47   O     O_R   0.440029 0.697281 0.849902 -0.251216
O48   O     O_R   0.520870 0.722630 0.947287 -0.169253
H11   H     H_    0.595228 0.585895 0.074229 0.251744
H12   H     H_    0.613595 0.471781 0.083655 0.243254

loop_
_geom_bond_atom_site_label_1
_geom_bond_atom_site_label_2
_geom_bond_distance
_ccdc_geom_bond_type
N1    C12   1.356065 A    
N17   O29   1.301473 A    
C13   C15   1.407355 A    
C8    N18   1.439769 S    
C27   H11   1.106446 S    
C4    C17   1.501157 S    
C29   C30   1.198503 T    
N13   O21   1.302962 A    
Cu1   Cu2   2.649556 S    
C31   C32   1.574552 S    
Cu1   O7    1.947483 S    
N21   O38   1.301364 A    
C13   N19   1.435080 S    
C37   N14   1.494462 S    
C22   N26   1.476187 S    
N14   O24   1.302598 A    
C8    C9    1.417224 A    
C34   C36   1.590110 S    
C16   C17   1.416544 A    
Cu2   O6    1.931187 S    
O7    C4    1.291276 A    
N12   O20   1.302951 A    
C31   C35   1.593118 S    
N23   O41   1.301435 A    
C32   C36   1.573335 S    
C19   C22   1.570331 S    
C26   N8    1.480829 S    
N22   O39   1.300933 A    
C5    C7    1.398783 A    
C20   C21   1.568650 S    
C23   C28   1.199173 T    
N9    O14   1.301636 A    
C9    C12   1.467330 S    
O5    C3    1.282278 A    
N24   O43   1.301633 A    
C33   N9    1.476263 S    
N8    O12   1.302490 A    
N14   O23   1.302947 A    
N19   O33   1.300571 A    
N23   O42   1.299053 A    
N18   O32   1.301466 A    
C3    C23   1.421421 S    
C36   C39   1.515155 S    
C6    C10   1.399834 A    
C16   N22   1.423198 S    
C11   C18   1.466324 S    
N7    O9    1.302088 A    
N17   O30   1.301439 A    
C26   N7    1.480908 S    
O1    Cu1   1.930604 S    
C5    H1    1.083300 S    
C27   H12   1.106113 S    
C15   N21   1.431176 S    
N20   O35   1.301365 A    
C34   N10   1.479950 S    
O3    Cu1   1.950218 S    
C33   H5    1.106570 S    
N13   O22   1.302168 A    
C25   C28   1.469721 S    
C5    C10   1.400087 A    
C1    C30   1.421522 S    
N7    O10   1.302746 A    
C21   N25   1.477701 S    
N4    C11   1.355662 A    
Cu1   N5    1.990287 S    
C24   C27   1.558116 S    
N10   O16   1.301959 A    
C25   C26   1.599483 S    
N12   O19   1.297133 A    
C33   C35   1.588134 S    
C20   N23   1.473347 S    
N5    C39   1.169568 T    
N6    C40   1.171477 T    
O1    C1    1.282777 A    
C21   C25   1.591334 S    
N11   O17   1.297801 A    
N8    O11   1.301322 A    
N16   O28   1.298994 A    
C33   C34   1.589352 S    
C14   C18   1.404334 A    
Cu2   O8    1.950876 S    
N18   O31   1.301464 A    
C22   H7    1.116259 S    
C6    H2    1.083300 S    
C34   H6    1.106518 S    
N20   O36   1.301106 A    
N11   O18   1.302874 A    
N25   O45   1.301681 A    
C32   H3    1.107649 S    
O3    C2    1.288560 A    
C26   C27   1.585113 S    
N19   O34   1.300969 A    
O8    C4    1.297714 A    
N1    N3    1.329547 A    
N2    N4    1.330485 A    
C7    N17   1.439578 S    
Cu2   N6    1.989756 S    
C36   C37   1.620874 S    
N26   O48   1.301585 A    
Cu1   O5    1.930723 S    
C31   N15   1.469375 S    
C13   C18   1.403325 A    
C20   C24   1.561485 S    
C22   C25   1.584629 S    
O2    Cu2   1.930144 S    
C35   C40   1.520325 S    
N10   O15   1.301447 A    
O6    C3    1.282152 A    
O4    Cu2   1.946836 S    
C37   C38   1.644336 S    
C32   N16   1.476920 S    
C20   H10   1.116300 S    
C2    C10   1.471622 S    
N21   O37   1.300734 A    
C19   H9    1.115409 S    
C19   C24   1.567884 S    
C35   C38   1.605807 S    
N15   O26   1.295198 A    
O2    C1    1.283128 A    
C24   C29   1.467313 S    
C15   C17   1.421060 A    
N16   O27   1.302112 A    
O4    C2    1.288474 A    
C14   C16   1.406354 A    
C7    C9    1.416842 A    
N22   O40   1.300085 A    
C37   N12   1.480243 S    
N3    C11   1.355980 A    
N9    O13   1.301138 A    
N24   O44   1.301366 A    
N25   O46   1.299320 A    
C38   N11   1.487643 S    
C14   N20   1.439553 S    
C19   N24   1.474428 S    
N15   O25   1.302275 A    
C6    C8    1.398922 A    
N2    C12   1.356966 A    
C31   H4    1.104695 S    
C38   N13   1.488140 S    
C21   H8    1.115195 S    
N26   O47   1.301545 A    
