data_mof_unit_43490.cif
_audit_creation_date              2013-03-05T16:39:55-0500
_audit_creation_method            fapswitch 2.2
_symmetry_space_group_name_H-M    P1
_symmetry_Int_Tables_number       1
_space_group_crystal_system       triclinic
_cell_length_a                    10.956858
_cell_length_b                    16.016262
_cell_length_c                    14.784834
_cell_angle_alpha                 89.816998
_cell_angle_beta                  91.909897
_cell_angle_gamma                 89.76946
_cell_volume                      2593.08288139

loop_
_atom_site_label
_atom_site_type_symbol
_atom_site_description
_atom_site_fract_x
_atom_site_fract_y
_atom_site_fract_z
_atom_type_partial_charge
O1    O     O_R   0.500060 0.380310 0.575320 -0.586625
O2    O     O_R   0.499940 0.619690 0.424680 -0.583813
O3    O     O_R   0.500000 0.380310 0.424640 -0.551807
O4    O     O_R   0.500000 0.619690 0.575360 -0.554601
C1    C     C_R   0.500700 0.341036 0.500229 0.820932
C2    C     C_R   0.499704 0.659068 0.499892 0.825762
O5    O     O_R   0.319670 0.500010 0.575340 -0.580642
O6    O     O_R   0.680330 0.499990 0.424660 -0.583997
O7    O     O_R   0.319610 0.500010 0.424650 -0.568730
O8    O     O_R   0.680390 0.499990 0.575350 -0.569867
C3    C     C_R   0.261597 0.499868 0.498514 0.802894
C4    C     C_R   0.738438 0.498635 0.501342 0.800407
Cu1   Cu    Cu3+1 0.500040 0.500000 0.589220 0.987463
Cu2   Cu    Cu3+1 0.499960 0.500000 0.410780 0.988935
C5    C     C_R   0.160317 0.593600 0.197004 0.063617
C6    C     C_R   0.811982 0.396716 0.791658 0.072005
C7    C     C_R   0.126677 0.585422 0.287250 -0.182054
C8    C     C_R   0.850608 0.407600 0.702975 -0.199702
H1    H     H_    0.115241 0.640252 0.328862 0.154167
H2    H     H_    0.851017 0.355272 0.656601 0.141737
C9    C     C_R   0.106341 0.507148 0.324690 0.062448
C10   C     C_R   0.892962 0.484469 0.673691 0.058672
C11   C     C_R   0.121027 0.435599 0.272706 -0.202902
C12   C     C_R   0.891310 0.553131 0.730869 -0.178163
H3    H     H_    0.105401 0.375135 0.303318 0.165628
H4    H     H_    0.923018 0.612699 0.706133 0.165038
C13   C     C_R   0.148420 0.441373 0.180762 0.076689
C14   C     C_R   0.847507 0.546170 0.818497 0.097374
C15   C     C_R   0.161237 0.521871 0.140597 0.352790
C16   C     C_R   0.816983 0.465780 0.852831 0.335846
C17   C     C_R   0.929676 0.500248 0.419663 -0.223147
C18   C     C_R   0.070464 0.493978 0.579555 -0.223424
H5    H     H_    0.876092 0.503419 0.356689 0.176098
H6    H     H_    0.123910 0.490797 0.642579 0.179627
C19   C     C_R   0.872208 0.496688 0.502752 -0.093846
C20   C     C_R   0.127971 0.498565 0.496549 -0.094206
C21   C     C_R   0.944155 0.492393 0.583538 0.031148
C22   C     C_R   0.056087 0.500937 0.415499 0.030096
C23   C     C_R   0.565410 0.954750 0.570419 0.308544
C24   C     C_R   0.439044 0.045913 0.432777 0.319758
C25   C     C_R   0.503072 0.912907 0.499027 -0.080170
C26   C     C_R   0.501538 0.087685 0.503698 -0.077478
C27   C     C_R   0.439286 0.958030 0.429892 -0.002625
C28   C     C_R   0.564971 0.042912 0.573191 -0.002980
C29   C     C_1   0.501187 0.823010 0.499454 0.076848
C30   C     C_1   0.502291 0.177415 0.502705 0.077437
C31   C     C_1   0.501813 0.252254 0.501224 -0.149016
C32   C     C_1   0.500201 0.748049 0.499660 -0.148705
C33   C     C_R   0.534345 0.568611 0.951375 -0.191097
C34   C     C_R   0.471817 0.427290 0.049514 -0.087373
H7    H     H_    0.556586 0.624200 0.913811 0.140736
H8    H     H_    0.447415 0.372937 0.088305 0.129246
C35   C     C_R   0.500190 0.496399 0.903004 0.015540
C36   C     C_R   0.505796 0.499696 0.097460 0.015352
C37   C     C_R   0.468427 0.424085 0.953152 0.274801
C38   C     C_R   0.540395 0.570810 0.047271 0.206331
C39   C     C_1   0.499675 0.498481 0.802634 0.108561
C40   C     C_1   0.502251 0.499841 0.197502 0.126486
N1    N     N_1   0.500040 0.499980 0.276710 -0.156118
N2    N     N_1   0.499960 0.500020 0.723290 -0.155113
N3    N     N_R   0.161486 0.532522 0.043730 0.121155
O9    O     O_R   0.092920 0.589673 0.005014 -0.375197
O10   O     O_R   0.223160 0.483134 0.992817 -0.422835
N4    N     N_R   0.802479 0.454324 0.948922 0.094133
O11   O     O_R   0.729335 0.398499 0.980262 -0.415251
O12   O     O_R   0.873427 0.493752 0.006475 -0.372214
C41   C     C_3   0.195324 0.679360 0.162886 -0.341954
C42   C     C_3   0.290508 0.720953 0.225772 -0.895512
H9    H     H_    0.247715 0.743322 0.288102 0.254414
H10   H     H_    0.330803 0.775460 0.191219 0.250232
H11   H     H_    0.364220 0.676195 0.245698 0.267174
H12   H     H_    0.235805 0.675621 0.095228 0.243992
H13   H     H_    0.112544 0.719582 0.157223 0.218540
C43   C     C_3   0.766916 0.310559 0.816055 -0.364380
C44   C     C_3   0.863190 0.260224 0.869597 -0.768380
H14   H     H_    0.948721 0.256242 0.831518 0.243682
H15   H     H_    0.883117 0.289108 0.936149 0.284575
H16   H     H_    0.828897 0.196033 0.881042 0.237518
H17   H     H_    0.680603 0.314626 0.852201 0.237799
H18   H     H_    0.743035 0.274696 0.753680 0.184860
C45   C     C_3   0.159804 0.360233 0.129219 -0.390306
C46   C     C_3   0.045862 0.341033 0.071559 -0.676977
H19   H     H_    0.962570 0.347634 0.111836 0.272575
H20   H     H_    0.039627 0.382952 0.011886 0.307552
H21   H     H_    0.051422 0.275797 0.046789 0.212306
H22   H     H_    0.240725 0.360420 0.086756 0.223552
H23   H     H_    0.174982 0.307329 0.177273 0.212390
C47   C     C_3   0.832677 0.625982 0.872248 -0.373589
C48   C     C_3   0.756912 0.691948 0.819910 -0.791235
H24   H     H_    0.811120 0.721143 0.766271 0.278531
H25   H     H_    0.673528 0.663754 0.788255 0.261128
H26   H     H_    0.729092 0.742048 0.866832 0.256986
H27   H     H_    0.785254 0.614294 0.935719 0.242381
H28   H     H_    0.924050 0.652176 0.889743 0.258480
C49   C     C_3   0.635074 0.089165 0.648128 -0.325603
C50   C     C_3   0.549634 0.120845 0.720174 -0.782860
H29   H     H_    0.485496 0.168534 0.691406 0.243753
H30   H     H_    0.496315 0.068457 0.748051 0.284674
H31   H     H_    0.604075 0.149749 0.776384 0.230068
H32   H     H_    0.706193 0.048896 0.681232 0.241721
H33   H     H_    0.685544 0.142613 0.619491 0.181232
C51   C     C_3   0.365800 0.913413 0.355732 -0.355763
C52   C     C_3   0.231257 0.908884 0.379011 -0.778272
H34   H     H_    0.220354 0.869559 0.440220 0.245436
H35   H     H_    0.194048 0.972193 0.391668 0.286091
H36   H     H_    0.177649 0.881067 0.321761 0.236769
H37   H     H_    0.374577 0.945582 0.289756 0.246562
H38   H     H_    0.400728 0.849309 0.344743 0.196675
N5    N     N_R   0.627203 0.907236 0.640875 0.120893
O13   O     O_R   0.592579 0.912721 0.723974 -0.367481
O14   O     O_R   0.712840 0.854448 0.621220 -0.376773
N6    N     N_R   0.375216 0.093286 0.363308 0.124449
O15   O     O_R   0.420432 0.099441 0.283328 -0.370891
O16   O     O_R   0.282421 0.139756 0.383537 -0.371792
C53   C     C_3   0.581588 0.650429 0.093877 -0.448194
C54   C     C_3   0.706968 0.640987 0.141453 -0.744971
H39   H     H_    0.706246 0.592240 0.194846 0.255350
H40   H     H_    0.777131 0.624655 0.092208 0.280449
H41   H     H_    0.733081 0.701067 0.173815 0.231937
H42   H     H_    0.586735 0.702552 0.044317 0.207721
H43   H     H_    0.513789 0.669197 0.143733 0.208246
C55   C     C_3   0.422010 0.345916 0.905119 -0.429823
C56   C     C_3   0.465192 0.264220 0.950123 -0.828942
H44   H     H_    0.563604 0.266828 0.970065 0.283804
H45   H     H_    0.411652 0.250964 0.010932 0.255355
H46   H     H_    0.450603 0.211689 0.902174 0.248910
H47   H     H_    0.320585 0.347164 0.902816 0.236847
H48   H     H_    0.451624 0.344644 0.834067 0.197490

loop_
_geom_bond_atom_site_label_1
_geom_bond_atom_site_label_2
_geom_bond_distance
_ccdc_geom_bond_type
C53   H43   1.105288 S    
C16   N4    1.445996 S    
C13   C15   1.427151 A    
C49   C50   1.527927 S    
C44   H14   1.110936 S    
N6    O16   1.301066 A    
C45   C46   1.521106 S    
C56   H44   1.109333 S    
C24   N6    1.436154 S    
Cu1   N2    1.982235 S    
O5    C3    1.283322 A    
Cu2   N1    1.982233 S    
C1    C31   1.421982 S    
C34   C36   1.406081 A    
C2    C32   1.425175 S    
C6    C43   1.514031 S    
C18   C20   1.399933 A    
C3    C20   1.463681 S    
C19   C21   1.410339 A    
C12   H4    1.083329 S    
N5    O14   1.301172 A    
C56   H45   1.110150 S    
C6    C16   1.431139 A    
C53   C54   1.529101 S    
C50   H31   1.110140 S    
C55   H47   1.110783 S    
C54   H39   1.108738 S    
C41   H12   1.109362 S    
C26   C30   1.437233 S    
O4    Cu1   1.927253 S    
N3    O10   1.297063 A    
C51   C52   1.526893 S    
C30   C31   1.198750 T    
C24   C27   1.408344 A    
C9    C22   1.471234 S    
C42   H9    1.107693 S    
C33   H7    1.080791 S    
C50   H30   1.110400 S    
C14   C47   1.518352 S    
C34   H8    1.080342 S    
C17   H5    1.084976 S    
C51   H38   1.108615 S    
C41   H13   1.111108 S    
C11   C13   1.404691 A    
C48   H25   1.110783 S    
C8    H2    1.084598 S    
C45   H22   1.103357 S    
C24   C26   1.405789 A    
C37   C55   1.522222 S    
C43   H18   1.112376 S    
Cu1   Cu2   2.638175 S    
C25   C27   1.413911 A    
O2    C2    1.280220 A    
C26   C28   1.413013 A    
N6    O15   1.300818 A    
C5    C15   1.421966 A    
C15   N3    1.441827 S    
C35   C37   1.423807 A    
C36   C38   1.417197 A    
C43   C44   1.524040 S    
C41   C42   1.529972 S    
C13   C45   1.515416 S    
C23   C25   1.410640 A    
C35   C39   1.484053 S    
C49   H32   1.109616 S    
C56   H46   1.110543 S    
O3    C1    1.280462 A    
C40   N1    1.172144 T    
C10   C21   1.468557 S    
C7    C9    1.390589 A    
C48   H26   1.110732 S    
C18   H6    1.084827 S    
O7    Cu2   1.993466 S    
C44   H15   1.104200 S    
C23   N5    1.437508 S    
O6    C4    1.281715 A    
C5    C41   1.516897 S    
C50   H29   1.109880 S    
C51   H37   1.108885 S    
C52   H35   1.110111 S    
C6    C8    1.401704 A    
C18   C21   1.387495 A    
C4    C19   1.465352 S    
O7    C3    1.281757 A    
C45   H23   1.112440 S    
O3    Cu2   1.927254 S    
O8    C4    1.284020 A    
O4    C2    1.279845 A    
C46   H19   1.111076 S    
C46   H20   1.107095 S    
C43   H17   1.103459 S    
C9    C11   1.393627 A    
C10   C12   1.389643 A    
O1    Cu1   1.928623 S    
C33   C38   1.417692 A    
O1    C1    1.277982 A    
C36   C40   1.480918 S    
C29   C32   1.200681 T    
C5    C7    1.401902 A    
C47   H27   1.103537 S    
O6    Cu2   1.980100 S    
C8    C10   1.390377 A    
C12   C14   1.400796 A    
C39   N2    1.173371 T    
O8    Cu1   1.993468 S    
C54   H41   1.110301 S    
C23   C28   1.412755 A    
C46   H21   1.110373 S    
C34   C37   1.425033 A    
C17   C22   1.388569 A    
N4    O11   1.297809 A    
C14   C16   1.427552 A    
C55   C56   1.532049 S    
C27   C51   1.520510 S    
C28   C49   1.522941 S    
N5    O13   1.300998 A    
C42   H11   1.109554 S    
C33   C35   1.407156 A    
C20   C22   1.412196 A    
C7    H1    1.083104 S    
C38   C53   1.514660 S    
C54   H40   1.107435 S    
C52   H36   1.109656 S    
C17   C19   1.400093 A    
C11   H3    1.084274 S    
C55   H48   1.109970 S    
N3    O9    1.300907 A    
O2    Cu2   1.928623 S    
C44   H16   1.110418 S    
O5    Cu1   1.980099 S    
C47   C48   1.532670 S    
C42   H10   1.110547 S    
C53   H42   1.111855 S    
C52   H34   1.110896 S    
C47   H28   1.109973 S    
C25   C29   1.440032 S    
C48   H24   1.109777 S    
C49   H33   1.111291 S    
N4    O12   1.300169 A    
