data_mof_unit_41647.cif
_audit_creation_date              2013-03-05T16:24:34-0500
_audit_creation_method            fapswitch 2.2
_symmetry_space_group_name_H-M    P1
_symmetry_Int_Tables_number       1
_space_group_crystal_system       triclinic
_cell_length_a                    27.709874
_cell_length_b                    15.750911
_cell_length_c                    14.93102
_cell_angle_alpha                 88.253556
_cell_angle_beta                  89.998186
_cell_angle_gamma                 90.051741
_cell_volume                      6513.69987871

loop_
_atom_site_label
_atom_site_type_symbol
_atom_site_description
_atom_site_fract_x
_atom_site_fract_y
_atom_site_fract_z
_atom_type_partial_charge
O1    O     O_R   0.500000 0.376780 0.574460 -0.613069
O2    O     O_R   0.500000 0.623220 0.425540 -0.613661
O3    O     O_R   0.500010 0.376780 0.425520 -0.608920
O4    O     O_R   0.499990 0.623220 0.574480 -0.608090
C1    C     C_R   0.500035 0.337518 0.501354 0.915098
C2    C     C_R   0.499970 0.662483 0.498644 0.915526
O5    O     O_R   0.428750 0.500010 0.574460 -0.618954
O6    O     O_R   0.571250 0.499990 0.425540 -0.621338
O7    O     O_R   0.428760 0.500020 0.425520 -0.622794
O8    O     O_R   0.571240 0.499980 0.574480 -0.619556
C3    C     C_R   0.405754 0.499970 0.499859 0.880931
C4    C     C_R   0.594240 0.499911 0.499934 0.880456
Zn1   Zn    Zn3+2 0.499990 0.500000 0.599450 0.968676
Zn2   Zn    Zn3+2 0.500010 0.500000 0.400550 0.965035
C5    C     C_R   0.177266 0.422559 0.486675 0.502639
C6    C     C_R   0.822614 0.575878 0.476816 0.502682
O9    O     O_2   0.202445 0.349477 0.482247 -0.566945
O10   O     O_2   0.797339 0.647856 0.460097 -0.566800
N1    N     N_R   0.201080 0.497863 0.494755 -0.357574
N2    N     N_R   0.798903 0.501907 0.497860 -0.357416
C7    C     C_R   0.177178 0.573240 0.500287 0.499314
C8    C     C_R   0.822908 0.427795 0.516262 0.501167
C9    C     C_R   0.278289 0.502543 0.413292 0.144108
C10   C     C_R   0.722140 0.488250 0.416613 0.143986
C11   C     C_R   0.328612 0.502800 0.416306 -0.245041
C12   C     C_R   0.671770 0.488180 0.418623 -0.244992
C13   C     C_R   0.326855 0.495951 0.578938 -0.223918
C14   C     C_R   0.672724 0.511782 0.578593 -0.223658
C15   C     C_R   0.276767 0.495056 0.576768 -0.132171
C16   C     C_R   0.722796 0.512685 0.577233 -0.131826
C17   C     C_R   0.252465 0.498118 0.494663 0.306805
C18   C     C_R   0.747518 0.501272 0.496926 0.305997
C19   C     C_R   0.101381 0.498281 0.486545 -0.059932
C20   C     C_R   0.898571 0.500893 0.488662 -0.060351
C21   C     C_R   0.126859 0.421345 0.482036 -0.051760
C22   C     C_R   0.873004 0.576732 0.471434 -0.052012
C23   C     C_R   0.101809 0.345644 0.469486 -0.212526
C24   C     C_R   0.897920 0.650602 0.445567 -0.212404
C25   C     C_R   0.126799 0.574971 0.496245 -0.007342
C26   C     C_R   0.873273 0.425777 0.511931 -0.007755
C27   C     C_R   0.353044 0.499659 0.498667 -0.066441
C28   C     C_R   0.646942 0.499878 0.499234 -0.066116
H1    H     H_    0.345004 0.493490 0.643212 0.164171
H2    H     H_    0.654247 0.520979 0.641480 0.163346
H3    H     H_    0.256635 0.492060 0.638958 0.140529
H4    H     H_    0.742588 0.522231 0.638664 0.141007
H5    H     H_    0.121367 0.287061 0.459916 0.187513
H6    H     H_    0.878259 0.707764 0.426400 0.187415
C29   C     C_R   0.974542 0.422121 0.494123 0.056682
C30   C     C_R   0.025415 0.577053 0.480125 0.056792
C31   C     C_R   0.974776 0.577307 0.467203 0.004232
C32   C     C_R   0.025078 0.420555 0.480084 0.004182
C33   C     C_R   0.949404 0.500125 0.483039 0.023913
C34   C     C_R   0.050516 0.498590 0.481924 0.023830
C35   C     C_R   0.948592 0.349251 0.523184 -0.183052
C36   C     C_R   0.051533 0.652098 0.495780 -0.182946
C37   C     C_R   0.898708 0.350862 0.531015 -0.164160
C38   C     C_R   0.101464 0.651169 0.502738 -0.164113
O11   O     O_2   0.797978 0.356367 0.537716 -0.576332
O12   O     O_2   0.202216 0.646090 0.508932 -0.575593
C39   C     C_R   0.051445 0.344567 0.465399 0.185050
C40   C     C_R   0.948254 0.651267 0.440251 0.185012
H7    H     H_    0.652045 0.478650 0.357040 0.160493
H8    H     H_    0.348623 0.505456 0.353909 0.160454
H9    H     H_    0.880193 0.293130 0.552415 0.188631
H10   H     H_    0.120093 0.710457 0.513687 0.188594
H11   H     H_    0.966417 0.291033 0.543938 0.175785
H12   H     H_    0.033833 0.711875 0.506770 0.175751
C41   C     C_3   0.544363 0.969379 0.523239 -0.278203
C42   C     C_3   0.455718 0.030636 0.476724 -0.278602
C43   C     C_3   0.532953 0.032130 0.444809 0.245710
C44   C     C_3   0.467127 0.967889 0.555150 0.244621
H13   H     H_    0.580383 0.943007 0.540895 0.154142
H14   H     H_    0.419698 0.057010 0.459074 0.154264
C45   C     C_1   0.500085 0.248770 0.504794 -0.186994
C46   C     C_1   0.499948 0.751236 0.495195 -0.186891
C47   C     C_3   0.510660 0.020649 0.584560 0.098936
C48   C     C_3   0.489419 0.979368 0.415400 0.099128
C49   C     C_3   0.500072 0.082986 0.505615 0.035565
C50   C     C_3   0.500007 0.917027 0.494345 0.035536
C51   C     C_1   0.500105 0.173622 0.506817 -0.064524
C52   C     C_1   0.499954 0.826387 0.493157 -0.064545
C53   C     C_3   0.505527 0.419252 0.973548 0.067344
C54   C     C_3   0.493992 0.580779 0.026653 0.068183
C55   C     C_3   0.542332 0.468739 0.030992 0.061699
C56   C     C_3   0.457163 0.531298 0.969219 0.059972
N3    N     N_1   0.500020 0.500000 0.268010 -0.095196
N4    N     N_1   0.499980 0.500000 0.731990 -0.094362
C57   C     C_3   0.463783 0.452135 0.031840 0.216645
C58   C     C_3   0.535743 0.547888 0.968374 0.216055
C59   C     C_3   0.500123 0.500972 0.089797 -0.121894
C60   C     C_3   0.499383 0.499075 0.910321 -0.122830
C61   C     C_1   0.500015 0.500505 0.189881 0.039428
C62   C     C_1   0.499737 0.499528 0.810155 0.041924
C63   C     C_3   0.475972 0.954681 0.320315 -0.403637
C64   C     C_3   0.466701 0.033783 0.260310 -0.319327
C65   C     C_3   0.455514 0.010046 0.164306 -0.903600
H15   H     H_    0.487477 0.979626 0.134102 0.266764
H16   H     H_    0.424243 0.965948 0.162690 0.266370
H17   H     H_    0.446568 0.068247 0.123865 0.256517
H18   H     H_    0.435659 0.069822 0.286993 0.220614
H19   H     H_    0.498899 0.075856 0.259587 0.248619
H20   H     H_    0.505311 0.915828 0.292014 0.201691
H21   H     H_    0.442792 0.915039 0.323739 0.198735
C66   C     C_3   0.524093 0.045365 0.679644 -0.403124
C67   C     C_3   0.533295 0.966287 0.739722 -0.319663
C68   C     C_3   0.544384 0.990067 0.835754 -0.902434
H22   H     H_    0.575674 0.034116 0.837465 0.266985
H23   H     H_    0.512402 0.020566 0.865807 0.266530
H24   H     H_    0.553249 0.931876 0.876275 0.256364
H25   H     H_    0.501093 0.924227 0.740361 0.248895
H26   H     H_    0.564359 0.930221 0.713160 0.220561
H27   H     H_    0.557298 0.084944 0.676235 0.199866
H28   H     H_    0.494769 0.084297 0.707877 0.201628
C69   C     C_3   0.589574 0.437484 0.074087 -0.392814
C70   C     C_3   0.625475 0.403697 0.005643 -0.348775
C71   C     C_3   0.675381 0.391940 0.047269 -0.894126
H29   H     H_    0.689762 0.453907 0.068874 0.257948
H30   H     H_    0.673537 0.347060 0.106040 0.268934
H31   H     H_    0.700470 0.365779 0.997135 0.256447
H32   H     H_    0.613089 0.341278 0.982124 0.224568
H33   H     H_    0.628378 0.447983 0.946643 0.227548
H34   H     H_    0.605817 0.491075 0.110220 0.209645
H35   H     H_    0.581363 0.386739 0.125062 0.188924
C72   C     C_3   0.409654 0.562594 0.927142 -0.388350
C73   C     C_3   0.374138 0.596067 0.996569 -0.355958
C74   C     C_3   0.323817 0.607384 0.956546 -0.882530
H36   H     H_    0.325059 0.651891 0.897421 0.268134
H37   H     H_    0.309204 0.545252 0.935948 0.258215
H38   H     H_    0.299257 0.633894 0.007351 0.253331
H39   H     H_    0.371830 0.551864 0.055730 0.226750
H40   H     H_    0.386521 0.658639 0.019652 0.224274
H41   H     H_    0.417552 0.613527 0.876211 0.190248
H42   H     H_    0.393227 0.509108 0.891133 0.209648
C75   C     C_3   0.511272 0.329900 0.937086 -0.394876
C76   C     C_3   0.512729 0.261083 0.011931 -0.320965
C77   C     C_3   0.518472 0.173191 0.973344 -0.916783
H43   H     H_    0.487199 0.158737 0.929814 0.263411
H44   H     H_    0.552285 0.169999 0.933626 0.267599
H45   H     H_    0.520216 0.124598 0.028692 0.260016
H46   H     H_    0.543370 0.272419 0.057753 0.220367
H47   H     H_    0.478899 0.262007 0.051634 0.252692
H48   H     H_    0.480925 0.317219 0.890903 0.198323
H49   H     H_    0.544814 0.327991 0.896616 0.190188
C78   C     C_3   0.488317 0.670101 0.063243 -0.395608
C79   C     C_3   0.486778 0.738960 0.988454 -0.320142
C80   C     C_3   0.481202 0.826845 0.027132 -0.917098
H50   H     H_    0.447455 0.830123 0.067032 0.266952
H51   H     H_    0.512559 0.841162 0.070509 0.263451
H52   H     H_    0.479432 0.875479 0.971825 0.260229
H53   H     H_    0.520528 0.737950 0.948517 0.252577
H54   H     H_    0.456030 0.727729 0.942843 0.220715
H55   H     H_    0.454855 0.672019 0.103926 0.188636
H56   H     H_    0.518717 0.682730 0.109315 0.198468
N5    N     N_2   0.573653 0.599747 0.927771 -0.310144
H57   H     H_    0.588853 0.574189 0.871656 0.222503
C81   C     C_3   0.608749 0.636358 0.987049 -0.815630
H58   H     H_    0.624574 0.693881 0.953819 0.246502
H59   H     H_    0.638354 0.590663 0.001489 0.243552
H60   H     H_    0.592120 0.655035 0.050901 0.245764
N6    N     N_2   0.425945 0.400195 0.072574 -0.310021
H61   H     H_    0.410839 0.425572 0.128872 0.221976
C82   C     C_3   0.390794 0.363560 0.013434 -0.816745
H62   H     H_    0.375193 0.305787 0.046547 0.246443
H63   H     H_    0.407319 0.345286 0.949334 0.245849
H64   H     H_    0.361041 0.409087 0.999503 0.243324
C83   C     C_3   0.747716 0.474078 0.328731 -0.422873
C84   C     C_3   0.743085 0.381326 0.301572 -0.341869
C85   C     C_3   0.773625 0.364143 0.219050 -0.877001
H65   H     H_    0.763441 0.408074 0.162645 0.265550
H66   H     H_    0.812521 0.372659 0.234469 0.265917
H67   H     H_    0.767747 0.297824 0.198323 0.253967
H68   H     H_    0.755252 0.338390 0.357601 0.258354
H69   H     H_    0.704730 0.366641 0.286545 0.216298
H70   H     H_    0.731806 0.516636 0.275776 0.200451
H71   H     H_    0.786544 0.490747 0.332870 0.211574
C86   C     C_3   0.253422 0.506689 0.322983 -0.422358
C87   C     C_3   0.258599 0.595256 0.278455 -0.338843
C88   C     C_3   0.233986 0.599528 0.187018 -0.882115
H72   H     H_    0.250449 0.552808 0.141895 0.262666
H73   H     H_    0.194807 0.585934 0.194193 0.267228
H74   H     H_    0.238474 0.664141 0.156293 0.251061
H75   H     H_    0.241973 0.643265 0.321949 0.255401
H76   H     H_    0.297393 0.611349 0.269344 0.217741
H77   H     H_    0.269680 0.458317 0.279440 0.204954
H78   H     H_    0.214480 0.491085 0.328965 0.209367
N7    N     N_2   0.028392 0.268712 0.437981 -0.323787
H79   H     H_    0.047434 0.213765 0.452685 0.224175
C89   C     C_3   0.010830 0.272149 0.346676 -0.768162
H80   H     H_    0.991489 0.212260 0.332552 0.238490
H81   H     H_    0.041519 0.279722 0.299156 0.239139
H82   H     H_    0.985230 0.325749 0.336151 0.254254
N8    N     N_2   0.971061 0.723828 0.399534 -0.323971
H83   H     H_    0.952096 0.779761 0.405219 0.223988
C90   C     C_3   0.987943 0.711619 0.309130 -0.767967
H84   H     H_    0.007150 0.769623 0.284412 0.238592
H85   H     H_    0.956907 0.699601 0.264077 0.239060
H86   H     H_    0.013484 0.657401 0.307190 0.254458
N9    N     N_2   0.568786 0.071685 0.386407 -0.312690
H87   H     H_    0.585945 0.122223 0.415055 0.229625
C91   C     C_3   0.602270 0.014112 0.345662 -0.792765
H88   H     H_    0.625301 0.050034 0.296863 0.242183
H89   H     H_    0.582763 0.964392 0.309208 0.247440
H90   H     H_    0.625837 0.983761 0.397585 0.239619
N10   N     N_2   0.431285 0.928358 0.613548 -0.312142
H91   H     H_    0.414110 0.877844 0.584889 0.231372
C92   C     C_3   0.397820 0.985961 0.654302 -0.789330
H92   H     H_    0.374780 0.950058 0.703098 0.243951
H93   H     H_    0.374261 0.016340 0.602383 0.239271
H94   H     H_    0.417342 0.035658 0.690762 0.246428

loop_
_geom_bond_atom_site_label_1
_geom_bond_atom_site_label_2
_geom_bond_distance
_ccdc_geom_bond_type
C72   H42   1.110371 S    
C73   C74   1.525527 S    
C64   H19   1.110765 S    
C13   C15   1.388377 A    
C91   H89   1.107697 S    
C85   H65   1.110204 S    
C41   C47   1.552093 S    
C63   C64   1.534139 S    
O7    Zn2   2.009210 S    
C92   H93   1.110870 S    
N1    C17   1.423866 S    
C43   C49   1.530242 S    
N6    H61   1.030695 S    
C55   C59   1.557177 S    
C75   C76   1.533505 S    
C67   H26   1.111524 S    
N10   H91   1.030902 S    
C5    N1    1.365339 A    
C53   C60   1.558524 S    
C77   H44   1.110824 S    
C19   C25   1.408997 A    
C70   H33   1.109739 S    
O1    C1    1.270849 A    
C66   H27   1.111222 S    
C80   H51   1.110816 S    
C54   C56   1.556801 S    
Zn2   N3    1.978957 S    
C32   C39   1.425478 A    
C71   H30   1.111067 S    
N7    C89   1.447026 S    
C48   C50   1.539364 S    
C42   C48   1.552068 S    
C67   C68   1.524210 S    
C72   H41   1.110079 S    
C69   C70   1.533396 S    
C65   H15   1.109664 S    
C39   N7    1.425350 S    
C56   C57   1.546594 S    
C86   H77   1.112169 S    
C70   C71   1.525269 S    
C89   H81   1.111491 S    
C91   H88   1.110160 S    
C5    C21   1.398630 A    
O4    Zn1   1.965122 S    
C41   C43   1.542154 S    
C4    C28   1.460395 S    
C80   H50   1.110825 S    
C65   H16   1.110760 S    
N1    C7    1.364733 A    
C58   C60   1.548171 S    
C38   H10   1.083366 S    
C81   H58   1.109618 S    
C82   H62   1.109614 S    
C32   C34   1.417335 A    
C14   C16   1.387690 A    
N8    C90   1.447006 S    
C42   H14   1.110107 S    
C92   H94   1.107686 S    
C76   H47   1.109482 S    
C68   H22   1.110759 S    
C41   H13   1.110106 S    
C26   C37   1.396890 A    
C54   C59   1.557578 S    
C24   C40   1.397020 A    
C23   H5    1.083747 S    
C24   H6    1.083758 S    
C87   H75   1.111909 S    
C6    N2    1.365352 A    
C88   H74   1.110377 S    
C78   H55   1.109416 S    
C75   H48   1.109353 S    
C77   H43   1.110811 S    
N9    H87   1.030908 S    
C81   H59   1.108650 S    
C64   H18   1.111521 S    
C56   C72   1.533997 S    
C15   C17   1.398269 A    
C91   H90   1.110867 S    
C85   H66   1.110979 S    
O2    C2    1.270840 A    
C31   C40   1.425511 A    
C54   C58   1.546765 S    
C74   H37   1.110824 S    
C57   N6    1.451394 S    
N6    C82   1.446218 S    
C63   H20   1.109337 S    
C78   C79   1.533432 S    
C67   H25   1.110747 S    
N10   C92   1.445172 S    
C84   H68   1.112123 S    
C53   C57   1.546714 S    
C77   H45   1.110231 S    
N4    C62   1.166895 T    
C69   H34   1.110513 S    
C70   H32   1.108222 S    
C92   H92   1.110147 S    
C87   C88   1.525818 S    
C66   H28   1.109339 S    
C55   C69   1.533604 S    
C82   H64   1.108695 S    
C7    O12   1.349910 S    
C50   C52   1.428319 S    
C71   H31   1.110288 S    
C46   C52   1.183162 T    
C83   C84   1.533296 S    
C49   C51   1.428258 S    
C45   C51   1.183124 T    
C54   C78   1.532909 S    
C25   C38   1.396902 A    
C14   H2    1.083139 S    
C30   C36   1.410997 A    
C86   H78   1.109488 S    
C79   H53   1.109520 S    
C15   H3    1.083004 S    
C31   C33   1.417406 A    
C11   H8    1.083860 S    
C9    C17   1.409870 A    
C1    C45   1.397245 S    
C89   H82   1.110695 S    
C84   H69   1.111806 S    
C12   H7    1.083994 S    
C10   C18   1.410445 A    
C44   C47   1.535905 S    
C59   C61   1.494147 S    
C13   C27   1.400752 A    
O5    C3    1.283291 A    
C7    C25   1.397559 A    
C73   H40   1.108130 S    
C48   C63   1.529404 S    
O6    C4    1.280477 A    
C29   C32   1.416304 A    
C8    C26   1.397555 A    
C64   C65   1.524180 S    
C10   C83   1.513936 S    
C60   C62   1.495424 S    
C30   C31   1.416403 A    
C47   C49   1.539331 S    
C30   C34   1.418242 A    
C43   N9    1.449201 S    
N5    C81   1.446316 S    
O7    C3    1.279965 A    
O3    Zn2   1.965124 S    
O8    C4    1.282617 A    
C79   H54   1.108205 S    
C78   H56   1.109269 S    
O4    C2    1.273534 A    
C75   H49   1.109520 S    
C53   C55   1.556504 S    
N2    C8    1.364725 A    
N8    H83   1.031933 S    
C81   H60   1.106838 S    
C35   C37   1.387516 A    
C72   C73   1.534672 S    
C68   H24   1.110456 S    
C20   C26   1.409040 A    
C57   C59   1.547196 S    
C11   C27   1.403350 A    
C74   H36   1.110942 S    
C80   H52   1.110253 S    
C8    O11   1.349879 S    
C65   H17   1.110448 S    
C63   H21   1.111228 S    
C12   C28   1.403429 A    
C83   H70   1.112262 S    
C79   C80   1.524032 S    
N2    C18   1.423978 S    
C21   C23   1.396709 A    
C19   C34   1.411161 A    
C5    O9    1.349918 S    
C84   C85   1.525863 S    
O6    Zn2   2.009016 S    
C69   H35   1.110168 S    
C14   C28   1.401043 A    
C82   H63   1.107038 S    
C42   C49   1.548035 S    
C42   C44   1.542074 S    
C53   C75   1.532827 S    
C16   H4    1.083034 S    
C10   C12   1.396056 A    
C76   C77   1.524061 S    
O3    C1    1.273494 A    
O8    Zn1   2.009210 S    
C23   C39   1.397026 A    
C55   C58   1.546305 S    
C2    C46   1.397312 S    
C44   N10   1.449178 S    
C88   H72   1.111006 S    
C66   C67   1.534135 S    
C90   H86   1.110691 S    
C47   C66   1.529419 S    
C74   H38   1.110283 S    
C35   H11   1.079045 S    
C44   C50   1.530266 S    
C36   H12   1.079004 S    
C71   H29   1.110860 S    
C6    C22   1.398635 A    
C16   C18   1.397374 A    
C68   H23   1.109669 S    
C73   H39   1.109756 S    
C29   C33   1.418196 A    
N3    C61   1.166329 T    
Zn1   N4    1.978957 S    
C22   C24   1.396695 A    
C19   C21   1.406395 A    
C76   H46   1.108179 S    
C36   C38   1.387520 A    
C3    C27   1.460710 S    
C20   C22   1.406354 A    
C37   H9    1.083346 S    
C29   C35   1.410976 A    
C89   H80   1.110294 S    
O2    Zn2   1.987505 S    
C9    C86   1.513959 S    
C90   H84   1.110292 S    
C13   H1    1.083144 S    
O5    Zn1   2.009016 S    
C9    C11   1.395186 A    
O1    Zn1   1.987506 S    
N7    H79   1.031936 S    
C20   C33   1.411158 A    
C6    O10   1.349933 S    
C86   C87   1.533550 S    
N5    H57   1.030677 S    
N9    C91   1.445161 S    
C41   C50   1.548106 S    
C56   C60   1.558150 S    
C85   H67   1.110354 S    
C40   N8    1.425329 S    
C88   H73   1.110909 S    
C58   N5    1.451370 S    
C43   C48   1.535932 S    
C87   H76   1.111628 S    
C83   H71   1.109424 S    
C90   H85   1.111510 S    
