data_mof_unit_21976.cif
_audit_creation_date              2012-12-11T14:24:45-0500
_audit_creation_method            fapswitch 2.2
_symmetry_space_group_name_H-M    P1
_symmetry_Int_Tables_number       1
_space_group_crystal_system       triclinic
_cell_length_a                    19.036741
_cell_length_b                    11.050409
_cell_length_c                    18.735609
_cell_angle_alpha                 89.534507
_cell_angle_beta                  91.186339
_cell_angle_gamma                 89.976651
_cell_volume                      3940.31789756

loop_
_atom_site_label
_atom_site_type_symbol
_atom_type_description
_atom_site_fract_x
_atom_site_fract_y
_atom_site_fract_z
_atom_type_partial_charge
C1    C     C_R   0.730157 0.377031 0.146468 0.528078
C2    C     C_R   0.268645 0.377925 0.852528 0.558041
C3    C     C_R   0.230140 0.877006 0.146457 0.530699
C4    C     C_R   0.768658 0.877879 0.852549 0.546348
C5    C     C_3   0.529924 0.041402 0.015782 -0.109911
C6    C     C_3   0.568267 0.105883 0.954205 -0.137719
C7    C     C_3   0.029792 0.541352 0.015812 -0.110337
C8    C     C_3   0.068298 0.605331 0.954155 -0.135671
C9    C     C_R   0.746638 0.920299 0.922859 -0.015617
C10   C     C_R   0.246112 0.912774 0.072953 0.001919
C11   C     C_R   0.246613 0.420411 0.922821 -0.013745
C12   C     C_R   0.746190 0.412897 0.072992 0.003280
C13   C     C_R   0.695401 0.857540 0.962946 0.015423
C14   C     C_R   0.306686 0.872141 0.038168 0.009583
C15   C     C_R   0.195394 0.357646 0.962912 0.014179
C16   C     C_R   0.806737 0.372162 0.038189 0.011375
C17   C     C_R   0.700434 0.858436 0.038531 0.023196
C18   C     C_R   0.305127 0.864032 0.962584 0.008396
C19   C     C_R   0.200436 0.358510 0.038496 0.022332
C20   C     C_R   0.805163 0.364084 0.962604 0.008617
C21   C     C_R   0.791519 0.012021 0.030438 -0.136161
C22   C     C_R   0.190418 0.958703 0.958805 -0.150773
C23   C     C_R   0.291500 0.512129 0.030405 -0.136604
C24   C     C_R   0.690504 0.458925 0.958864 -0.151522
C25   C     C_R   0.791531 0.001664 0.957409 -0.149434
C26   C     C_R   0.189352 0.957438 0.031927 -0.153836
C27   C     C_R   0.291487 0.501810 0.957368 -0.149727
C28   C     C_R   0.689471 0.457721 0.031983 -0.153430
C29   C     C_R   0.640379 0.791429 0.930391 -0.086310
C30   C     C_R   0.368340 0.837838 0.076199 -0.097440
C31   C     C_R   0.140365 0.291582 0.930352 -0.085800
C32   C     C_R   0.868363 0.337673 0.076203 -0.097602
C33   C     C_R   0.099123 0.214824 0.970411 -0.148752
C34   C     C_R   0.923317 0.282692 0.041182 -0.137536
C35   C     C_R   0.599117 0.714707 0.970465 -0.147263
C36   C     C_R   0.423368 0.783071 0.041184 -0.136945
C37   C     C_R   0.607556 0.708112 0.044016 -0.150777
C38   C     C_R   0.417990 0.762955 0.968147 -0.128553
C39   C     C_R   0.107597 0.208117 0.043955 -0.150566
C40   C     C_R   0.917902 0.262585 0.968148 -0.127929
C41   C     C_R   0.658555 0.777538 0.077986 -0.084297
C42   C     C_R   0.359621 0.801850 0.929162 -0.099795
C43   C     C_R   0.158575 0.277567 0.077939 -0.083599
C44   C     C_R   0.859594 0.301759 0.929164 -0.099725
C45   C     C_R   0.562849 0.150766 0.137745 0.554645
C46   C     C_R   0.467715 0.154684 0.855503 0.553293
C47   C     C_R   0.062903 0.650764 0.137742 0.555828
C48   C     C_R   0.967798 0.654679 0.855449 0.555896
C49   C     C_R   0.747193 0.940123 0.072086 0.020957
C50   C     C_R   0.249063 0.918298 0.923056 -0.003276
C51   C     C_R   0.247190 0.440202 0.072056 0.020413
C52   C     C_R   0.749108 0.418416 0.923094 -0.005054
C53   C     C_R   0.501533 0.167688 0.576939 -0.008747
C54   C     C_R   0.504204 0.157771 0.426810 -0.022257
C55   C     C_R   0.007892 0.666754 0.582611 -0.008075
C56   C     C_R   0.032037 0.648854 0.436070 -0.022841
C57   C     C_R   0.522188 0.059992 0.542999 -0.020251
C58   C     C_R   0.505008 0.049598 0.469372 -0.016937
C59   C     C_R   0.044279 0.564350 0.557651 -0.015076
C60   C     C_R   0.043431 0.545470 0.482707 -0.040497
C61   C     C_R   0.495677 0.268744 0.461086 -0.138487
C62   C     C_R   0.488237 0.271670 0.534924 -0.137268
C63   C     C_R   0.005522 0.755384 0.464226 -0.134351
C64   C     C_R   0.988964 0.760593 0.535569 -0.143133
C65   C     C_R   0.547406 0.956127 0.581492 0.043734
C66   C     C_R   0.487493 0.932189 0.443425 0.036107
C67   C     C_R   0.074201 0.473946 0.604759 0.036658
C68   C     C_R   0.054743 0.424487 0.459242 0.036427
C69   C     C_R   0.095634 0.363912 0.576551 -0.121989
C70   C     C_R   0.088753 0.342177 0.504531 -0.138228
C71   C     C_R   0.535181 0.842477 0.552669 -0.108997
C72   C     C_R   0.500536 0.831835 0.487487 -0.137179
C73   C     C_R   0.754994 0.908575 0.574511 0.024719
C74   C     C_R   0.235259 0.891645 0.435726 -0.028782
C75   C     C_R   0.256966 0.408061 0.574188 0.009568
C76   C     C_R   0.749671 0.414163 0.428480 -0.026906
C77   C     C_R   0.779148 0.826477 0.522593 -0.001676
C78   C     C_R   0.178769 0.947679 0.473787 0.006764
C79   C     C_R   0.276828 0.323664 0.522043 -0.011221
C80   C     C_R   0.699858 0.486032 0.463636 0.013532
C81   C     C_R   0.771490 0.856616 0.449654 0.018892
C82   C     C_R   0.174410 0.925328 0.547285 0.020694
C83   C     C_R   0.267120 0.353306 0.449240 0.022394
C84   C     C_R   0.685090 0.458000 0.534503 0.023020
C85   C     C_R   0.717154 0.049869 0.485630 -0.159648
C86   C     C_R   0.292106 0.841964 0.548712 -0.162575
C87   C     C_R   0.219946 0.551210 0.486407 -0.158582
C88   C     C_R   0.796199 0.350951 0.544270 -0.159030
C89   C     C_R   0.740631 0.974620 0.146841 0.576079
C90   C     C_R   0.258049 0.967620 0.850902 0.550900
C91   C     C_R   0.240618 0.474694 0.146814 0.574470
C92   C     C_R   0.758061 0.467653 0.850918 0.547996
C93   C     C_R   0.727520 0.021695 0.556399 -0.043592
C94   C     C_R   0.288331 0.828791 0.475793 -0.085045
C95   C     C_R   0.232454 0.522988 0.556879 -0.034265
C96   C     C_R   0.798268 0.344563 0.470503 -0.071859
C97   C     C_R   0.814357 0.718044 0.542767 -0.094403
C98   C     C_R   0.125260 0.021745 0.442353 -0.079139
C99   C     C_R   0.309261 0.212703 0.541744 -0.091700
C100  C     C_R   0.657505 0.571713 0.427371 -0.062695
C101  C     C_R   0.843319 0.643109 0.492419 -0.141527
C102  C     C_R   0.063499 0.046326 0.478173 -0.163370
C103  C     C_R   0.329503 0.130923 0.490846 -0.138409
C104  C     C_R   0.590312 0.593422 0.450455 -0.124130
C105  C     C_R   0.835616 0.670555 0.420688 -0.135562
C106  C     C_R   0.056155 0.009902 0.548402 -0.149585
C107  C     C_R   0.316516 0.155439 0.419494 -0.134866
C108  C     C_R   0.568758 0.546136 0.515695 -0.153564
C109  C     C_R   0.798879 0.773933 0.398132 -0.001316
C110  C     C_R   0.110249 0.946598 0.583067 0.031313
C111  C     C_R   0.287304 0.265438 0.397365 0.007922
C112  C     C_R   0.616636 0.482962 0.559798 0.028302
C113  C     C_R   0.738784 0.969673 0.433379 0.017628
C114  C     C_R   0.237729 0.898487 0.583665 0.020991
C115  C     C_R   0.238460 0.469650 0.433515 0.020790
C116  C     C_R   0.741157 0.411583 0.576806 0.013720
C117  C     C_R   0.731350 0.378612 0.354986 0.525955
C118  C     C_R   0.269606 0.379048 0.646858 0.553985
C119  C     C_R   0.226957 0.870654 0.358550 0.520907
C120  C     C_R   0.768716 0.880642 0.647412 0.551655
C121  C     C_R   0.532365 0.155929 0.353594 0.529099
C122  C     C_R   0.468585 0.158144 0.647432 0.522307
C123  C     C_R   0.056300 0.651574 0.361549 0.525642
C124  C     C_R   0.969176 0.657824 0.648685 0.513329
C125  C     C_R   0.730220 0.015396 0.363347 0.553170
C126  C     C_R   0.255026 0.964074 0.647960 0.558131
C127  C     C_R   0.230037 0.515633 0.363405 0.533749
C128  C     C_R   0.755670 0.466722 0.645715 0.557761
C129  C     C_3   0.508544 0.271166 0.974780 -0.010294
C130  C     C_3   0.470452 0.206542 0.035239 -0.012801
C131  C     C_3   0.009044 0.771152 0.974561 -0.010224
C132  C     C_3   0.970782 0.707038 0.035085 -0.013609
C133  C     C_3   0.579822 0.219079 0.001636 -0.167587
C134  C     C_3   0.458909 0.094344 0.988803 -0.122927
C135  C     C_3   0.080188 0.718580 0.001473 -0.168381
C136  C     C_3   0.958916 0.594781 0.988787 -0.123112
C137  C     C_3   0.540647 0.154863 0.062093 0.021846
C138  C     C_3   0.497820 0.159604 0.928120 0.030287
C139  C     C_3   0.040833 0.654872 0.062017 0.019354
C140  C     C_3   0.997988 0.659539 0.928036 0.031733
Cr1   Cr    Cr6+3 0.772820 0.169820 0.252640 1.051803
Cr2   Cr    Cr6+3 0.227180 0.169820 0.747360 1.059194
Cr3   Cr    Cr6+3 0.272820 0.669820 0.252640 1.069899
Cr4   Cr    Cr6+3 0.727180 0.669820 0.747360 1.078291
Cr5   Cr    Cr6+3 0.615040 0.323610 0.249150 1.031321
Cr6   Cr    Cr6+3 0.384960 0.323610 0.750850 1.064809
Cr7   Cr    Cr6+3 0.115040 0.823610 0.249150 1.034209
Cr8   Cr    Cr6+3 0.884960 0.823610 0.750850 1.053205
Cr9   Cr    Cr6+3 0.616720 0.011130 0.250660 1.043027
Cr10  Cr    Cr6+3 0.383280 0.011130 0.749340 1.032461
Cr11  Cr    Cr6+3 0.116720 0.511130 0.250660 1.051528
Cr12  Cr    Cr6+3 0.883280 0.511130 0.749340 1.032361
H1    H     H_    0.632260 0.258526 0.008944 0.123704
H2    H     H_    0.408483 0.045418 0.982130 0.142539
H3    H     H_    0.132764 0.757585 0.008680 0.123695
H4    H     H_    0.908366 0.546184 0.982201 0.142346
H5    H     H_    0.492277 0.352274 0.430577 0.154471
H6    H     H_    0.470072 0.354417 0.558877 0.146692
H7    H     H_    0.993057 0.832230 0.430047 0.162213
H8    H     H_    0.957769 0.836054 0.553304 0.147383
H9    H     H_    0.117991 0.293377 0.610212 0.185285
H10   H     H_    0.106797 0.257355 0.484624 0.159699
H11   H     H_    0.547903 0.761491 0.583049 0.165861
H12   H     H_    0.482451 0.744215 0.472286 0.155804
H13   H     H_    0.694500 0.137121 0.470896 0.110885
H14   H     H_    0.337914 0.809025 0.578426 0.149846
H15   H     H_    0.197016 0.638287 0.472346 0.097556
H16   H     H_    0.837939 0.309770 0.576475 0.150301
H17   H     H_    0.822434 0.691531 0.597857 0.154291
H18   H     H_    0.130670 0.066316 0.391314 0.185581
H19   H     H_    0.320789 0.188394 0.596641 0.154538
H20   H     H_    0.672625 0.609402 0.376376 0.141010
H21   H     H_    0.872380 0.563346 0.509247 0.133453
H22   H     H_    0.021747 0.097081 0.451972 0.189668
H23   H     H_    0.355732 0.048202 0.506938 0.131790
H24   H     H_    0.554650 0.640709 0.414612 0.156866
H25   H     H_    0.857864 0.609159 0.382305 0.119979
H26   H     H_    0.007965 0.030539 0.575617 0.123723
H27   H     H_    0.329541 0.087977 0.380722 0.097350
H28   H     H_    0.515198 0.560014 0.532231 0.103686
H29   H     H_    0.539448 0.947033 0.033862 0.151137
H30   H     H_    0.607979 0.065452 0.919032 0.128725
H31   H     H_    0.039082 0.446957 0.033972 0.151182
H32   H     H_    0.107852 0.564511 0.918955 0.134657
H33   H     H_    0.826852 0.077681 0.054218 0.168224
H34   H     H_    0.144617 0.992377 0.929909 0.161392
H35   H     H_    0.326820 0.577812 0.054186 0.168325
H36   H     H_    0.644694 0.492586 0.929980 0.160338
H37   H     H_    0.627273 0.799080 0.874230 0.163261
H38   H     H_    0.375221 0.854739 0.132654 0.156005
H39   H     H_    0.127246 0.299299 0.874199 0.175365
H40   H     H_    0.875264 0.354532 0.132658 0.149932
H41   H     H_    0.829852 0.053256 0.928143 0.166646
H42   H     H_    0.139970 0.979673 0.055626 0.153276
H43   H     H_    0.329772 0.553456 0.928087 0.167108
H44   H     H_    0.640106 0.480005 0.055690 0.153318
H45   H     H_    0.062938 0.156264 0.943294 0.141952
H46   H     H_    0.969409 0.254326 0.071238 0.125233
H47   H     H_    0.562947 0.656052 0.943366 0.141697
H48   H     H_    0.469505 0.754934 0.071243 0.126501
H49   H     H_    0.075426 0.147178 0.074748 0.117541
H50   H     H_    0.958418 0.217180 0.940405 0.147280
H51   H     H_    0.575365 0.647226 0.074824 0.116573
H52   H     H_    0.458599 0.717833 0.940388 0.147090
H53   H     H_    0.665970 0.763676 0.134768 0.156114
H54   H     H_    0.356850 0.778417 0.873292 0.145687
H55   H     H_    0.165981 0.263688 0.134717 0.161322
H56   H     H_    0.856791 0.278350 0.873292 0.144583
O1    O     O_R   0.788190 0.043000 0.172520 -0.495713
O2    O     O_R   0.211810 0.043000 0.827480 -0.507001
O3    O     O_R   0.288190 0.543000 0.172520 -0.495641
O4    O     O_R   0.711810 0.543000 0.827480 -0.506713
O5    O     O_R   0.556550 0.253260 0.323480 -0.487560
O6    O     O_R   0.443450 0.253260 0.676520 -0.491929
O7    O     O_R   0.056550 0.753260 0.323480 -0.486045
O8    O     O_R   0.943450 0.753260 0.676520 -0.502824
O9    O     O_R   0.545830 0.051610 0.330160 -0.509025
O10   O     O_R   0.454170 0.051610 0.669840 -0.518412
O11   O     O_R   0.045830 0.551610 0.330160 -0.513674
O12   O     O_R   0.954170 0.551610 0.669840 -0.518223
O13   O     O_R   0.681920 0.959720 0.327070 -0.495746
O14   O     O_R   0.318080 0.959720 0.672930 -0.512696
O15   O     O_R   0.181920 0.459720 0.327070 -0.490329
O16   O     O_R   0.818080 0.459720 0.672930 -0.513152
O17   O     O_3   0.668190 0.168190 0.250820 -0.304156
O18   O     O_3   0.331810 0.168190 0.749180 -0.281247
O19   O     O_3   0.168190 0.668190 0.250820 -0.321968
O20   O     O_3   0.831810 0.668190 0.749180 -0.282601
O21   O     O_R   0.766240 0.292300 0.176860 -0.517491
O22   O     O_R   0.233760 0.292300 0.823140 -0.490834
O23   O     O_R   0.266240 0.792300 0.176860 -0.512119
O24   O     O_R   0.733760 0.792300 0.823140 -0.500215
O25   O     O_R   0.670310 0.409160 0.168720 -0.530848
O26   O     O_R   0.329690 0.409160 0.831280 -0.503352
O27   O     O_R   0.170310 0.909160 0.168720 -0.527265
O28   O     O_R   0.829690 0.909160 0.831280 -0.503319
O29   O     O_R   0.556160 0.251900 0.173380 -0.487359
O30   O     O_R   0.443840 0.251900 0.826620 -0.480816
O31   O     O_R   0.056160 0.751900 0.173380 -0.481491
O32   O     O_R   0.943840 0.751900 0.826620 -0.479379
O33   O     O_R   0.545410 0.050140 0.168240 -0.513000
O34   O     O_R   0.454590 0.050140 0.831760 -0.512061
O35   O     O_R   0.045410 0.550140 0.168240 -0.509974
O36   O     O_R   0.954590 0.550140 0.831760 -0.508125
O37   O     O_R   0.681530 0.958350 0.176970 -0.525406
O38   O     O_R   0.318470 0.958350 0.823030 -0.513270
O39   O     O_R   0.181530 0.458350 0.176970 -0.522239
O40   O     O_R   0.818470 0.458350 0.823030 -0.513182
O41   O     O_R   0.788610 0.044480 0.334450 -0.477641
O42   O     O_R   0.211390 0.044480 0.665550 -0.521256
O43   O     O_R   0.288610 0.544480 0.334450 -0.468235
O44   O     O_R   0.711390 0.544480 0.665550 -0.504741
O45   O     O_R   0.766630 0.293670 0.326970 -0.500826
O46   O     O_R   0.233370 0.293670 0.673030 -0.496977
O47   O     O_R   0.266630 0.793670 0.326970 -0.486925
O48   O     O_R   0.733370 0.793670 0.673030 -0.466643
O49   O     O_R   0.670730 0.410640 0.330640 -0.518365
O50   O     O_R   0.329270 0.410640 0.669360 -0.517143
O51   O     O_R   0.170730 0.910640 0.330640 -0.532726
O52   O     O_R   0.829270 0.910640 0.669360 -0.527353
C141  C     C_2   0.582205 0.963552 0.653289 0.256339
H57   H     H_    0.593959 0.050642 0.676604 0.132896
O53   O     O_2   0.595568 0.872639 0.688486 -0.514000
C142  C     C_2   0.448737 0.911656 0.374880 0.270161
H58   H     H_    0.419409 0.984108 0.349339 0.100824
O54   O     O_2   0.453644 0.815816 0.343389 -0.502247
C143  C     C_2   0.090240 0.495482 0.681979 0.270204
H59   H     H_    0.089913 0.586437 0.703179 0.138081
O55   O     O_2   0.103801 0.411766 0.722955 -0.523316
C144  C     C_2   0.012555 0.369133 0.400867 0.290416
H60   H     H_    0.962222 0.408621 0.385295 0.123124
O56   O     O_2   0.034163 0.281763 0.368355 -0.527460
C145  C     C_1   0.713708 0.111682 0.609888 0.168779
N1    N     N_1   0.703083 0.182525 0.653506 -0.324231
C146  C     C_1   0.335327 0.740035 0.447338 0.225265
N2    N     N_1   0.371998 0.665517 0.426301 -0.247953
C147  C     C_1   0.219911 0.610319 0.612156 0.181745
N3    N     N_1   0.210520 0.676825 0.658338 -0.326724
C148  C     C_1   0.849066 0.262501 0.441422 0.202816
N4    N     N_1   0.889204 0.195019 0.418771 -0.272636
C149  C     C_1   0.790781 0.785837 0.321808 0.237782
N5    N     N_1   0.784941 0.792203 0.260350 -0.247751
C150  C     C_1   0.097641 0.900005 0.654145 0.230537
N6    N     N_1   0.087796 0.863272 0.711098 -0.282025
C151  C     C_1   0.281070 0.279413 0.321007 0.250460
N7    N     N_1   0.276925 0.287166 0.259491 -0.248978
C152  C     C_1   0.592285 0.435539 0.627082 0.222753
N8    N     N_1   0.573315 0.398338 0.681281 -0.268358
C153  C     C_1   0.492251 0.393682 0.949746 0.213612
N9    N     N_1   0.477699 0.489100 0.928767 -0.352990
C154  C     C_1   0.417792 0.257463 0.082423 0.222743
N10   N     N_1   0.376801 0.296645 0.120585 -0.269665
C155  C     C_1   0.992949 0.893579 0.949247 0.214938
N11   N     N_1   0.978507 0.988876 0.927995 -0.353038
C156  C     C_1   0.918301 0.758746 0.082151 0.224333
N12   N     N_1   0.877458 0.798608 0.120222 -0.265619

loop_
_geom_bond_atom_site_label_1
_geom_bond_atom_site_label_2
_ccdc_geom_bond_type
Cr11  O19   S    
C124  O12   A    
C133  C137  S    
C95   C147  S    
C55   C59   A    
Cr1   O41   S    
C99   C103  A    
C154  N10   T    
C73   C93   A    
C136  C140  S    
C128  O16   A    
Cr6   O26   S    
C75   C95   A    
C135  C139  S    
C84   C112  A    
Cr3   O43   S    
C4    O24   A    
C79   C99   A    
Cr12  O36   S    
Cr5   O25   S    
C5    C6    S    
C100  C104  A    
C131  C155  S    
C9    C13   A    
C131  C140  S    
C3    O27   A    
C11   C15   A    
C50   C90   S    
C66   C72   A    
C12   C16   A    
C1    O25   A    
C88   H16   S    
C87   C115  A    
C80   C84   A    
C59   C60   A    
C38   H52   S    
C8    C135  S    
C101  C105  A    
C130  C134  S    
Cr8   O52   S    
C70   H10   S    
Cr5   O49   S    
C56   C123  S    
C105  H25   S    
C94   C146  S    
C98   C102  A    
Cr5   O17   S    
C121  O5    A    
C109  C149  S    
C78   C82   A    
C11   C27   A    
C16   C20   A    
Cr9   O9    S    
Cr6   O6    S    
C71   H11   S    
C129  C133  S    
C40   H50   S    
Cr11  O11   S    
C3    O23   A    
C26   H42   S    
Cr1   O1    S    
C141  O53   D    
C107  H27   S    
Cr8   O32   S    
Cr3   O19   S    
C39   C43   A    
C5    C137  S    
C118  O50   A    
C54   C61   A    
C7    H31   S    
C29   C35   A    
C24   H36   S    
C8    C140  S    
C85   H13   S    
C125  O41   A    
C97   H17   S    
C76   C96   A    
C89   O37   A    
C69   C70   A    
C45   O29   A    
Cr11  O35   S    
C73   C77   A    
C103  C107  A    
C67   C69   A    
C75   C79   A    
C47   O35   A    
C6    C138  S    
C100  H20   S    
C101  H21   S    
Cr8   O20   S    
C63   H7    S    
C29   H37   S    
C21   C49   A    
C92   O40   A    
C35   H47   S    
C7    C8    S    
C104  H24   S    
C132  C139  S    
C21   C25   A    
C6    H30   S    
Cr7   O7    S    
C53   C122  S    
C18   C42   A    
C141  H57   S    
C114  C126  S    
Cr2   O22   S    
C144  O56   D    
C67   C143  S    
C59   C67   A    
C85   C93   A    
Cr6   O30   S    
C142  H58   S    
C87   C95   A    
C130  C154  S    
C77   C97   A    
C84   C116  A    
Cr3   O47   S    
C147  N3    T    
C4    O28   A    
C1    C12   S    
C2    C11   S    
Cr8   O8    S    
C20   C44   A    
C111  C151  S    
C87   H15   S    
C48   C140  S    
C83   C115  A    
Cr4   O4    S    
C91   O3    A    
C10   C14   A    
C17   C49   A    
Cr7   O19   S    
C89   O1    A    
C22   H34   S    
C93   C145  S    
C155  N11   T    
C34   H46   S    
C132  C136  S    
C54   C58   A    
C153  N9    T    
C47   O31   A    
C54   C121  S    
C74   C78   A    
C92   O4    A    
C81   C113  A    
C129  C130  S    
Cr10  O38   S    
C105  C109  A    
C107  C111  A    
C65   C141  S    
C24   C28   A    
C143  H59   S    
C15   C31   A    
C125  O13   A    
C16   C32   A    
Cr2   O46   S    
C13   C17   A    
C85   C113  A    
C7    C136  S    
C23   H35   S    
C57   C58   A    
C28   H44   S    
Cr11  O15   S    
C30   H38   S    
C37   C41   A    
C61   C62   A    
Cr6   O50   S    
C2    O22   A    
C63   C64   A    
C98   H18   S    
C40   C44   A    
C56   C60   A    
C150  N6    T    
Cr3   O23   S    
C4    C9    S    
C106  H26   S    
C24   C52   A    
C119  O51   A    
C88   C96   A    
Cr10  O18   S    
C123  O7    A    
C74   C94   A    
C146  N2    T    
C86   H14   S    
C48   O36   A    
C9    C25   A    
C15   C19   A    
Cr4   O48   S    
C12   C28   A    
C13   C29   A    
C6    C133  S    
Cr11  O39   S    
Cr1   O21   S    
C31   H39   S    
C32   H40   S    
Cr9   O33   S    
C123  O11   A    
C51   C91   S    
C2    O26   A    
C148  N4    T    
C62   H6    S    
C112  C152  S    
C22   C50   A    
C73   C120  S    
Cr10  O14   S    
C75   C118  S    
C121  O9    A    
C66   C142  S    
C5    H29   S    
C48   O32   A    
C19   C43   A    
Cr2   O18   S    
C91   O39   A    
C43   H55   S    
C76   C80   A    
C156  N12   T    
C53   C57   A    
Cr6   O18   S    
C108  C112  A    
C30   C36   A    
C151  N7    T    
C61   H5    S    
C152  N8    T    
C77   C81   A    
C64   H8    S    
C103  H23   S    
C72   H12   S    
C128  O44   A    
Cr5   O5    S    
C34   C40   A    
C81   C109  A    
Cr7   O31   S    
Cr12  O16   S    
C83   C111  A    
C52   C92   S    
C27   H43   S    
C46   O34   A    
C131  C132  S    
C104  C108  A    
C25   H41   S    
C18   C50   A    
C55   C124  S    
Cr9   O37   S    
C96   C148  S    
Cr4   O24   S    
C36   H48   S    
C57   C65   A    
C119  O47   A    
C21   H33   S    
C76   C117  S    
C132  C156  S    
C126  O42   A    
Cr1   O45   S    
C36   C38   A    
C120  O52   A    
C79   C83   A    
C143  O55   D    
C134  H2    S    
C90   O38   A    
C42   H54   S    
Cr12  O40   S    
C122  O6    A    
Cr10  O34   S    
C99   H19   S    
C60   C68   A    
C142  O54   D    
C22   C26   A    
C47   C139  S    
C144  H60   S    
C130  C137  S    
C32   C34   A    
Cr7   O27   S    
Cr2   O42   S    
Cr9   O17   S    
C14   C18   A    
C135  H3    S    
C74   C119  S    
C33   C39   A    
C133  H1    S    
C82   C110  A    
C35   C37   A    
C69   H9    S    
C38   C42   A    
C131  C135  S    
C136  H4    S    
C113  C125  S    
C44   H56   S    
C115  C127  S    
C108  H28   S    
C86   C94   A    
Cr12  O20   S    
C58   C66   A    
C129  C138  S    
Cr5   O29   S    
C78   C98   A    
C31   C33   A    
C23   C27   A    
C118  O46   A    
C127  O15   A    
C46   C138  S    
C10   C26   A    
Cr4   O44   S    
C129  C153  S    
C80   C100  A    
Cr7   O51   S    
Cr9   O13   S    
C14   C30   A    
Cr1   O17   S    
C5    C134  S    
C117  O45   A    
C82   C114  A    
C90   O2    A    
Cr3   O3    S    
C110  C150  S    
C149  N5    T    
C65   C71   A    
Cr8   O28   S    
C88   C116  A    
C120  O48   A    
C68   C144  S    
C1    O21   A    
C117  O49   A    
C53   C62   A    
C23   C51   A    
C33   H45   S    
C55   C64   A    
C45   C137  S    
C145  N1    T    
C37   H51   S    
C56   C63   A    
C68   C70   A    
Cr2   O2    S    
C45   O33   A    
Cr10  O10   S    
C124  O8    A    
C122  O10   A    
C49   C89   S    
C134  C138  S    
C126  O14   A    
C102  H22   S    
C86   C114  A    
C39   H49   S    
C20   C52   A    
C3    C10   S    
C7    C139  S    
C8    H32   S    
Cr12  O12   S    
C102  C106  A    
C127  O43   A    
C46   O30   A    
C41   H53   S    
C17   C41   A    
C19   C51   A    
C71   C72   A    
C106  C110  A    
C116  C128  S    
Cr4   O20   S    
C97   C101  A    
