data_mof_unit_31617.cif
_audit_creation_date              2012-12-10T19:44:59-0500
_audit_creation_method            fapswitch 2.2
_symmetry_space_group_name_H-M    P1
_symmetry_Int_Tables_number       1
_space_group_crystal_system       triclinic
_cell_length_a                    15.081986
_cell_length_b                    10.951744
_cell_length_c                    13.674834
_cell_angle_alpha                 91.211833
_cell_angle_beta                  90.098118
_cell_angle_gamma                 89.078612
_cell_volume                      2257.92839941

loop_
_atom_site_label
_atom_site_type_symbol
_atom_type_description
_atom_site_fract_x
_atom_site_fract_y
_atom_site_fract_z
_atom_type_partial_charge
C1    C     C_R   0.503690 0.262004 0.498996 0.831484
C2    C     C_R   0.496711 0.737999 0.500984 0.829655
C3    C     C_R   0.046579 0.314230 0.595533 -0.121061
C4    C     C_R   0.953442 0.686490 0.404990 -0.118685
C5    C     C_R   0.372869 0.207443 0.190289 -0.320684
C6    C     C_R   0.639135 0.790213 0.802125 -0.248819
C7    C     C_R   0.384726 0.164862 0.285650 0.033401
C8    C     C_R   0.623427 0.834933 0.708199 0.001827
C9    C     C_R   0.469457 0.119628 0.314685 0.016155
C10   C     C_R   0.537171 0.879068 0.683694 0.011685
C11   C     C_R   0.540574 0.118435 0.246922 -0.124361
C12   C     C_R   0.468542 0.876802 0.754516 -0.089823
C13   C     C_R   0.525361 0.157479 0.151194 -0.188615
C14   C     C_R   0.487718 0.835677 0.848953 -0.224823
C15   C     C_R   0.442212 0.199735 0.120888 0.525382
C16   C     C_R   0.573620 0.795006 0.874080 0.526031
C17   C     C_R   0.472451 0.934614 0.415523 -0.049741
C18   C     C_R   0.528602 0.065409 0.584449 -0.054029
C19   C     C_R   0.493949 0.872131 0.502465 -0.132999
C20   C     C_R   0.507193 0.127845 0.497446 -0.130503
C21   C     C_R   0.519489 0.938648 0.587846 -0.016636
C22   C     C_R   0.482881 0.061099 0.411726 -0.015552
C23   C     C_R   0.329062 0.497969 0.500167 0.850794
C24   C     C_R   0.670943 0.502166 0.499834 0.848492
C25   C     C_R   0.569689 0.449384 0.792211 0.016345
C26   C     C_R   0.430318 0.550697 0.207820 0.013574
C27   C     C_R   0.429765 0.549540 0.793527 0.029241
C28   C     C_R   0.570307 0.450718 0.206481 0.029107
C29   C     C_R   0.426113 0.548508 0.896981 -0.102349
C30   C     C_R   0.574035 0.452068 0.103052 -0.069890
C31   C     C_R   0.499706 0.499554 0.948271 0.163307
C32   C     C_R   0.500497 0.501230 0.051770 0.157758
C33   C     C_R   0.572551 0.448874 0.895577 -0.066744
C34   C     C_R   0.427514 0.551444 0.104466 -0.116310
C35   C     C_R   0.352177 0.597793 0.949534 -0.082560
C36   C     C_R   0.647823 0.402372 0.050507 -0.058172
C37   C     C_R   0.353841 0.601138 0.053542 -0.070787
C38   C     C_R   0.646157 0.398970 0.946506 -0.026873
C39   C     C_R   0.812244 0.595709 0.449659 -0.141031
C40   C     C_R   0.187771 0.404415 0.550137 -0.133980
C41   C     C_R   0.767331 0.503838 0.498739 -0.227845
C42   C     C_R   0.232688 0.496464 0.501296 -0.227764
C43   C     C_R   0.813171 0.405633 0.539969 0.384039
C44   C     C_R   0.186882 0.594982 0.460479 0.383051
C45   C     C_R   0.906362 0.407559 0.548216 -0.075488
C46   C     C_R   0.093676 0.593173 0.452304 -0.076298
C47   C     C_R   0.953048 0.500755 0.499977 0.022412
C48   C     C_R   0.046978 0.499906 0.500453 0.021538
C49   C     C_R   0.905955 0.594747 0.450922 0.059174
C50   C     C_R   0.094065 0.405752 0.549327 0.059523
C51   C     C_R   0.954344 0.316917 0.599933 -0.073495
C52   C     C_R   0.045689 0.683961 0.400748 -0.073795
Cu1   Cu    Cu3+1 0.500010 0.499980 0.597420 0.973586
Cu2   Cu    Cu3+1 0.499990 0.500020 0.402580 0.973042
H1    H     H_    0.623368 0.410289 0.749312 0.176153
H2    H     H_    0.376606 0.589693 0.250732 0.179526
H3    H     H_    0.377663 0.592187 0.751542 0.130303
H4    H     H_    0.622413 0.408038 0.248444 0.127729
H5    H     H_    0.080821 0.240247 0.631302 0.227790
H6    H     H_    0.919194 0.760580 0.369364 0.228877
H7    H     H_    0.308450 0.244150 0.170551 0.127670
H8    H     H_    0.704426 0.755403 0.821304 0.157711
H9    H     H_    0.578822 0.154634 0.098344 0.216866
H10   H     H_    0.435232 0.833847 0.902624 0.201817
N1    N     N_R   0.499960 0.499900 0.743810 -0.191523
N2    N     N_R   0.500040 0.500100 0.256190 -0.190285
O1    O     O_R   0.500000 0.319630 0.582270 -0.565405
O2    O     O_R   0.500000 0.680370 0.417730 -0.566381
O3    O     O_R   0.499990 0.319660 0.417730 -0.594524
O4    O     O_R   0.500010 0.680340 0.582270 -0.595919
O5    O     O_R   0.370260 0.499960 0.582280 -0.608480
O6    O     O_R   0.629740 0.500040 0.417720 -0.608379
O7    O     O_R   0.370250 0.499990 0.417740 -0.568003
O8    O     O_R   0.629750 0.500010 0.582260 -0.567595
C53   C     C_2   0.759211 0.687977 0.394850 0.412703
H11   H     H_    0.700483 0.729559 0.427827 0.097140
O9    O     O_2   0.776373 0.710674 0.309990 -0.527529
C54   C     C_2   0.240824 0.311343 0.604036 0.407911
H12   H     H_    0.298821 0.268992 0.570078 0.101380
O10   O     O_2   0.224536 0.288752 0.689131 -0.545424
C55   C     C_2   0.435431 0.871195 0.327260 0.460538
H13   H     H_    0.466063 0.881519 0.256241 0.036666
O11   O     O_2   0.368160 0.811561 0.332878 -0.495486
C56   C     C_2   0.564908 0.129090 0.672924 0.456481
H14   H     H_    0.533935 0.118433 0.743726 0.068688
O12   O     O_2   0.631997 0.189175 0.667755 -0.494664
C57   C     C_2   0.271117 0.636970 0.895240 0.398626
H15   H     H_    0.248495 0.583518 0.832592 0.065774
O13   O     O_2   0.229921 0.729941 0.918184 -0.432423
C58   C     C_2   0.728609 0.362265 0.104846 0.388596
H16   H     H_    0.751868 0.415934 0.167084 0.074522
O14   O     O_2   0.768687 0.268150 0.082548 -0.432648
C59   C     C_2   0.276846 0.650429 0.109891 0.454631
H17   H     H_    0.238177 0.589919 0.154243 0.020324
O15   O     O_2   0.259456 0.759679 0.111163 -0.459421
C60   C     C_2   0.723131 0.349482 0.890176 0.448721
H18   H     H_    0.761537 0.409748 0.845332 0.023842
O16   O     O_2   0.740782 0.240314 0.889430 -0.450557
O17   O     O_3   0.765721 0.303949 0.565295 -0.579071
C61   C     C_3   0.762379 0.223434 0.483308 -0.186160
H19   H     H_    0.829964 0.193995 0.459037 0.173888
H20   H     H_    0.725324 0.265097 0.421630 0.132806
H21   H     H_    0.726631 0.140252 0.504073 0.232280
O18   O     O_3   0.234395 0.696684 0.435306 -0.578239
C62   C     C_3   0.237898 0.776957 0.517440 -0.189723
H22   H     H_    0.275201 0.735146 0.578874 0.132450
H23   H     H_    0.170357 0.806147 0.542047 0.172640
H24   H     H_    0.273469 0.860343 0.496726 0.230233
C63   C     C_2   0.911587 0.229367 0.666178 0.481870
H25   H     H_    0.851546 0.254984 0.705507 0.148993
O19   O     O_2   0.944376 0.128363 0.679494 -0.505927
C64   C     C_2   0.088450 0.771785 0.334743 0.483597
H26   H     H_    0.148490 0.746330 0.295349 0.148716
O20   O     O_2   0.055652 0.872842 0.321683 -0.504695
O21   O     O_3   0.435544 0.236659 0.024051 -0.599549
C65   C     C_3   0.347807 0.241534 0.988475 -0.243312
H27   H     H_    0.312098 0.323584 0.018387 0.146813
H28   H     H_    0.311620 0.156190 0.003588 0.199665
H29   H     H_    0.350213 0.250780 0.907888 0.214745
O22   O     O_3   0.595278 0.750856 0.965803 -0.586354
C66   C     C_3   0.560081 0.826553 0.041618 -0.248617
H30   H     H_    0.489565 0.805077 0.055332 0.163344
H31   H     H_    0.567676 0.925449 0.026699 0.179546
H32   H     H_    0.597059 0.807360 0.109938 0.213014
C67   C     C_2   0.305931 0.168136 0.350976 0.379202
H33   H     H_    0.247576 0.221243 0.330749 0.073572
O23   O     O_2   0.303558 0.110054 0.426042 -0.574954
C68   C     C_2   0.699943 0.835401 0.639838 0.376549
H34   H     H_    0.759541 0.783024 0.656776 0.074301
O24   O     O_2   0.699108 0.895833 0.565913 -0.574748
C69   C     C_2   0.630630 0.073320 0.274489 0.345849
H35   H     H_    0.644781 0.044941 0.348441 0.089814
O25   O     O_2   0.690627 0.067140 0.214652 -0.474745
C70   C     C_2   0.376898 0.919510 0.731131 0.358405
H36   H     H_    0.359498 0.947219 0.657815 0.079357
O26   O     O_2   0.319268 0.924540 0.793758 -0.482788

loop_
_geom_bond_atom_site_label_1
_geom_bond_atom_site_label_2
_ccdc_geom_bond_type
C57   H15   S    
C59   H17   S    
C27   C29   A    
C34   C37   A    
Cu1   O8    S    
C68   H34   S    
C64   O20   D    
C55   H13   S    
C44   O18   S    
C47   C49   A    
Cu1   Cu2   S    
C62   H23   S    
C23   C42   S    
C4    C52   A    
C35   C37   A    
C56   O12   D    
C2    O2    A    
C16   O22   S    
C54   O10   D    
C9    C22   S    
Cu2   O2    S    
C45   C51   A    
O21   C65   S    
C18   C21   A    
C46   C52   A    
C15   O21   S    
C65   H27   S    
O18   C62   S    
C66   H32   S    
C17   C19   A    
C35   C57   S    
C8    C68   S    
C47   C48   A    
C60   O16   D    
C18   C56   S    
C31   C33   A    
C39   C53   S    
Cu1   N1    S    
C17   C55   S    
C40   C42   A    
C51   C63   S    
C12   C70   S    
C24   C41   S    
C41   C43   A    
C42   C44   A    
C23   O7    A    
Cu1   O4    S    
C64   H26   S    
C55   O11   D    
C3    C50   A    
C44   C46   A    
C45   C47   A    
C10   C21   S    
C62   H24   S    
C46   C48   A    
C5    C15   A    
C37   C59   S    
C26   N2    A    
C23   O5    A    
C25   N1    A    
C56   H14   S    
C39   C41   A    
C27   H3    S    
C5    C7    A    
C3    C51   A    
C54   H12   S    
C6    C8    A    
C61   H21   S    
C1    O3    A    
C68   O24   D    
C32   C34   A    
C28   N2    A    
C53   H11   S    
C27   N1    A    
Cu2   O7    S    
C9    C11   A    
C58   O14   D    
O17   C61   S    
C13   H9    S    
C14   H10   S    
C60   H18   S    
C4    H6    S    
C61   H20   S    
C5    H7    S    
C7    C67   S    
C48   C50   A    
C53   O9    D    
C66   H30   S    
C10   C12   A    
C40   C54   S    
C8    C10   A    
C39   C49   A    
C12   C14   A    
C13   C15   A    
C67   H33   S    
C14   C16   A    
C69   H35   S    
Cu1   O5    S    
O22   C66   S    
C24   O6    A    
C36   C58   S    
C7    C9    A    
C1    C20   S    
C26   C34   A    
C2    C19   S    
C31   C32   A    
C25   H1    S    
C20   C22   A    
C69   O25   D    
C11   C69   S    
C70   O26   D    
C70   H36   S    
Cu2   N2    S    
C28   H4    S    
C62   H22   S    
C29   C35   A    
C17   C22   A    
C65   H29   S    
C30   C36   A    
C4    C49   A    
C6    H8    S    
C63   O19   D    
C43   C45   A    
C63   H25   S    
C43   O17   S    
C36   C38   A    
C30   C32   A    
C11   C13   A    
C24   O8    A    
C58   H16   S    
C59   O15   D    
Cu2   O3    S    
C40   C50   A    
C28   C30   A    
C61   H19   S    
C1    O1    A    
C65   H28   S    
C18   C20   A    
Cu1   O1    S    
C66   H31   S    
C26   H2    S    
C6    C16   A    
Cu2   O6    S    
C29   C31   A    
C38   C60   S    
C67   O23   D    
C57   O13   D    
C52   C64   S    
C33   C38   A    
C2    O4    A    
C25   C33   A    
C19   C21   A    
C3    H5    S    
