data_mof_unit_31988.cif
_audit_creation_date              2012-12-10T19:14:27-0500
_audit_creation_method            fapswitch 2.2
_symmetry_space_group_name_H-M    P1
_symmetry_Int_Tables_number       1
_space_group_crystal_system       triclinic
_cell_length_a                    16.005731
_cell_length_b                    14.783572
_cell_length_c                    10.831929
_cell_angle_alpha                 90.594746
_cell_angle_beta                  90.064618
_cell_angle_gamma                 90.263205
_cell_volume                      2562.90446979

loop_
_atom_site_label
_atom_site_type_symbol
_atom_type_description
_atom_site_fract_x
_atom_site_fract_y
_atom_site_fract_z
_atom_type_partial_charge
C1    C     C_R   0.340976 0.499834 0.500166 0.842959
C2    C     C_R   0.658927 0.500226 0.500264 0.792411
C3    C     C_R   0.954904 0.421186 0.477129 -0.092697
C4    C     C_R   0.042971 0.421147 0.474747 -0.084242
C5    C     C_1   0.822412 0.501937 0.502393 -0.022034
C6    C     C_1   0.177161 0.500757 0.500578 -0.023990
C7    C     C_1   0.252082 0.499824 0.500539 -0.152572
C8    C     C_1   0.747612 0.501048 0.501279 -0.164919
C9    C     C_R   0.532329 0.953333 0.603463 0.353358
C10   C     C_R   0.474945 0.950971 0.393444 0.349644
C11   C     C_R   0.502340 0.902805 0.499366 -0.181924
C12   C     C_R   0.474537 0.047243 0.393795 -0.030633
C13   C     C_R   0.534306 0.049565 0.601368 -0.031077
C14   C     C_R   0.503034 0.097228 0.498265 -0.200502
C15   C     C_1   0.501000 0.802500 0.500048 0.124082
C16   C     C_1   0.501219 0.197567 0.499027 0.164772
C17   C     C_R   0.501305 0.499429 0.262130 0.892848
C18   C     C_R   0.501386 0.500553 0.738000 0.797642
C19   C     C_R   0.643090 0.570871 0.130064 -0.194213
C20   C     C_R   0.636342 0.586302 0.874170 -0.206301
C21   C     C_R   0.708390 0.613703 0.067958 0.020365
C22   C     C_R   0.703969 0.623956 0.939095 0.013299
C23   C     C_R   0.569970 0.542249 0.936153 0.037377
C24   C     C_R   0.572237 0.537548 0.065864 -0.008902
C25   C     C_R   0.504462 0.497759 0.128628 -0.209494
C26   C     C_R   0.501915 0.501964 0.871820 -0.225318
C27   C     C_R   0.437301 0.457653 0.065166 0.363385
C28   C     C_R   0.435394 0.459752 0.935844 0.271144
C29   C     C_R   0.956686 0.583647 0.526084 0.386292
C30   C     C_R   0.043967 0.583488 0.525306 0.374082
C31   C     C_R   0.912131 0.502259 0.503529 -0.107982
C32   C     C_R   0.087284 0.502078 0.499886 -0.107547
Cu1   Cu    Cu3+1 0.500000 0.589220 0.500000 0.978433
Cu2   Cu    Cu3+1 0.500000 0.410780 0.500000 0.999086
H1    H     H_    0.648474 0.564115 0.229163 0.138308
H2    H     H_    0.636892 0.592237 0.774823 0.154431
N1    N     N_1   0.500000 0.276710 0.500000 -0.151682
N2    N     N_1   0.500000 0.723290 0.500000 -0.154649
O1    O     O_R   0.380310 0.575320 0.500020 -0.571599
O2    O     O_R   0.619690 0.575320 0.499980 -0.585271
O3    O     O_R   0.380310 0.424640 0.499960 -0.555427
O4    O     O_R   0.619690 0.424640 0.500040 -0.570650
O5    O     O_R   0.500000 0.575360 0.319640 -0.581553
O6    O     O_R   0.500000 0.575360 0.680360 -0.580513
O7    O     O_R   0.500000 0.424670 0.319580 -0.554180
O8    O     O_R   0.500000 0.424670 0.680420 -0.570826
O9    O     O_3   0.373080 0.419801 0.133482 -0.734027
H3    H     H_    0.329330 0.394664 0.078253 0.361827
O10   O     O_3   0.367240 0.421471 0.875744 -0.759543
H4    H     H_    0.361145 0.447309 0.792410 0.328379
C33   C     C_R   0.780618 0.647957 0.139425 0.101386
C34   C     C_R   0.790056 0.740993 0.162744 -0.121293
C35   C     C_R   0.862089 0.773745 0.221478 -0.142299
C36   C     C_R   0.925323 0.713990 0.255486 -0.053428
C37   C     C_R   0.916080 0.621267 0.232422 -0.122855
C38   C     C_R   0.843378 0.588028 0.176350 -0.180675
H5    H     H_    0.742299 0.787973 0.133883 0.137744
H6    H     H_    0.869381 0.845536 0.239151 0.131011
H7    H     H_    0.981506 0.739493 0.299620 0.162163
H8    H     H_    0.965418 0.575125 0.257499 0.126671
H9    H     H_    0.837188 0.516141 0.157953 0.126764
C39   C     C_R   0.767324 0.677533 0.871673 0.085168
C40   C     C_R   0.851981 0.652809 0.872859 -0.152671
C41   C     C_R   0.912172 0.709371 0.820419 -0.064372
C42   C     C_R   0.888137 0.789937 0.764292 -0.047023
C43   C     C_R   0.803755 0.813466 0.759130 -0.149726
C44   C     C_R   0.743495 0.757553 0.812680 -0.144110
H10   H     H_    0.871451 0.590635 0.916015 0.127433
H11   H     H_    0.977434 0.690610 0.822857 0.151005
H12   H     H_    0.934815 0.833537 0.723476 0.146217
H13   H     H_    0.785125 0.875546 0.714940 0.136628
H14   H     H_    0.678584 0.777761 0.811197 0.157304
O11   O     O_3   0.083811 0.665254 0.548850 -0.702755
H15   H     H_    0.145094 0.658537 0.543717 0.327543
O12   O     O_3   0.917989 0.666129 0.545179 -0.700346
H16   H     H_    0.856571 0.659673 0.541356 0.334689
C45   C     C_R   0.907105 0.337423 0.446559 0.164005
C46   C     C_R   0.906447 0.303153 0.325175 -0.139264
C47   C     C_R   0.859485 0.225890 0.295674 -0.141500
C48   C     C_R   0.812856 0.182596 0.386957 -0.112444
C49   C     C_R   0.813311 0.216357 0.507961 -0.133369
C50   C     C_R   0.860293 0.293484 0.537916 -0.142399
H17   H     H_    0.941704 0.336714 0.253526 0.116975
H18   H     H_    0.858938 0.199812 0.201936 0.124229
H19   H     H_    0.776284 0.122992 0.363918 0.123667
H20   H     H_    0.777107 0.182901 0.578432 0.134100
H21   H     H_    0.859970 0.319261 0.631882 0.123694
C51   C     C_R   0.088831 0.336251 0.446715 0.159091
C52   C     C_R   0.086088 0.263648 0.529194 -0.126748
C53   C     C_R   0.129461 0.183955 0.502482 -0.134228
C54   C     C_R   0.175826 0.176380 0.393623 -0.104843
C55   C     C_R   0.178834 0.248462 0.311216 -0.119082
C56   C     C_R   0.135401 0.328123 0.337402 -0.143606
H22   H     H_    0.050590 0.268959 0.614008 0.122449
H23   H     H_    0.127195 0.128098 0.566210 0.132266
H24   H     H_    0.209241 0.114617 0.373185 0.121478
H25   H     H_    0.214614 0.242743 0.226915 0.141831
H26   H     H_    0.137895 0.383421 0.272662 0.132509
C57   C     C_R   0.574574 0.100398 0.705274 0.180389
C58   C     C_R   0.658300 0.083074 0.736422 -0.098189
C59   C     C_R   0.699382 0.136698 0.824849 -0.169981
C60   C     C_R   0.657945 0.209199 0.880939 -0.124270
C61   C     C_R   0.574819 0.226861 0.850676 -0.116634
C62   C     C_R   0.532433 0.171138 0.766399 -0.118880
H27   H     H_    0.692481 0.029690 0.689830 0.130553
H28   H     H_    0.764001 0.123390 0.847603 0.126018
H29   H     H_    0.690408 0.252121 0.947020 0.123925
H30   H     H_    0.543434 0.284620 0.890881 0.135360
H31   H     H_    0.467670 0.185355 0.745399 0.134685
C63   C     C_R   0.445698 0.095659 0.281630 0.175952
C64   C     C_R   0.366490 0.077518 0.230508 -0.072962
C65   C     C_R   0.338886 0.125023 0.127294 -0.182040
C66   C     C_R   0.389098 0.192472 0.076172 -0.093786
C67   C     C_R   0.467566 0.211320 0.126946 -0.063071
C68   C     C_R   0.496746 0.161648 0.226761 -0.141057
H32   H     H_    0.325863 0.027219 0.271125 0.143733
H33   H     H_    0.277921 0.110604 0.088291 0.132264
H34   H     H_    0.367087 0.230395 0.997727 0.154541
H35   H     H_    0.505824 0.264933 0.090152 0.125435
H36   H     H_    0.558638 0.175935 0.262723 0.122253
O13   O     O_3   0.560015 0.911908 0.710035 -0.738355
H37   H     H_    0.553345 0.845570 0.703534 0.326711
O14   O     O_3   0.449620 0.907056 0.285972 -0.729398
H38   H     H_    0.454963 0.840817 0.293660 0.337969

loop_
_geom_bond_atom_site_label_1
_geom_bond_atom_site_label_2
_ccdc_geom_bond_type
C6    C32   S    
C37   C38   A    
C59   C60   A    
Cu2   N1    S    
O11   H15   S    
C64   C65   A    
Cu2   O4    S    
C12   C63   S    
C67   C68   A    
O14   H38   S    
C35   C36   A    
C58   H27   S    
C48   H19   S    
C39   C44   A    
C21   C22   A    
C19   C21   A    
C17   O7    A    
C33   C38   A    
C62   H31   S    
C50   H21   S    
C44   H14   S    
C23   C26   A    
C52   H22   S    
C9    C13   A    
C63   C64   A    
C55   C56   A    
C61   C62   A    
C54   H24   S    
C36   C37   A    
C11   C15   S    
C46   H17   S    
C43   H13   S    
C18   C26   S    
C9    O13   S    
C23   C24   A    
C64   H32   S    
Cu2   O8    S    
C29   C30   A    
C49   H20   S    
C16   N1    T    
C66   H34   S    
C57   C62   A    
C13   C14   A    
C47   H18   S    
Cu2   O3    S    
C18   O8    A    
C65   C66   A    
C55   H25   S    
C49   C50   A    
C36   H7    S    
Cu1   O2    S    
C33   C34   A    
Cu1   O5    S    
O9    H3    S    
C53   H23   S    
C24   C25   A    
C10   O14   S    
C10   C11   A    
C54   C55   A    
C30   O11   S    
C46   C47   A    
C45   C46   A    
C40   C41   A    
C13   C57   S    
O12   H16   S    
C17   O5    A    
C15   N2    T    
C39   C40   A    
C18   O6    A    
C22   C39   S    
C28   O10   S    
C57   C58   A    
C20   C23   A    
Cu1   Cu2   S    
C60   H29   S    
Cu2   O7    S    
Cu1   O1    S    
C41   H11   S    
C3    C31   A    
C9    C11   A    
O13   H37   S    
C4    C32   A    
C10   C12   A    
C4    C51   S    
C1    O3    A    
C12   C14   A    
C42   C43   A    
C14   C16   S    
C3    C4    A    
C3    C45   S    
C21   C33   S    
C34   C35   A    
C66   C67   A    
C27   O9    S    
C59   H28   S    
C51   C56   A    
C1    C7    S    
Cu1   O6    S    
C2    C8    S    
C67   H35   S    
C20   C22   A    
C48   C49   A    
C5    C8    T    
C35   H6    S    
C68   H36   S    
C6    C7    T    
C29   O12   S    
C25   C27   A    
C40   H10   S    
C26   C28   A    
Cu1   N2    S    
C17   C25   S    
C41   C42   A    
C19   C24   A    
C29   C31   A    
C19   H1    S    
C30   C32   A    
C53   C54   A    
C65   H33   S    
C45   C50   A    
C2    O4    A    
C56   H26   S    
C58   C59   A    
C43   C44   A    
C60   C61   A    
C34   H5    S    
C1    O1    A    
C47   C48   A    
C20   H2    S    
C2    O2    A    
C51   C52   A    
O10   H4    S    
C27   C28   A    
C38   H9    S    
C61   H30   S    
C52   C53   A    
C37   H8    S    
C63   C68   A    
C42   H12   S    
C5    C31   S    
