data_mof_unit_40472.cif
_audit_creation_date              2012-10-26T19:44:26-0400
_audit_creation_method            fapswitch 2.2
_symmetry_space_group_name_H-M    P1
_symmetry_Int_Tables_number       1
_space_group_crystal_system       triclinic
_cell_length_a                    11.187864
_cell_length_b                    11.711361
_cell_length_c                    10.401838
_cell_angle_alpha                 90.295248
_cell_angle_beta                  90.270905
_cell_angle_gamma                 90.469293
_cell_volume                      1362.82269154

loop_
_atom_site_label
_atom_site_type_symbol
_atom_type_description
_atom_site_fract_x
_atom_site_fract_y
_atom_site_fract_z
_atom_type_partial_charge
C1    C     C_R   0.500330 0.283230 0.499712 0.592613
C2    C     C_R   0.500598 0.716846 0.499803 0.667298
C3    C     C_1   0.502104 0.162013 0.499080 0.087368
C4    C     C_3   0.075354 0.468126 0.638911 0.434416
C5    C     C_3   0.074291 0.437266 0.382487 0.462242
C6    C     C_3   0.932744 0.449704 0.638720 0.491179
C7    C     C_3   0.933066 0.416281 0.391821 0.502204
C8    C     C_1   0.503526 0.059845 0.498824 0.039947
C9    C     C_3   0.072332 0.653093 0.481409 0.200610
C10   C     C_3   0.924094 0.639974 0.482073 0.187065
C11   C     C_3   0.122498 0.523012 0.500210 -0.164007
C12   C     C_3   0.879122 0.502639 0.502814 -0.203638
C13   C     C_1   0.503518 0.838364 0.499228 0.103500
C14   C     C_1   0.504293 0.940528 0.498880 0.031024
C15   C     C_R   0.260145 0.514591 0.500031 0.689424
C16   C     C_R   0.741471 0.495937 0.500663 0.659858
C17   C     C_1   0.500088 0.499997 0.071862 0.209180
C18   C     C_1   0.500022 0.500011 0.928140 0.208492
Cu1   Cu    Cu3+1 0.500000 0.500000 0.625300 1.253554
Cu2   Cu    Cu3+1 0.500000 0.500000 0.374700 1.228595
F1    F     F_    0.124326 0.359326 0.637373 -0.495150
F2    F     F_    0.127977 0.333704 0.411947 -0.479857
F3    F     F_    0.920512 0.332344 0.636540 -0.441806
F4    F     F_    0.926521 0.304630 0.433278 -0.420587
H1    H     H_    0.120306 0.340336 0.865162 0.416590
H2    H     H_    0.243645 0.302119 0.195247 0.365966
H3    H     H_    0.703024 0.338829 0.861990 0.344641
H4    H     H_    0.862620 0.246417 0.097821 0.374560
H5    H     H_    0.309432 0.806639 0.668846 0.366731
H6    H     H_    0.146082 0.738267 0.128609 0.397421
H7    H     H_    0.827178 0.915847 0.631344 0.380952
H8    H     H_    0.687454 0.750587 0.259897 0.369015
N1    N     N_1   0.500000 0.499990 0.186410 -0.153367
N2    N     N_1   0.500000 0.499990 0.813590 -0.146350
O1    O     O_R   0.500000 0.337200 0.605810 -0.489015
O2    O     O_2   0.045956 0.580674 0.877586 -0.115270
O3    O     O_3   0.178576 0.402150 0.883754 -0.407339
O4    O     O_2   0.030338 0.488136 0.123114 -0.080670
O5    O     O_2   0.234136 0.519313 0.184836 -0.236222
O6    O     O_3   0.160774 0.314366 0.164560 -0.377333
O7    O     O_2   0.918470 0.402195 0.900329 -0.189182
O8    O     O_2   0.789632 0.558152 0.834103 -0.189004
O9    O     O_3   0.733211 0.352669 0.773994 -0.446357
O10   O     O_2   0.738000 0.302659 0.295587 -0.247023
O11   O     O_2   0.792566 0.464516 0.165153 -0.211806
O12   O     O_R   0.500000 0.337200 0.394190 -0.498134
O13   O     O_3   0.921810 0.283149 0.156219 -0.351775
O14   O     O_2   0.104944 0.879034 0.569831 -0.113529
O15   O     O_2   0.100880 0.748708 0.741383 -0.166238
O16   O     O_3   0.282359 0.750731 0.602781 -0.527450
O17   O     O_2   0.124328 0.852422 0.339436 -0.132444
O18   O     O_2   0.273775 0.709631 0.338657 -0.266446
O19   O     O_3   0.096835 0.690685 0.186817 -0.379017
O20   O     O_2   0.722352 0.718276 0.603249 -0.284774
O21   O     O_2   0.893360 0.716476 0.738368 -0.168012
O22   O     O_3   0.876563 0.873120 0.568945 -0.373350
O23   O     O_R   0.317690 0.499990 0.605810 -0.422061
O24   O     O_2   0.900063 0.826540 0.321807 -0.126147
O25   O     O_2   0.888684 0.643356 0.215482 -0.168441
O26   O     O_3   0.710995 0.712990 0.341213 -0.491492
O27   O     O_R   0.317690 0.499990 0.394190 -0.447862
O28   O     O_R   0.682310 0.499990 0.605810 -0.421420
O29   O     O_R   0.682310 0.499990 0.394190 -0.428162
O30   O     O_R   0.500000 0.662810 0.605810 -0.470272
O31   O     O_R   0.500000 0.662810 0.394190 -0.464854
O32   O     O_2   0.245012 0.592262 0.794795 -0.211035
S1    S     S_3+6 0.135776 0.517283 0.798631 0.196799
S2    S     S_3+6 0.125784 0.447597 0.212443 0.201662
S3    S     S_3+6 0.845588 0.448746 0.791546 0.192455
S4    S     S_3+6 0.842449 0.372691 0.248861 0.197972
S5    S     S_3+6 0.134311 0.758018 0.603792 0.145337
S6    S     S_3+6 0.141339 0.725366 0.335595 0.148033
S7    S     S_3+6 0.853998 0.734473 0.603420 0.124014
S8    S     S_3+6 0.859116 0.704964 0.336014 0.136180

loop_
_geom_bond_atom_site_label_1
_geom_bond_atom_site_label_2
_ccdc_geom_bond_type
C6    S3    S    
O16   S5    S    
H4    O13   S    
O10   S4    D    
O18   S6    D    
C16   O29   A    
H7    O22   S    
C4    S1    S    
O20   S7    D    
C15   O23   A    
O5    S2    D    
O19   S6    S    
Cu1   Cu2   S    
C9    S6    S    
Cu1   O30   S    
C9    C11   S    
C2    O31   A    
C7    S4    S    
O32   S1    D    
C15   O27   A    
O2    S1    D    
O9    S3    S    
Cu1   O1    S    
C13   C14   T    
Cu1   O23   S    
C4    C11   S    
C4    F1    S    
C10   S8    S    
O25   S8    D    
H2    O6    S    
C17   N1    T    
Cu2   O29   S    
C5    S2    S    
C12   C16   S    
C6    F3    S    
O3    S1    S    
O26   S8    S    
C10   S7    S    
C2    O30   A    
C17   C18   S    
C10   C12   S    
H5    O16   S    
C18   N2    T    
C5    C11   S    
C6    C12   S    
C7    C12   S    
H6    O19   S    
C1    O12   A    
O17   S6    D    
Cu2   N1    S    
Cu1   O28   S    
O6    S2    S    
C7    F4    S    
O21   S7    D    
H3    O9    S    
Cu2   O31   S    
C2    C13   S    
O24   S8    D    
C4    C6    S    
C3    C8    T    
C9    C10   S    
Cu2   O27   S    
C5    C7    S    
C1    O1    A    
H8    O26   S    
C8    C14   S    
O22   S7    S    
O14   S5    D    
H1    O3    S    
O11   S4    D    
O7    S3    D    
O13   S4    S    
C11   C15   S    
C16   O28   A    
O8    S3    D    
Cu2   O12   S    
C5    F2    S    
C9    S5    S    
O4    S2    D    
C1    C3    S    
Cu1   N2    S    
O15   S5    D    
