data_mof_unit_49156.cif
_audit_creation_date              2012-12-11T16:24:15-0500
_audit_creation_method            fapswitch 2.2
_symmetry_space_group_name_H-M    P1
_symmetry_Int_Tables_number       1
_space_group_crystal_system       triclinic
_cell_length_a                    14.755183
_cell_length_b                    14.768803
_cell_length_c                    33.274258
_cell_angle_alpha                 96.056278
_cell_angle_beta                  96.283864
_cell_angle_gamma                 61.220254
_cell_volume                      6305.53944851

loop_
_atom_site_label
_atom_site_type_symbol
_atom_type_description
_atom_site_fract_x
_atom_site_fract_y
_atom_site_fract_z
_atom_type_partial_charge
C1    C     C_R   0.390939 0.699584 0.446110 0.542116
C2    C     C_R   0.329700 0.347635 0.308755 0.041736
C3    C     C_R   0.411229 0.264871 0.328504 -0.108235
C4    C     C_R   0.431200 0.274037 0.370250 -0.124904
C5    C     C_R   0.393891 0.252429 0.165960 -0.108160
C6    C     C_R   0.384917 0.234093 0.124121 -0.124653
C7    C     C_R   0.209860 0.377632 0.121760 -0.125422
C8    C     C_R   0.219041 0.395660 0.163635 -0.107916
C9    C     C_R   0.309853 0.331039 0.185819 0.041562
C10   C     C_1   0.314315 0.339666 0.229118 -0.015332
C11   C     C_1   0.319591 0.343931 0.265460 -0.015420
C12   C     C_R   0.405801 0.386396 0.434001 0.544039
C13   C     C_R   0.291371 0.294114 0.101818 0.019509
C14   C     C_R   0.756160 0.373401 0.410135 0.022561
C15   C     C_R   0.789250 0.435219 0.393580 -0.130039
C16   C     C_R   0.818441 0.414548 0.353888 -0.119037
C17   C     C_R   0.815345 0.331546 0.330102 0.035588
C18   C     C_R   0.791689 0.264028 0.347872 -0.120868
C19   C     C_R   0.762225 0.284846 0.387615 -0.131549
C20   C     C_R   0.835142 0.311756 0.204781 0.347111
C21   C     C_R   0.826937 0.321901 0.286245 0.347272
C22   C     C_R   0.835916 0.390099 0.142242 -0.119529
C23   C     C_R   0.700658 0.410047 0.447517 0.544217
C24   C     C_R   0.865837 0.378927 0.103037 -0.130056
C25   C     C_R   0.909664 0.197769 0.099232 -0.131171
C26   C     C_R   0.879627 0.208991 0.138541 -0.120027
C27   C     C_R   0.847184 0.304124 0.161025 0.034262
C28   C     C_R   0.907629 0.281560 0.081935 0.021676
C29   C     C_R   0.370788 0.754543 0.409077 0.022351
C30   C     C_R   0.276834 0.783853 0.385733 -0.130417
C31   C     C_R   0.266678 0.811871 0.346202 -0.119839
C32   C     C_R   0.350172 0.811354 0.329377 0.035129
C33   C     C_R   0.440563 0.791628 0.353978 -0.120070
C34   C     C_R   0.393840 0.701008 0.561401 0.556656
C35   C     C_R   0.450826 0.763374 0.393555 -0.131539
C36   C     C_R   0.343579 0.828556 0.204362 0.348060
C37   C     C_R   0.346119 0.821799 0.285622 0.348211
C38   C     C_R   0.258701 0.831693 0.135198 -0.119515
C39   C     C_R   0.238972 0.862281 0.095646 -0.130490
C40   C     C_R   0.381692 0.901775 0.104946 -0.131660
C41   C     C_R   0.401491 0.871061 0.144561 -0.120785
C42   C     C_R   0.336891 0.840591 0.160611 0.035311
C43   C     C_R   0.297022 0.902415 0.080862 0.021779
C44   C     C_R   0.371597 0.368986 0.585064 0.022901
C45   C     C_R   0.407395 0.388832 0.549009 0.546391
C46   C     C_R   0.285002 0.448301 0.603859 -0.131446
C47   C     C_R   0.265738 0.438841 0.642885 -0.122088
C48   C     C_R   0.332862 0.350007 0.663671 0.035356
C49   C     C_R   0.413703 0.267061 0.643414 -0.123597
C50   C     C_R   0.432817 0.276396 0.604428 -0.132005
C51   C     C_R   0.318178 0.347304 0.788338 0.346751
C52   C     C_R   0.325029 0.347196 0.707211 0.346561
C53   C     C_R   0.218069 0.402855 0.850270 -0.122309
C54   C     C_R   0.206995 0.383474 0.889074 -0.131777
C55   C     C_R   0.386084 0.248904 0.892962 -0.130585
C56   C     C_R   0.701295 0.413676 0.562697 0.548936
C57   C     C_R   0.397103 0.268210 0.854243 -0.121458
C58   C     C_R   0.311833 0.341907 0.831808 0.034432
C59   C     C_R   0.289559 0.302877 0.909906 0.022135
C60   C     C_R   0.753955 0.380839 0.602977 0.019545
C61   C     C_R   0.777829 0.448170 0.629575 -0.108501
C62   C     C_R   0.805847 0.427937 0.670399 -0.107209
C63   C     C_R   0.810867 0.340102 0.684995 0.039438
C64   C     C_R   0.793545 0.269440 0.658338 -0.111966
C65   C     C_R   0.765507 0.289449 0.617507 -0.128784
C66   C     C_R   0.885879 0.213115 0.822778 -0.110890
C67   C     C_R   0.369908 0.366528 0.392554 0.019720
C68   C     C_R   0.913655 0.201595 0.864160 -0.127394
C69   C     C_R   0.871099 0.382550 0.873550 -0.126275
C70   C     C_R   0.843194 0.393859 0.832228 -0.110925
C71   C     C_R   0.853496 0.308496 0.806653 0.041542
C72   C     C_1   0.838153 0.317428 0.763654 -0.022061
C73   C     C_1   0.826576 0.326501 0.727693 -0.021865
C74   C     C_R   0.910004 0.285405 0.889717 0.019553
C75   C     C_R   0.376884 0.755164 0.602179 0.020744
C76   C     C_R   0.279805 0.793398 0.618249 -0.175708
C77   C     C_R   0.267747 0.823776 0.659285 -0.130184
C78   C     C_R   0.283528 0.446427 0.372781 -0.125936
C79   C     C_R   0.352332 0.816611 0.684790 -0.002621
C80   C     C_R   0.447367 0.785328 0.668895 -0.093711
C81   C     C_R   0.460165 0.756169 0.627603 0.253541
C82   C     C_R   0.392380 0.887661 0.831994 -0.111692
C83   C     C_R   0.374265 0.914414 0.872941 -0.126451
C84   C     C_R   0.227965 0.880091 0.863365 -0.126673
C85   C     C_R   0.246358 0.853286 0.822469 -0.111375
C86   C     C_R   0.326669 0.859909 0.806563 0.039756
C87   C     C_1   0.337134 0.844786 0.763750 -0.020733
C88   C     C_1   0.344075 0.833058 0.727724 -0.019530
C89   C     C_R   0.263869 0.437066 0.331003 -0.108551
C90   C     C_R   0.289658 0.914250 0.888733 0.019768
C91   C     C_R   0.963550 0.264174 0.045537 0.545940
C92   C     C_R   0.272760 0.259388 0.060037 0.544148
C93   C     C_R   0.259275 0.959612 0.043770 0.545714
C94   C     C_R   0.962566 0.267641 0.930728 0.542490
C95   C     C_R   0.270810 0.264043 0.945364 0.545189
C96   C     C_R   0.256037 0.965013 0.928989 0.543105
Cr1   Cr    Cr6+3 0.576280 0.580550 0.506370 1.023829
Cr2   Cr    Cr6+3 0.346780 0.572400 0.496520 1.010114
Cr3   Cr    Cr6+3 0.576960 0.347070 0.497150 1.010493
Cr4   Cr    Cr6+3 0.087320 0.083240 0.984860 1.012919
Cr5   Cr    Cr6+3 0.087720 0.316210 0.996740 1.012990
Cr6   Cr    Cr6+3 0.317350 0.090340 0.995890 1.012959
H1    H     H_    0.449041 0.169313 0.109663 0.129529
H2    H     H_    0.737840 0.235321 0.399694 0.128877
H3    H     H_    0.862037 0.445225 0.090234 0.130473
H4    H     H_    0.838439 0.466757 0.341260 0.134778
H5    H     H_    0.789808 0.198728 0.330406 0.134128
H6    H     H_    0.809021 0.465010 0.158522 0.137148
H7    H     H_    0.941084 0.121841 0.083564 0.131503
H8    H     H_    0.887965 0.141633 0.152086 0.136912
H9    H     H_    0.213329 0.778949 0.397042 0.129985
H10   H     H_    0.523940 0.741981 0.410973 0.127871
H11   H     H_    0.174068 0.860572 0.077581 0.130094
H12   H     H_    0.464637 0.202338 0.183019 0.117941
H13   H     H_    0.195173 0.828837 0.328224 0.136387
H14   H     H_    0.505742 0.791933 0.341992 0.135357
H15   H     H_    0.208963 0.806386 0.146463 0.135143
H16   H     H_    0.428302 0.931636 0.094241 0.129888
H17   H     H_    0.463233 0.877421 0.163279 0.134717
H18   H     H_    0.235968 0.520370 0.589549 0.128900
H19   H     H_    0.499418 0.213443 0.590525 0.126634
H20   H     H_    0.131755 0.426778 0.901489 0.130306
H21   H     H_    0.202028 0.503561 0.657559 0.131384
H22   H     H_    0.465512 0.196699 0.658368 0.128536
H23   H     H_    0.462327 0.195216 0.311393 0.117504
H24   H     H_    0.151326 0.461083 0.833886 0.132049
H25   H     H_    0.451497 0.187256 0.908544 0.129516
H26   H     H_    0.471056 0.221472 0.841137 0.132980
H27   H     H_    0.943866 0.125656 0.875600 0.128155
H28   H     H_    0.893893 0.146650 0.803147 0.110843
H29   H     H_    0.797557 0.201087 0.669401 0.110751
H30   H     H_    0.747512 0.236122 0.597859 0.125571
H31   H     H_    0.769364 0.519273 0.619405 0.151909
H32   H     H_    0.817829 0.468098 0.819970 0.111308
H33   H     H_    0.867382 0.448525 0.892400 0.127162
H34   H     H_    0.498165 0.211159 0.384583 0.128579
H35   H     H_    0.819416 0.482946 0.690875 0.114961
H36   H     H_    0.422956 0.940696 0.891617 0.128858
H37   H     H_    0.454970 0.892635 0.819870 0.112575
H38   H     H_    0.513140 0.779163 0.688787 0.118474
H39   H     H_    0.214354 0.794653 0.599574 0.135651
H40   H     H_    0.195393 0.831434 0.802941 0.113749
H41   H     H_    0.162203 0.879214 0.874564 0.127772
H42   H     H_    0.193675 0.848309 0.671452 0.122501
H43   H     H_    0.234934 0.518664 0.389081 0.128431
H44   H     H_    0.153770 0.456910 0.178876 0.117945
H45   H     H_    0.136781 0.425149 0.105463 0.130051
H46   H     H_    0.200414 0.501366 0.315849 0.116729
H47   H     H_    0.786559 0.503323 0.410368 0.128841
N1    N     N_R   0.828695 0.395682 0.227918 -0.229652
N2    N     N_R   0.243095 0.422332 0.726757 -0.236670
N3    N     N_R   0.403580 0.272660 0.729051 -0.236297
N4    N     N_R   0.400067 0.272527 0.768760 -0.236085
N5    N     N_R   0.824349 0.400795 0.267798 -0.229150
N6    N     N_R   0.833126 0.237879 0.263141 -0.230392
N7    N     N_R   0.837897 0.232577 0.223182 -0.230122
N8    N     N_R   0.267216 0.821786 0.220928 -0.229930
N9    N     N_R   0.268652 0.818109 0.260717 -0.229608
N10   N     N_R   0.422836 0.828220 0.269096 -0.230572
N11   N     N_R   0.421215 0.832247 0.229240 -0.230351
N12   N     N_R   0.239396 0.421978 0.766531 -0.236471
O1    O     O_R   0.679450 0.499830 0.463150 -0.525049
O2    O     O_R   0.356040 0.477400 0.534170 -0.501837
O3    O     O_R   0.495910 0.323070 0.537100 -0.520178
O4    O     O_R   0.663920 0.359620 0.542290 -0.504777
O5    O     O_3   0.500010 0.500010 0.500010 -0.238903
O6    O     O_R   0.170070 0.978950 0.027680 -0.519607
O7    O     O_R   0.001760 0.175230 0.026640 -0.501395
O8    O     O_R   0.984760 0.333570 0.037150 -0.519578
O9    O     O_R   0.183410 0.309240 0.041890 -0.501488
O10   O     O_R   0.340240 0.172500 0.045430 -0.519556
O11   O     O_R   0.309670 0.000990 0.032050 -0.501897
O12   O     O_R   0.480650 0.664000 0.464630 -0.508099
O13   O     O_R   0.168330 0.982130 0.939200 -0.520736
O14   O     O_R   0.000140 0.178170 0.944610 -0.502022
O15   O     O_R   0.983010 0.336750 0.948660 -0.519862
O16   O     O_R   0.181800 0.312190 0.959860 -0.502175
O17   O     O_R   0.338500 0.175680 0.956950 -0.519811
O18   O     O_R   0.308050 0.003930 0.950020 -0.501628
O19   O     O_3   0.164130 0.163270 0.992500 -0.236436
O20   O     O_R   0.323930 0.675950 0.455370 -0.521071
O21   O     O_R   0.354700 0.475360 0.451930 -0.501802
O22   O     O_R   0.494470 0.320860 0.448390 -0.519865
O23   O     O_R   0.662580 0.357570 0.460050 -0.502707
O24   O     O_R   0.680900 0.502040 0.551870 -0.499810
O25   O     O_R   0.481990 0.666040 0.546870 -0.450369
O26   O     O_R   0.325370 0.678160 0.544080 -0.530629
O27   O     O_3   0.557851 0.715964 0.613689 -0.541009
C97   C     C_3   0.573701 0.798821 0.605365 -0.006430
H48   H     H_    0.574692 0.846054 0.633653 0.118750
H49   H     H_    0.512290 0.849327 0.583122 0.123433
C98   C     C_3   0.677803 0.755532 0.587135 -0.360061
H50   H     H_    0.678932 0.708465 0.558670 0.168531
H51   H     H_    0.691053 0.820023 0.580247 0.084497
H52   H     H_    0.741084 0.706177 0.608853 0.144349

loop_
_geom_bond_atom_site_label_1
_geom_bond_atom_site_label_2
_ccdc_geom_bond_type
C37   N9    A    
C89   H46   S    
C40   H16   S    
C87   C88   T    
C93   O11   A    
N8    N9    A    
C55   C59   A    
C5    H12   S    
C97   C98   S    
Cr6   O19   S    
C41   C42   A    
C74   C94   S    
C36   C42   S    
C57   H26   S    
Cr2   O2    S    
C61   H31   S    
C7    C8    A    
C85   C86   A    
C25   C28   A    
Cr1   O24   S    
C67   C78   A    
C1    O12   A    
C26   C27   A    
Cr2   O26   S    
C59   C95   S    
Cr4   O6    S    
C45   O3    A    
C38   C42   A    
C5    C6    A    
C80   C81   A    
C12   O22   A    
C66   C68   A    
C92   O10   A    
C68   C74   A    
Cr1   O5    S    
Cr6   O10   S    
C34   O25   A    
C18   C19   A    
C97   H49   S    
C18   H5    S    
C32   C37   S    
C78   H43   S    
C43   C93   S    
C38   H15   S    
C68   H27   S    
C95   O16   A    
C40   C43   A    
C12   O21   A    
C66   C71   A    
C53   C54   A    
C92   O9    A    
C16   C17   A    
N2    N12   A    
C56   O4    A    
C47   C48   A    
C21   N5    A    
Cr5   O8    S    
C70   C71   A    
C29   C30   A    
C9    C10   S    
C26   H8    S    
C81   O27   S    
Cr3   O22   S    
C61   C62   A    
C96   O18   A    
C25   H7    S    
C34   C75   S    
C4    H34   S    
C23   O1    A    
C76   H39   S    
C54   H20   S    
C69   H33   S    
C66   H28   S    
Cr6   O18   S    
C34   O26   A    
C50   H19   S    
C84   C90   A    
Cr4   O14   S    
C2    C11   S    
C31   H13   S    
C79   C88   S    
C44   C46   A    
C7    H45   S    
C54   C59   A    
C77   C79   A    
C78   C89   A    
Cr6   O11   S    
Cr1   O25   S    
C12   C67   S    
C8    H44   S    
Cr1   O12   S    
C91   O8    A    
C98   H52   S    
C91   O7    A    
Cr5   O9    S    
C38   C39   A    
C84   C85   A    
C53   H24   S    
C1    O20   A    
C86   C87   S    
C8    C9    A    
C94   O14   A    
C39   C43   A    
C63   C73   S    
C84   H41   S    
C39   H11   S    
C25   C26   A    
C82   C86   A    
C49   H22   S    
C41   H17   S    
C56   C60   S    
O27   C97   S    
C98   H51   S    
C14   C23   S    
Cr2   O21   S    
C2    C89   A    
C75   C76   A    
C5    C9    A    
C62   C63   A    
C19   H2    S    
C95   O17   A    
C47   H21   S    
N10   N11   A    
C64   H29   S    
C7    C13   A    
C52   N3    A    
C82   H37   S    
C1    C29   S    
C17   C18   A    
C21   N6    A    
C46   H18   S    
C69   C74   A    
C51   C58   S    
C6    H1    S    
C76   C77   A    
Cr3   O23   S    
Cr2   O5    S    
C96   O13   A    
C36   N8    A    
C48   C49   A    
C55   H25   S    
C60   C65   A    
Cr1   O1    S    
C22   C27   A    
C55   C57   A    
C13   C92   S    
Cr4   O13   S    
Cr6   O17   S    
C49   C50   A    
C22   C24   A    
C79   C80   A    
C3    C4    A    
Cr4   O19   S    
C15   H47   S    
C65   H30   S    
C44   C45   S    
C44   C50   A    
C97   H48   S    
C83   C90   A    
C46   C47   A    
C40   C41   A    
C33   H14   S    
C20   N7    A    
C14   C19   A    
C31   C32   A    
C75   C81   A    
C24   C28   A    
C72   C73   T    
C85   H40   S    
C4    C67   A    
C53   C58   A    
C3    H23   S    
C90   C96   S    
C20   C27   S    
C16   H4    S    
C56   O24   A    
C29   C35   A    
C30   H9    S    
Cr4   O7    S    
C32   C33   A    
Cr3   O5    S    
Cr2   O20   S    
C2    C3    A    
C45   O2    A    
C77   H42   S    
C23   O23   A    
Cr5   O19   S    
C80   H38   S    
C98   H50   S    
C6    C13   A    
C37   N10   A    
C57   C58   A    
C30   C31   A    
C52   N2    A    
C22   H6    S    
C64   C65   A    
Cr3   O3    S    
C33   C35   A    
C20   N1    A    
C51   N12   A    
C28   C91   S    
C62   H35   S    
C69   C70   A    
C17   C21   S    
Cr5   O16   S    
C10   C11   T    
C36   N11   A    
C63   C64   A    
C48   C52   S    
C71   C72   S    
N3    N4    A    
C93   O6    A    
C82   C83   A    
N1    N5    A    
N6    N7    A    
C70   H32   S    
C14   C15   A    
C60   C61   A    
Cr5   O15   S    
C24   H3    S    
C51   N4    A    
C83   H36   S    
C35   H10   S    
C15   C16   A    
C94   O15   A    
Cr3   O4    S    
