data_mof_unit_32892.cif
_audit_creation_date              2013-03-05T15:50:11-0500
_audit_creation_method            fapswitch 2.2
_symmetry_space_group_name_H-M    P1
_symmetry_Int_Tables_number       1
_space_group_crystal_system       triclinic
_cell_length_a                    15.02729
_cell_length_b                    15.00696
_cell_length_c                    34.864122
_cell_angle_alpha                 90.501276
_cell_angle_beta                  90.003432
_cell_angle_gamma                 60.30665
_cell_volume                      6829.58911318

loop_
_atom_site_label
_atom_site_type_symbol
_atom_site_description
_atom_site_fract_x
_atom_site_fract_y
_atom_site_fract_z
_atom_type_partial_charge
O1    O     O_R   0.502070 0.323090 0.541280 -0.511427
O2    O     O_R   0.338340 0.520690 0.539540 -0.443663
C1    C     C_R   0.301715 0.608589 0.555893 0.601384
O3    O     O_R   0.324760 0.674070 0.543580 -0.451291
O4    O     O_R   0.522400 0.640310 0.540110 -0.507401
C2    C     C_R   0.611552 0.589473 0.554779 0.574901
O5    O     O_R   0.675940 0.500630 0.542210 -0.427163
O6    O     O_R   0.641790 0.337020 0.538150 -0.434824
C3    C     C_R   0.590797 0.299485 0.553466 0.571924
O7    O     O_R   0.500260 0.324550 0.456580 -0.494730
O8    O     O_R   0.336660 0.522040 0.461020 -0.452575
C4    C     C_R   0.297174 0.611476 0.446915 0.566381
O9    O     O_R   0.322940 0.675540 0.458880 -0.522365
O10   O     O_R   0.520720 0.641670 0.461580 -0.513772
C5    C     C_R   0.608364 0.590684 0.445684 0.578909
O11   O     O_R   0.674120 0.502090 0.457500 -0.447830
O12   O     O_R   0.640110 0.338380 0.459630 -0.503002
C6    C     C_R   0.588473 0.301708 0.444010 0.542701
Cr1   Cr    Cr6+3 0.421670 0.426920 0.499620 1.145666
Cr2   Cr    Cr6+3 0.427030 0.651190 0.500980 1.082192
Cr3   Cr    Cr6+3 0.651280 0.421870 0.499380 1.167459
O13   O     O_3   0.499990 0.499990 0.499990 -0.306216
N1    N     N_R   0.762817 0.609262 0.764693 -0.218336
N2    N     N_R   0.758022 0.606496 0.726638 -0.129820
C7    C     C_R   0.634505 0.628562 0.590292 -0.018660
C8    C     C_R   0.735827 0.589403 0.603980 0.199120
C9    C     C_R   0.751726 0.612962 0.642031 0.267217
C10   C     C_R   0.666302 0.672814 0.665900 0.053673
C11   C     C_R   0.567467 0.718905 0.650528 -0.161327
C12   C     C_R   0.551847 0.697571 0.613194 -0.174008
N3    N     N_R   0.602224 0.760242 0.728032 -0.176223
N4    N     N_R   0.607114 0.763157 0.766059 -0.162110
C13   C     C_R   0.687021 0.687271 0.785156 0.353936
C14   C     C_R   0.677683 0.681983 0.707541 0.396979
C15   C     C_R   0.761121 0.603038 0.847642 -0.109153
C16   C     C_R   0.771443 0.607458 0.887495 0.183281
C17   C     C_R   0.640058 0.787672 0.886657 -0.137951
C18   C     C_R   0.628471 0.781308 0.847387 -0.076753
C19   C     C_R   0.692010 0.690377 0.827277 -0.004119
C20   C     C_R   0.714978 0.702987 0.906929 0.001298
H1    H     H_    0.473689 0.729651 0.603276 0.192953
H2    H     H_    0.500961 0.766900 0.668129 0.167934
H3    H     H_    0.806921 0.530937 0.832564 0.180218
H4    H     H_    0.594332 0.861500 0.900619 0.194443
H5    H     H_    0.572947 0.849396 0.832559 0.208202
C21   C     C_R   0.722402 0.077043 0.905711 -0.051404
C22   C     C_R   0.629260 0.118090 0.885186 0.195439
C23   C     C_R   0.628661 0.137398 0.845494 0.244795
C24   C     C_R   0.720733 0.114203 0.826714 0.045419
C25   C     C_R   0.810940 0.085032 0.848081 0.171814
C26   C     C_R   0.809733 0.068140 0.887438 -0.149737
C27   C     C_R   0.723068 0.200553 0.766790 -0.085109
C28   C     C_R   0.716725 0.209544 0.727132 -0.107827
C29   C     C_R   0.708469 0.136468 0.704430 0.058438
C30   C     C_R   0.708534 0.051607 0.721703 0.252814
C31   C     C_R   0.712420 0.043940 0.762106 0.241049
C32   C     C_R   0.720344 0.118752 0.784471 0.065162
C33   C     C_R   0.588874 0.186516 0.649535 0.228702
C34   C     C_R   0.560823 0.226927 0.612619 -0.173552
C35   C     C_R   0.731878 0.200626 0.601072 0.231498
C36   C     C_R   0.760284 0.162312 0.638793 0.176795
C37   C     C_R   0.687521 0.157631 0.663100 0.060019
C38   C     C_R   0.629700 0.238683 0.588968 -0.008738
H6    H     H_    0.880432 0.039933 0.903289 0.183500
H7    H     H_    0.715298 0.275478 0.714057 0.153682
H8    H     H_    0.727884 0.258652 0.783879 0.157769
H9    H     H_    0.482874 0.254428 0.603200 0.155893
C39   C     C_R   0.005834 0.745195 0.901948 0.001126
C40   C     C_R   0.029128 0.808425 0.879596 -0.102679
C41   C     C_R   0.037698 0.796278 0.839783 -0.074918
C42   C     C_R   0.022457 0.721224 0.821404 0.045868
C43   C     C_R   0.998534 0.658357 0.843637 -0.080610
C44   C     C_R   0.990024 0.670428 0.883486 -0.110813
C45   C     C_R   0.094348 0.607551 0.763467 -0.088529
C46   C     C_R   0.119700 0.594560 0.724472 -0.080288
C47   C     C_R   0.086543 0.680243 0.700651 0.037554
C48   C     C_R   0.021659 0.778506 0.715996 -0.065643
C49   C     C_R   0.997062 0.791464 0.754958 -0.058831
C50   C     C_R   0.035870 0.706426 0.779315 0.031875
C51   C     C_R   0.166025 0.733561 0.649746 -0.106998
C52   C     C_R   0.219092 0.717028 0.614919 0.206975
C53   C     C_R   0.195989 0.569272 0.602074 0.202786
C54   C     C_R   0.143610 0.587453 0.637351 -0.111060
C55   C     C_R   0.130024 0.668210 0.661546 -0.028517
C56   C     C_R   0.236562 0.632818 0.591019 0.095638
H10   H     H_    0.040606 0.867482 0.892811 0.167154
H11   H     H_    0.969947 0.621841 0.899793 0.170787
H12   H     H_    0.114345 0.537729 0.646172 0.134098
H13   H     H_    0.170480 0.517972 0.713518 0.129450
H14   H     H_    0.125568 0.540669 0.781623 0.134828
H15   H     H_    0.058031 0.844529 0.823367 0.174848
H16   H     H_    0.993228 0.845708 0.698120 0.184802
H17   H     H_    0.950117 0.868287 0.766245 0.187480
H18   H     H_    0.157019 0.795293 0.668598 0.134127
H19   H     H_    0.985407 0.600601 0.830156 0.143711
C57   C     C_R   0.689373 0.711819 0.089204 0.015296
C58   C     C_R   0.611304 0.793194 0.110986 0.149049
C59   C     C_R   0.603306 0.779411 0.150153 -0.126289
C60   C     C_R   0.663658 0.684051 0.167011 -0.058557
C61   C     C_R   0.727002 0.597888 0.144137 0.216393
C62   C     C_R   0.740974 0.611782 0.104954 0.230697
C63   C     C_R   0.615630 0.620172 0.224434 -0.012024
C64   C     C_R   0.611087 0.612932 0.264070 -0.053992
C65   C     C_R   0.650811 0.659990 0.288214 0.018184
C66   C     C_R   0.694914 0.714631 0.272434 -0.076394
C67   C     C_R   0.697433 0.723708 0.232749 -0.038205
C68   C     C_R   0.658278 0.676057 0.208690 0.054351
C69   C     C_R   0.545248 0.689398 0.345997 -0.107226
C70   C     C_R   0.535715 0.675593 0.384682 -0.143046
C71   C     C_R   0.720845 0.596139 0.392467 0.202834
C72   C     C_R   0.729136 0.611264 0.353153 -0.061076
C73   C     C_R   0.641914 0.654821 0.329849 -0.007038
C74   C     C_R   0.622894 0.625292 0.408018 0.014664
H20   H     H_    0.803619 0.586897 0.340457 0.181256
H21   H     H_    0.576777 0.570541 0.275978 0.196841
H22   H     H_    0.585675 0.582787 0.206025 0.195436
H23   H     H_    0.548558 0.843057 0.167707 0.202773
H24   H     H_    0.725144 0.751862 0.290799 0.150897
H25   H     H_    0.730396 0.767220 0.220730 0.182038
H26   H     H_    0.477211 0.724171 0.328307 0.144898
H27   H     H_    0.459928 0.698391 0.395719 0.142064
C75   C     C_R   0.700286 0.101981 0.088245 -0.084595
C76   C     C_R   0.769582 0.131722 0.103007 0.223105
C77   C     C_R   0.765810 0.156493 0.142266 0.243068
C78   C     C_R   0.690140 0.154724 0.166106 -0.051529
C79   C     C_R   0.612270 0.139946 0.149817 0.184247
C80   C     C_R   0.617774 0.115179 0.110953 -0.129412
C81   C     C_R   0.630623 0.260132 0.225385 -0.053437
C82   C     C_R   0.626875 0.269784 0.265319 0.216894
C83   C     C_R   0.684964 0.181247 0.287934 0.021672
C84   C     C_R   0.749854 0.085027 0.270060 0.224047
C85   C     C_R   0.754541 0.079199 0.229915 -0.042303
C86   C     C_R   0.693311 0.165531 0.207850 -0.045956
C87   C     C_R   0.746483 0.195873 0.353916 0.263387
C88   C     C_R   0.721226 0.222897 0.392632 -0.080793
C89   C     C_R   0.557001 0.232001 0.383742 -0.106038
C90   C     C_R   0.581202 0.204399 0.345420 -0.086073
C91   C     C_R   0.673246 0.190636 0.329879 0.082984
C92   C     C_R   0.624639 0.246463 0.407162 -0.017172
H28   H     H_    0.561321 0.098003 0.099198 0.232055
H29   H     H_    0.525343 0.199516 0.327176 0.155842
H30   H     H_    0.584667 0.326463 0.207766 0.194077
H31   H     H_    0.802127 0.006120 0.215655 0.188385
H32   H     H_    0.774301 0.232860 0.410735 0.177114
H33   H     H_    0.482341 0.248920 0.394230 0.173635
C93   C     C_R   0.072860 0.714908 0.096699 -0.016527
C94   C     C_R   0.101438 0.616002 0.109689 -0.136453
C95   C     C_R   0.129719 0.589688 0.147636 -0.075405
C96   C     C_R   0.131648 0.661138 0.173062 0.035357
C97   C     C_R   0.110238 0.758513 0.160060 0.278293
C98   C     C_R   0.078994 0.786034 0.122100 0.244715
C99   C     C_R   0.240545 0.624650 0.230796 0.223112
C100  C     C_R   0.247042 0.624891 0.270580 -0.109087
C101  C     C_R   0.166344 0.635350 0.293735 0.000042
C102  C     C_R   0.078111 0.641548 0.277343 0.292805
C103  C     C_R   0.070323 0.641049 0.236885 0.223035
C104  C     C_R   0.150292 0.636289 0.213889 -0.015423
C105  C     C_R   0.169013 0.574365 0.360164 -0.030055
C106  C     C_R   0.196406 0.570466 0.398803 0.193018
C107  C     C_R   0.231174 0.710489 0.387538 -0.146357
C108  C     C_R   0.201375 0.715141 0.349667 -0.102101
C109  C     C_R   0.175574 0.643636 0.335329 0.039981
C110  C     C_R   0.235510 0.634216 0.411790 0.009371
H34   H     H_    0.097545 0.560170 0.090903 0.173768
H35   H     H_    0.204631 0.770553 0.330842 0.164957
H36   H     H_    0.315234 0.618437 0.283814 0.185016
H37   H     H_    0.147197 0.514537 0.157562 0.184397
H38   H     H_    0.145950 0.521171 0.349149 0.200249
H39   H     H_    0.258445 0.761750 0.396853 0.156164
O14   O     O_R   0.017640 0.822070 0.960410 -0.485574
O15   O     O_R   0.822000 0.989470 0.960340 -0.519904
C111  C     C_R   0.735447 0.026909 0.943444 0.569204
O16   O     O_R   0.666920 0.007430 0.955290 -0.440437
O17   O     O_R   0.694410 0.812480 0.959650 -0.506481
C112  C     C_R   0.745662 0.722531 0.945040 0.552941
O18   O     O_R   0.831550 0.656950 0.958960 -0.465610
O19   O     O_R   0.998590 0.685540 0.963930 -0.481055
C113  C     C_R   0.989088 0.762483 0.943815 0.541473
O20   O     O_R   0.008220 0.831200 0.045060 -0.454795
O21   O     O_R   0.813270 0.997930 0.038810 -0.466719
C114  C     C_R   0.722724 0.040295 0.052547 0.567856
O22   O     O_R   0.657500 0.016560 0.039940 -0.476797
O23   O     O_R   0.685680 0.820940 0.038120 -0.460699
C115  C     C_R   0.731935 0.732727 0.054016 0.590079
O24   O     O_R   0.822130 0.666070 0.043610 -0.443858
O25   O     O_R   0.989860 0.694000 0.042400 -0.501916
C116  C     C_R   0.024896 0.746462 0.058683 0.557335
Cr4   Cr    Cr6+3 0.910810 0.908010 0.001130 1.129530
Cr5   Cr    Cr6+3 0.682800 0.909890 0.998370 1.152227
Cr6   Cr    Cr6+3 0.908370 0.682300 0.002180 1.121885
O26   O     O_3   0.833990 0.833400 0.000560 -0.327809
N5    N     N_R   0.821672 0.524019 0.579949 0.078350
O27   O     O_R   0.831493 0.554762 0.546237 -0.241132
O28   O     O_R   0.888338 0.432345 0.591175 -0.258958
N6    N     N_R   0.860546 0.133763 0.653122 0.066669
O29   O     O_R   0.913498 0.047982 0.671336 -0.318084
O30   O     O_R   0.896131 0.196820 0.650369 -0.270569
O31   O     O_3   0.540080 0.177642 0.823882 -0.639367
H40   H     H_    0.479461 0.209329 0.840991 0.377587
N7    N     N_R   0.708253 0.972494 0.698192 0.105048
O32   O     O_R   0.643566 0.940583 0.704779 -0.224459
O33   O     O_R   0.769045 0.936125 0.668600 -0.312509
N8    N     N_R   0.707499 0.961318 0.780506 0.098721
O34   O     O_R   0.620791 0.961767 0.781618 -0.237987
O35   O     O_R   0.781090 0.899941 0.803034 -0.376771
O36   O     O_3   0.518990 0.181201 0.673840 -0.641702
H41   H     H_    0.453466 0.204637 0.660074 0.341613
N9    N     N_R   0.905042 0.068848 0.830616 0.075672
O37   O     O_R   0.973573 0.075506 0.851361 -0.291176
O38   O     O_R   0.926640 0.040798 0.794869 -0.346466
O39   O     O_3   0.801590 0.202203 0.575598 -0.623225
H42   H     H_    0.872016 0.152743 0.583840 0.378065
N10   N     N_R   0.838995 0.514986 0.907524 0.093433
O40   O     O_R   0.922027 0.444429 0.890916 -0.297580
O41   O     O_R   0.809908 0.494111 0.939755 -0.241709
O42   O     O_3   0.257587 0.780219 0.604621 -0.669782
H43   H     H_    0.239065 0.834434 0.624458 0.339639
O43   O     O_3   0.208795 0.489550 0.578300 -0.639135
H44   H     H_    0.176046 0.453158 0.590225 0.345743
N11   N     N_R   0.538864 0.888894 0.093936 0.099623
O44   O     O_R   0.497408 0.972626 0.114550 -0.281821
O45   O     O_R   0.496315 0.888434 0.061475 -0.255243
O46   O     O_3   0.806554 0.530326 0.081610 -0.605049
H45   H     H_    0.852158 0.470396 0.097348 0.388541
O47   O     O_3   0.848653 0.579723 0.656610 -0.637112
H46   H     H_    0.898826 0.558636 0.635338 0.365267
N12   N     N_R   0.778331 0.497449 0.160691 0.066499
O48   O     O_R   0.761453 0.425863 0.147441 -0.270648
O49   O     O_R   0.839109 0.478213 0.189816 -0.238097
N13   N     N_R   0.811350 0.551905 0.415874 0.101656
O50   O     O_R   0.900808 0.492161 0.400533 -0.242434
O51   O     O_R   0.806601 0.581051 0.451443 -0.239365
N14   N     N_R   0.841768 0.139539 0.078067 0.127774
O52   O     O_R   0.933942 0.112508 0.089679 -0.173375
O53   O     O_R   0.812691 0.181581 0.044551 -0.269701
N15   N     N_R   0.562799 0.369486 0.282363 0.068613
O54   O     O_R   0.480898 0.436572 0.264680 -0.335972
O55   O     O_R   0.591819 0.398243 0.312969 -0.352322
O56   O     O_3   0.836881 0.181873 0.156061 -0.552256
H47   H     H_    0.819985 0.208011 0.182720 0.362445
N16   N     N_R   0.809297 0.992827 0.291826 0.099724
O57   O     O_R   0.891847 0.916827 0.277030 -0.254251
O58   O     O_R   0.776251 0.979399 0.324559 -0.314509
N17   N     N_R   0.843268 0.180012 0.339501 0.107705
O59   O     O_R   0.920877 0.150037 0.362535 -0.268429
O60   O     O_R   0.852540 0.203840 0.304508 -0.269149
N18   N     N_R   0.529334 0.145551 0.172408 0.109678
O61   O     O_R   0.438899 0.181356 0.157323 -0.240625
O62   O     O_R   0.545843 0.104123 0.206161 -0.314077
O63   O     O_3   0.045925 0.885723 0.111667 -0.559827
H48   H     H_    0.971441 0.916761 0.106743 0.335150
N19   N     N_R   0.323953 0.617155 0.208008 0.119360
O64   O     O_R   0.381978 0.651801 0.221384 -0.319098
O65   O     O_R   0.347451 0.568737 0.175186 -0.298279
O66   O     O_3   0.999335 0.654887 0.301539 -0.643261
H49   H     H_    0.936612 0.673912 0.286602 0.372070
N20   N     N_R   0.980174 0.649553 0.219201 0.052042
O67   O     O_R   0.955211 0.579106 0.224730 -0.286412
O68   O     O_R   0.922771 0.727599 0.197684 -0.354871
N21   N     N_R   0.185329 0.501339 0.424091 0.100266
O69   O     O_R   0.193925 0.416060 0.410842 -0.279764
O70   O     O_R   0.151948 0.530122 0.458981 -0.244976
N22   N     N_R   0.112581 0.832794 0.185813 0.110567
O71   O     O_R   0.065104 0.853740 0.218682 -0.285697
O72   O     O_R   0.154636 0.886281 0.175021 -0.175315
N23   N     N_R   0.536728 0.136309 0.904003 0.083325
O73   O     O_R   0.502539 0.197297 0.933724 -0.270257
O74   O     O_R   0.488133 0.089704 0.892172 -0.295513

loop_
_geom_bond_atom_site_label_1
_geom_bond_atom_site_label_2
_geom_bond_distance
_ccdc_geom_bond_type
C33   C37   1.405699 A    
C99   C104  1.408686 A    
N8    O34   1.300246 A    
C48   H16   1.082627 S    
C102  C103  1.415654 A    
O11   Cr3   2.034492 S    
C100  H36   1.083848 S    
C1    C56   1.493367 S    
C63   C64   1.391422 A    
C69   H26   1.083966 S    
C15   C19   1.402931 A    
C41   H15   1.082443 S    
N5    O27   1.301167 A    
O15   C111  1.279098 A    
C81   C82   1.396761 A    
C47   C55   1.482320 S    
C42   C50   1.480953 S    
C108  C109  1.398031 A    
C105  H38   1.083305 S    
N22   O71   1.300987 A    
C31   N8    1.434959 S    
C48   C49   1.394235 A    
C31   C32   1.414134 A    
C88   C92   1.405993 A    
N8    O35   1.300631 A    
O8    Cr1   1.925470 S    
C8    C9    1.420363 A    
Cr6   O26   1.971181 S    
O15   Cr4   1.926595 S    
O14   C113  1.299804 A    
C35   C38   1.413240 A    
O4    C2    1.277714 A    
N19   O65   1.301303 A    
C103  C104  1.416353 A    
O56   H47   0.988522 S    
N17   O59   1.301482 A    
N16   O57   1.301481 A    
C17   C20   1.407212 A    
C94   H34   1.083210 S    
C18   C19   1.399235 A    
C67   H25   1.082869 S    
C40   H10   1.082497 S    
C52   O42   1.382867 S    
O20   C116  1.265057 A    
C67   C68   1.402660 A    
C33   O36   1.382588 S    
C49   H17   1.080744 S    
C5    O11   1.273474 A    
C59   C60   1.394525 A    
C64   C65   1.403859 A    
C24   C32   1.474803 S    
C69   C70   1.384472 A    
N20   O67   1.300770 A    
C21   C22   1.415636 A    
C39   C113  1.479869 S    
C75   C80   1.399084 A    
Cr5   O26   1.975627 S    
N12   O48   1.301176 A    
O17   C112  1.277800 A    
C44   H11   1.082185 S    
C18   H5    1.082605 S    
C71   N13   1.439187 S    
C34   H9    1.083352 S    
C76   N14   1.440314 S    
C43   H19   1.083192 S    
C102  O66   1.383973 S    
C75   C114  1.479955 S    
C94   C95   1.389121 A    
N15   O55   1.301288 A    
N7    O32   1.300055 A    
N1    C13   1.356936 A    
N1    N2    1.330109 A    
C5    C74   1.471816 S    
C12   H1    1.083270 S    
C41   C42   1.405207 A    
O22   Cr5   2.040603 S    
C93   C98   1.418777 A    
C15   H3    1.083089 S    
N14   O52   1.301216 A    
C36   N6    1.437814 S    
C89   H33   1.083090 S    
O9    Cr2   2.043879 S    
C70   C74   1.406724 A    
C97   N22   1.439226 S    
C43   C44   1.397113 A    
C62   O46   1.384578 S    
C85   H31   1.083888 S    
N10   O41   1.301465 A    
C54   H12   1.083484 S    
O2    Cr1   1.924963 S    
C10   C14   1.475012 S    
C100  C101  1.398647 A    
C3    C38   1.482418 S    
C57   C62   1.420449 A    
C21   C111  1.485331 S    
C11   H2    1.083191 S    
O21   Cr4   1.924788 S    
C27   C32   1.397025 A    
N13   O50   1.301803 A    
C81   C86   1.391611 A    
C6    C92   1.472458 S    
C57   C115  1.489356 S    
C89   C92   1.400803 A    
O23   Cr5   1.918188 S    
N11   O45   1.301470 A    
C65   C66   1.400231 A    
C35   O39   1.382661 S    
C101  C109  1.466780 S    
C58   C59   1.396956 A    
C98   O63   1.374896 S    
N18   O62   1.301088 A    
O1    Cr1   2.042424 S    
C45   C46   1.397609 A    
C93   C94   1.404581 A    
C82   N15   1.440867 S    
C51   C55   1.398737 A    
C107  C110  1.404398 A    
O10   Cr2   1.920167 S    
C93   C116  1.474155 S    
C76   C77   1.408920 A    
Cr1   O13   1.966250 S    
O1    C3    1.272151 A    
O42   H43   0.991740 S    
O46   H45   0.988682 S    
N21   O70   1.301557 A    
N15   O54   1.300605 A    
C84   N16   1.442939 S    
O4    Cr2   1.927058 S    
C77   O56   1.384456 S    
C8    N5    1.435465 S    
O36   H41   0.991649 S    
N9    O37   1.301637 A    
O20   Cr4   2.043562 S    
C29   C37   1.478213 S    
C25   C26   1.399276 A    
C39   C44   1.407535 A    
C114  O22   1.274295 A    
C21   C26   1.403886 A    
C53   C54   1.410028 A    
N2    C14   1.357281 A    
C1    O3    1.270591 A    
C71   C72   1.406832 A    
C23   O31   1.384113 S    
C35   C36   1.418589 A    
N20   O68   1.301167 A    
C15   C16   1.402692 A    
N5    O28   1.301308 A    
O14   Cr4   2.042789 S    
O25   Cr6   1.924881 S    
C61   N12   1.436424 S    
C64   H21   1.082811 S    
C46   C47   1.405439 A    
O39   H42   0.989424 S    
C11   C12   1.385260 A    
C106  N21   1.438169 S    
C16   N10   1.437042 S    
O18   Cr6   2.042726 S    
C22   C23   1.415425 A    
C53   O43   1.382008 S    
C16   C20   1.418519 A    
O7    Cr1   2.041793 S    
C107  H39   1.083114 S    
C57   C58   1.417355 A    
C30   C31   1.413155 A    
O10   C5    1.273380 A    
O12   C6    1.272534 A    
O6    C3    1.273806 A    
N3    C14   1.357022 A    
O23   C115  1.282158 A    
C63   C68   1.398571 A    
C13   C19   1.471921 S    
C27   C28   1.389079 A    
C47   C48   1.404709 A    
N13   O51   1.301452 A    
N14   O53   1.301564 A    
C71   C74   1.417713 A    
C87   N17   1.442089 S    
C101  C102  1.404262 A    
O31   H40   0.988788 S    
N23   O74   1.301341 A    
C22   N23   1.434913 S    
N7    O33   1.301222 A    
C88   H32   1.083177 S    
N12   O49   1.300936 A    
Cr2   O13   1.971250 S    
O19   C113  1.302414 A    
C17   C18   1.388559 A    
C45   C50   1.404666 A    
Cr4   O26   1.966427 S    
C105  C109  1.399076 A    
C108  H35   1.083766 S    
C78   C79   1.412735 A    
C106  C110  1.419488 A    
C66   H24   1.083347 S    
C54   C55   1.399622 A    
C80   H28   1.081130 S    
C51   H18   1.083360 S    
O66   H49   0.988464 S    
C83   C91   1.470111 S    
C99   N19   1.440043 S    
C27   H8    1.083409 S    
C111  O16   1.271560 A    
C10   C11   1.400055 A    
C59   H23   1.083976 S    
C65   C73   1.463938 S    
C103  N20   1.435820 S    
C66   C67   1.393805 A    
C78   C86   1.466358 S    
C7    C12   1.401478 A    
N22   O72   1.301207 A    
C90   H29   1.083810 S    
C29   C30   1.413025 A    
C23   C24   1.408245 A    
O19   Cr6   1.919760 S    
C72   C73   1.402046 A    
O47   H46   0.989044 S    
C79   N18   1.440743 S    
C49   C50   1.404054 A    
C33   C34   1.400796 A    
C39   C40   1.404360 A    
N3    N4    1.329346 A    
C9    O47   1.383188 S    
C26   H6    1.082488 S    
C51   C52   1.403781 A    
O6    Cr3   1.918027 S    
C87   C91   1.415677 A    
C20   C112  1.480279 S    
O8    C4    1.271936 A    
C28   C29   1.401458 A    
C2    O5    1.271842 A    
O3    Cr2   2.038181 S    
C53   C56   1.418511 A    
C60   C68   1.464613 S    
C90   C91   1.401615 A    
C87   C88   1.403003 A    
C34   C38   1.402101 A    
C97   C98   1.399977 A    
C60   C61   1.405942 A    
N4    C13   1.356645 A    
C45   H14   1.082936 S    
C17   H4    1.083049 S    
C36   C37   1.412768 A    
O2    C1    1.278914 A    
C7    C8    1.417644 A    
C42   C43   1.403205 A    
C112  O18   1.272700 A    
O5    Cr3   2.041335 S    
C96   C97   1.410735 A    
N21   O69   1.301455 A    
C4    C110  1.472642 S    
C70   H27   1.083463 S    
O43   H44   0.991748 S    
C105  C106  1.401799 A    
C81   H30   1.083851 S    
C28   H7    1.083598 S    
O7    C6    1.270440 A    
C79   C80   1.393450 A    
N10   O40   1.301431 A    
O16   Cr5   2.036617 S    
C61   C62   1.414939 A    
N17   O60   1.301043 A    
N11   O44   1.300880 A    
C85   C86   1.397593 A    
C72   H20   1.083573 S    
C95   C96   1.396624 A    
C40   C41   1.395998 A    
C107  C108  1.385364 A    
O12   Cr3   1.922635 S    
O63   H48   0.992033 S    
C63   H22   1.083118 S    
N23   O73   1.301149 A    
C46   H13   1.082879 S    
O17   Cr5   1.924199 S    
N6    O29   1.301149 A    
C2    C7    1.477776 S    
C69   C73   1.394486 A    
O24   Cr6   2.035748 S    
C58   N11   1.437696 S    
C4    O9    1.268852 A    
C30   N7    1.438536 S    
N9    O38   1.300487 A    
C24   C25   1.414855 A    
C83   C84   1.419011 A    
C9    C10   1.411342 A    
C75   C76   1.415930 A    
C95   H37   1.083517 S    
C82   C83   1.420638 A    
C89   C90   1.389251 A    
C115  O24   1.272710 A    
C99   C100  1.390590 A    
N16   O58   1.301060 A    
O25   C116  1.273627 A    
Cr3   O13   1.975491 S    
C96   C104  1.466064 S    
C77   C78   1.419504 A    
C52   C56   1.418868 A    
O21   C114  1.273854 A    
C84   C85   1.401177 A    
N18   O61   1.301383 A    
N19   O64   1.301128 A    
N6    O30   1.301366 A    
C25   N9    1.444531 S    
