data_mof_unit_23028.cif
_audit_creation_date              2012-12-10T19:44:41-0500
_audit_creation_method            fapswitch 2.2
_symmetry_space_group_name_H-M    P1
_symmetry_Int_Tables_number       1
_space_group_crystal_system       triclinic
_cell_length_a                    8.568302
_cell_length_b                    15.021034
_cell_length_c                    14.248033
_cell_angle_alpha                 90.745471
_cell_angle_beta                  97.153526
_cell_angle_gamma                 91.84671
_cell_volume                      1818.30247377

loop_
_atom_site_label
_atom_site_type_symbol
_atom_type_description
_atom_site_fract_x
_atom_site_fract_y
_atom_site_fract_z
_atom_type_partial_charge
C1    C     C_R   0.495928 0.327279 0.498131 0.875830
C2    C     C_R   0.428976 0.435858 0.892254 -0.302966
C3    C     C_R   0.491837 0.507233 0.052892 0.091476
C4    C     C_R   0.495742 0.508225 0.946779 0.086231
C5    C     C_R   0.202402 0.495581 0.476336 0.919166
C6    C     C_R   0.798003 0.503223 0.523633 0.940346
C7    C     C_2   0.039429 0.479352 0.467948 -0.007135
C8    C     C_2   0.961291 0.519423 0.531872 0.008910
C9    C     C_R   0.402178 0.095976 0.567106 -0.176087
C10   C     C_R   0.363570 0.895185 0.428860 -0.169674
C11   C     C_R   0.426787 0.186818 0.569067 -0.193765
C12   C     C_R   0.500643 0.672261 0.501047 0.913382
C13   C     C_R   0.388079 0.805004 0.428964 -0.209449
C14   C     C_R   0.475024 0.230420 0.491275 -0.157589
C15   C     C_R   0.486012 0.767904 0.503025 -0.133271
C16   C     C_R   0.494954 0.180853 0.407761 -0.076376
C17   C     C_R   0.556868 0.821590 0.580193 -0.065290
C18   C     C_R   0.484325 0.087434 0.409443 0.131709
C19   C     C_R   0.541657 0.914102 0.576006 0.136690
C20   C     C_R   0.438295 0.045912 0.490176 0.094796
C21   C     C_R   0.444463 0.950013 0.499725 0.078384
C22   C     C_3   0.973374 0.322176 0.453517 -0.719064
C23   C     C_R   0.357019 0.479019 0.095315 0.130241
C24   C     C_3   0.056606 0.673371 0.550749 -0.688810
C25   C     C_2   0.525616 0.223815 0.318507 0.938782
C26   C     C_2   0.650947 0.783366 0.663267 0.902996
C27   C     C_3   0.678023 0.003376 0.338606 -0.717293
C28   C     C_3   0.784879 0.999022 0.621735 -0.759070
C29   C     C_3   0.125740 0.535066 0.003940 -0.766836
C30   C     C_3   0.521455 0.717672 0.972803 -0.708211
C31   C     C_2   0.765879 0.576648 0.268132 0.943408
C32   C     C_2   0.328860 0.359621 0.743880 0.900181
C33   C     C_R   0.568661 0.577413 0.898738 0.122463
C34   C     C_R   0.366958 0.473069 0.195118 -0.019475
C35   C     C_R   0.573088 0.569670 0.799659 -0.072580
C36   C     C_R   0.628017 0.532629 0.212186 0.094639
C37   C     C_R   0.424571 0.433798 0.793353 0.100527
C38   C     C_R   0.627701 0.531584 0.113580 -0.326704
H1    H     H_    0.364166 0.063879 0.628492 0.159694
H2    H     H_    0.903207 0.323945 0.513990 0.235817
H3    H     H_    0.096092 0.304237 0.479148 0.239441
H4    H     H_    0.920983 0.269828 0.402623 0.274943
H5    H     H_    0.977530 0.595371 0.655878 0.245981
H6    H     H_    0.108100 0.723157 0.605150 0.246548
H7    H     H_    0.943872 0.697913 0.514938 0.273587
H8    H     H_    0.140014 0.666923 0.497654 0.204318
H9    H     H_    0.681249 0.253822 0.227769 0.348214
H10   H     H_    0.842589 0.717234 0.714221 0.322071
H11   H     H_    0.482396 0.060412 0.265113 0.238362
H12   H     H_    0.286404 0.922929 0.371337 0.161323
H13   H     H_    0.693456 0.963693 0.274318 0.240627
H14   H     H_    0.701166 0.959650 0.400567 0.247360
H15   H     H_    0.764867 0.060318 0.345580 0.260572
H16   H     H_    0.630925 0.953910 0.713962 0.263295
H17   H     H_    0.843256 0.045382 0.677605 0.244845
H18   H     H_    0.774818 0.034482 0.553509 0.251056
H19   H     H_    0.858830 0.940018 0.617461 0.243904
H20   H     H_    0.139550 0.413261 0.069965 0.243183
H21   H     H_    0.016234 0.512693 0.958615 0.242172
H22   H     H_    0.197820 0.576519 0.960497 0.247494
H23   H     H_    0.408011 0.222969 0.632021 0.201151
H24   H     H_    0.093478 0.575899 0.063798 0.251423
H25   H     H_    0.724555 0.686140 0.916704 0.240003
H26   H     H_    0.583432 0.774763 0.013368 0.240352
H27   H     H_    0.439466 0.685710 0.017736 0.236796
H28   H     H_    0.453217 0.743129 0.907761 0.260831
H29   H     H_    0.002446 0.592067 0.290612 0.333156
H30   H     H_    0.243138 0.233278 0.751870 0.333619
H31   H     H_    0.327721 0.763732 0.371865 0.164784
H32   H     H_    0.264994 0.450138 0.226864 0.161519
H33   H     H_    0.631404 0.621168 0.763701 0.173636
H34   H     H_    0.733167 0.552981 0.084201 0.196142
H35   H     H_    0.375551 0.381129 0.926998 0.215031
H36   H     H_    0.018513 0.403927 0.344043 0.263267
N1    N     N_R   0.500000 0.499980 0.252470 -0.137941
N2    N     N_R   0.500000 0.500020 0.747530 -0.136691
N3    N     N_2   0.972351 0.407554 0.407428 -0.296384
N4    N     N_2   0.030507 0.588784 0.595194 -0.294150
N5    N     N_2   0.519193 0.034984 0.330713 -0.315721
N6    N     N_2   0.630642 0.972062 0.644524 -0.311540
N7    N     N_2   0.210599 0.458198 0.039294 -0.310410
N8    N     N_2   0.635488 0.655284 0.948083 -0.320071
O1    O     O_R   0.500010 0.369070 0.579480 -0.609678
O2    O     O_R   0.675552 0.222574 0.289954 -0.829030
O3    O     O_2   0.611373 0.793726 0.742119 -0.673868
O4    O     O_R   0.784945 0.736363 0.651650 -0.836634
O5    O     O_2   0.748205 0.636478 0.324274 -0.615504
O6    O     O_R   0.917238 0.555297 0.250387 -0.850487
O7    O     O_2   0.243863 0.371815 0.670443 -0.615790
O8    O     O_R   0.323282 0.276697 0.787334 -0.836109
O9    O     O_R   0.499990 0.630930 0.420520 -0.583146
O10   O     O_R   0.500010 0.369060 0.420520 -0.595839
O11   O     O_R   0.499990 0.630940 0.579480 -0.619698
O12   O     O_R   0.271750 0.500000 0.560890 -0.541285
O13   O     O_R   0.728250 0.500000 0.439110 -0.587149
O14   O     O_R   0.271750 0.499990 0.401930 -0.662940
O15   O     O_R   0.728250 0.500010 0.598070 -0.636469
O16   O     O_2   0.417803 0.257872 0.268703 -0.629947
Zn1   Zn    Zn3+2 0.500000 0.500010 0.606140 0.996432
Zn2   Zn    Zn3+2 0.500000 0.499990 0.393860 1.003017

loop_
_geom_bond_atom_site_label_1
_geom_bond_atom_site_label_2
_ccdc_geom_bond_type
C30   H26   S    
C12   O9    A    
C3    C23   A    
C5    O12   A    
C28   H18   S    
C7    C8    D    
C28   H19   S    
N2    Zn1   S    
H29   O6    S    
C24   H7    S    
C19   C21   A    
C27   N5    S    
C11   C14   A    
C22   H3    S    
C9    H1    S    
C17   C19   A    
C4    C33   A    
C32   O8    S    
C29   H21   S    
C3    C38   A    
C18   N5    S    
H36   N3    S    
C25   O2    S    
H30   O8    S    
C29   H22   S    
O9    Zn2   S    
C33   N8    S    
O11   Zn1   S    
C18   C20   A    
C34   N1    A    
C7    N3    S    
C35   H33   S    
O1    Zn1   S    
C8    N4    S    
O15   Zn1   S    
C28   H17   S    
C27   H13   S    
H16   N6    S    
C10   C21   A    
C38   H34   S    
C35   N2    A    
C31   O5    D    
H25   N8    S    
C6    O15   A    
H20   N7    S    
C5    C7    S    
O13   Zn2   S    
C6    C8    S    
C32   C37   S    
H11   N5    S    
H5    N4    S    
C30   N8    S    
C2    C4    A    
C29   N7    S    
C36   N1    A    
C9    C20   A    
C32   O7    D    
C12   C15   S    
C26   O4    S    
C23   C34   A    
C22   H2    S    
H9    O2    S    
C9    C11   A    
C30   H28   S    
C2    H35   S    
C24   N4    S    
C37   N2    A    
C1    O10   A    
C13   C15   A    
C24   H6    S    
C14   C16   A    
C12   O11   A    
C17   C26   S    
C3    C4    S    
C10   H12   S    
C5    O14   A    
C27   H14   S    
O10   Zn2   S    
C16   C25   S    
C15   C17   A    
C34   H32   S    
C29   H24   S    
C31   O6    S    
C23   N7    S    
C22   N3    S    
C11   H23   S    
C10   C13   A    
C27   H15   S    
C1    O1    A    
C24   H8    S    
C36   C38   A    
C2    C37   A    
C22   H4    S    
C13   H31   S    
O12   Zn1   S    
C26   O3    D    
O14   Zn2   S    
N1    Zn2   S    
C33   C35   A    
H10   O4    S    
C19   N6    S    
C28   N6    S    
C30   H27   S    
C25   O16   D    
C20   C21   S    
C16   C18   A    
C6    O13   A    
C31   C36   S    
C1    C14   S    
