data_mof_unit_64040.cif
_audit_creation_date              2012-12-10T19:16:48-0500
_audit_creation_method            fapswitch 2.2
_symmetry_space_group_name_H-M    P1
_symmetry_Int_Tables_number       1
_space_group_crystal_system       triclinic
_cell_length_a                    16.003889
_cell_length_b                    14.7737
_cell_length_c                    10.763034
_cell_angle_alpha                 90.072481
_cell_angle_beta                  89.992348
_cell_angle_gamma                 89.987042
_cell_volume                      2544.77363166

loop_
_atom_site_label
_atom_site_type_symbol
_atom_type_description
_atom_site_fract_x
_atom_site_fract_y
_atom_site_fract_z
_atom_type_partial_charge
C1    C     C_R   0.340899 0.500006 0.500011 0.825065
C2    C     C_3   0.573815 0.441660 0.927832 -0.398166
C3    C     C_R   0.955839 0.581851 0.507828 -0.215981
C4    C     C_R   0.955896 0.418041 0.494018 -0.217562
C5    C     C_R   0.912538 0.499953 0.500625 0.091031
C6    C     C_R   0.043523 0.417246 0.494708 0.130242
C7    C     C_R   0.043465 0.582608 0.508652 0.129486
C8    C     C_R   0.087146 0.499935 0.501652 0.110745
C9    C     C_1   0.823130 0.499961 0.500229 -0.042407
C10   C     C_1   0.176896 0.499986 0.500814 0.004143
C11   C     C_1   0.251881 0.500010 0.500336 -0.172024
C12   C     C_1   0.748138 0.499973 0.500026 -0.183231
C13   C     C_R   0.499562 0.951629 0.612575 0.161299
C14   C     C_R   0.499546 0.047928 0.613102 0.072292
C15   C     C_R   0.500828 0.500090 0.259311 0.812905
C16   C     C_R   0.500025 0.902849 0.499675 -0.071923
C17   C     C_R   0.499978 0.097129 0.500192 -0.072285
C18   C     C_R   0.500501 0.952033 0.386749 0.072330
C19   C     C_R   0.500442 0.048345 0.387278 0.162957
C20   C     C_1   0.500001 0.802582 0.499913 0.191742
C21   C     C_1   0.499974 0.197411 0.500040 0.191378
C22   C     C_R   0.659099 0.499991 0.499925 0.823438
C23   C     C_R   0.500898 0.500195 0.740639 0.772933
C24   C     C_3   0.513970 0.599267 0.070960 -0.028543
C25   C     C_3   0.415302 0.465597 0.070780 -0.046207
C26   C     C_3   0.512240 0.598917 0.927758 -0.413173
C27   C     C_3   0.417077 0.462828 0.926653 -0.430015
C28   C     C_3   0.572750 0.439471 0.071041 -0.381340
C29   C     C_3   0.501223 0.500556 0.121450 0.137418
C30   C     C_3   0.501072 0.500879 0.878035 0.114332
Cu1   Cu    Cu3+1 0.500000 0.589220 0.500040 0.978073
Cu2   Cu    Cu3+1 0.500000 0.410780 0.500040 0.978824
H1    H     H_    0.460596 0.641628 0.103699 0.143589
H2    H     H_    0.366275 0.514886 0.099898 0.128833
H3    H     H_    0.459537 0.642200 0.895553 0.168537
H4    H     H_    0.364279 0.503777 0.889578 0.140913
H5    H     H_    0.570492 0.628941 0.889038 0.179364
H6    H     H_    0.408129 0.392576 0.891597 0.178777
H7    H     H_    0.634236 0.461853 0.107903 0.158538
H8    H     H_    0.564932 0.368524 0.103126 0.183158
H9    H     H_    0.634656 0.469185 0.894979 0.156073
H10   H     H_    0.568382 0.371253 0.891802 0.179407
H11   H     H_    0.921365 0.644915 0.512994 0.141897
H12   H     H_    0.921466 0.354980 0.488552 0.141377
N1    N     N_1   0.499980 0.276710 0.500040 -0.157681
N2    N     N_1   0.499980 0.723290 0.500040 -0.156750
O1    O     O_R   0.380310 0.575320 0.500060 -0.573316
O2    O     O_R   0.380310 0.424680 0.500060 -0.561165
O3    O     O_R   0.499990 0.575340 0.317720 -0.572456
O4    O     O_R   0.499990 0.424660 0.317720 -0.555477
O5    O     O_R   0.619690 0.575360 0.500000 -0.565289
O6    O     O_R   0.619690 0.424640 0.500000 -0.576596
O7    O     O_R   0.500010 0.575340 0.682340 -0.581774
O8    O     O_R   0.500010 0.424660 0.682340 -0.591062
N3    N     N_3   0.591272 0.640658 0.118301 -0.575947
H13   H     H_    0.589908 0.709811 0.097597 0.219566
H14   H     H_    0.643324 0.613611 0.072795 0.222811
N4    N     N_3   0.392289 0.377114 0.122722 -0.564967
H15   H     H_    0.330377 0.363285 0.098015 0.221166
H16   H     H_    0.429062 0.326061 0.083483 0.235221
N5    N     N_3   0.501075 0.905284 0.269854 -0.606512
H17   H     H_    0.554061 0.863931 0.266531 0.223384
H18   H     H_    0.448193 0.863858 0.265481 0.222822
N6    N     N_3   0.500848 0.097249 0.272270 -0.582238
H19   H     H_    0.448127 0.078139 0.221236 0.238241
H20   H     H_    0.553941 0.078138 0.222057 0.234782
N7    N     N_3   0.088448 0.666707 0.515503 -0.582205
H21   H     H_    0.118248 0.668943 0.601892 0.214838
H22   H     H_    0.047047 0.721453 0.513403 0.214728
N8    N     N_3   0.088566 0.333183 0.487376 -0.580012
H23   H     H_    0.118383 0.323431 0.572746 0.214923
H24   H     H_    0.047204 0.279008 0.476113 0.214533
N9    N     N_3   0.499083 0.094647 0.730007 -0.606309
H25   H     H_    0.552001 0.136024 0.734305 0.219349
H26   H     H_    0.446117 0.136021 0.733420 0.220564
N10   N     N_3   0.499119 0.902731 0.727589 -0.587917
H27   H     H_    0.446019 0.921857 0.777776 0.236849
H28   H     H_    0.551833 0.921827 0.778650 0.235656

loop_
_geom_bond_atom_site_label_1
_geom_bond_atom_site_label_2
_ccdc_geom_bond_type
N3    H13   S    
Cu2   O2    S    
Cu2   N1    S    
C1    C11   S    
C7    C8    A    
C24   N3    S    
C3    H11   S    
N10   H28   S    
C28   C29   S    
C24   C26   S    
C3    C7    A    
C28   H8    S    
C2    H9    S    
N4    H16   S    
C12   C22   S    
C18   C19   A    
N9    H25   S    
C15   O4    A    
N5    H18   S    
C24   C29   S    
Cu2   O6    S    
Cu1   N2    S    
C23   O7    A    
N8    H23   S    
C25   H2    S    
Cu1   O1    S    
C13   C14   A    
C27   C30   S    
N9    H26   S    
C14   C17   A    
Cu1   O3    S    
Cu2   O8    S    
C15   C29   S    
C21   N1    T    
C25   C29   S    
N7    H21   S    
C14   N9    S    
N10   H27   S    
C4    C6    A    
C1    O1    A    
C6    C8    A    
C4    H12   S    
C28   H7    S    
N4    H15   S    
C17   C21   S    
N7    H22   S    
N6    H20   S    
C23   C30   S    
C5    C9    S    
Cu1   Cu2   S    
C13   N10   S    
C19   N6    S    
C16   C20   S    
C18   N5    S    
Cu1   O7    S    
Cu2   O4    S    
C8    C10   S    
C26   C30   S    
N3    H14   S    
C1    O2    A    
C25   N4    S    
C23   O8    A    
C22   O6    A    
C6    N8    S    
Cu1   O5    S    
C4    C5    A    
C3    C5    A    
C2    C28   S    
C26   H5    S    
C27   H4    S    
C25   C27   S    
C24   H1    S    
C2    C30   S    
N6    H19   S    
C2    H10   S    
C17   C19   A    
C15   O3    A    
N5    H17   S    
C9    C12   T    
C10   C11   T    
C7    N7    S    
C26   H3    S    
C16   C18   A    
C13   C16   A    
N8    H24   S    
C27   H6    S    
C20   N2    T    
C22   O5    A    
