data_mof_unit_33564.cif
_audit_creation_date              2012-12-11T14:50:41-0500
_audit_creation_method            fapswitch 2.2
_symmetry_space_group_name_H-M    P1
_symmetry_Int_Tables_number       1
_space_group_crystal_system       triclinic
_cell_length_a                    20.616162
_cell_length_b                    7.15007
_cell_length_c                    20.49198
_cell_angle_alpha                 90.392534
_cell_angle_beta                  101.542972
_cell_angle_gamma                 90.024583
_cell_volume                      2959.49370566

loop_
_atom_site_label
_atom_site_type_symbol
_atom_type_description
_atom_site_fract_x
_atom_site_fract_y
_atom_site_fract_z
_atom_type_partial_charge
O1    O     O_R   0.423690 0.494470 0.435930 -0.541638
O2    O     O_R   0.576310 0.994470 0.564070 -0.538778
O3    O     O_R   0.556070 0.822310 0.435760 -0.529671
O4    O     O_R   0.443930 0.322310 0.564240 -0.529811
C1    C     C_R   0.575995 0.655552 0.421337 0.713937
C2    C     C_R   0.424326 0.156514 0.579152 0.740564
O5    O     O_R   0.422940 0.824080 0.428040 -0.509518
O6    O     O_R   0.577060 0.324080 0.571960 -0.531128
O7    O     O_R   0.442240 0.995960 0.556300 -0.535279
O8    O     O_R   0.557760 0.495960 0.443700 -0.524687
C3    C     C_R   0.399512 0.654967 0.410168 0.725609
C4    C     C_R   0.601593 0.156712 0.588925 0.732034
O9    O     O_3   0.506490 0.661310 0.542090 -0.377293
O10   O     O_3   0.493510 0.161310 0.457910 -0.367733
V1    V     V_3+5 0.498800 0.935560 0.492190 1.584993
V2    V     V_3+5 0.501200 0.435560 0.507810 1.586264
C5    C     C_R   0.839089 0.082063 0.856919 -0.168572
C6    C     C_R   0.162129 0.590740 0.141639 -0.181717
C7    C     C_R   0.663454 0.155805 0.641952 -0.200883
C8    C     C_R   0.337874 0.645746 0.357516 -0.201915
C9    C     C_R   0.769895 0.302675 0.691483 -0.137172
C10   C     C_R   0.216690 0.657092 0.327072 -0.023500
C11   C     C_R   0.713979 0.288009 0.639022 -0.046236
C12   C     C_R   0.276051 0.669882 0.375554 -0.090626
C13   C     C_R   0.668876 0.039528 0.698539 -0.033313
C14   C     C_R   0.341005 0.617323 0.289890 -0.034762
C15   C     C_R   0.724459 0.057140 0.753009 0.047669
C16   C     C_R   0.281551 0.615200 0.239541 0.013906
C17   C     C_R   0.777997 0.177556 0.746427 -0.039579
C18   C     C_R   0.218942 0.615213 0.259256 -0.034075
C19   C     C_R   0.838256 0.170053 0.795275 -0.144033
C20   C     C_R   0.160235 0.578578 0.210059 -0.115819
C21   C     C_R   0.782851 0.986617 0.867506 0.249853
C22   C     C_R   0.222525 0.621175 0.122122 0.238980
C23   C     C_R   0.727640 0.961188 0.814475 0.277768
C24   C     C_R   0.282698 0.618454 0.170123 0.304758
C25   C     C_3   0.264702 0.241669 0.820584 0.547011
C26   C     C_3   0.735468 0.740663 0.181516 0.550889
C27   C     C_3   0.228652 0.912148 0.769361 0.623093
C28   C     C_3   0.772276 0.410214 0.229183 0.631581
C29   C     C_3   0.271728 0.937704 0.714409 -0.206763
C30   C     C_3   0.729998 0.429947 0.285370 -0.181160
H1    H     H_    0.319670 0.866778 0.733907 0.202044
H2    H     H_    0.682756 0.353639 0.266609 0.194978
C31   C     C_1   0.377875 0.153758 0.623926 -0.073161
C32   C     C_1   0.622708 0.648991 0.377082 -0.039522
C33   C     C_3   0.203022 0.112938 0.788079 -0.107343
C34   C     C_3   0.797314 0.613037 0.212636 -0.138025
C35   C     C_3   0.321454 0.228087 0.777694 0.186346
C36   C     C_3   0.678744 0.721205 0.224047 0.201981
C37   C     C_3   0.288216 0.149348 0.705155 -0.148539
C38   C     C_3   0.712152 0.640751 0.295958 -0.206989
C39   C     C_3   0.220607 0.261955 0.677268 0.116131
C40   C     C_3   0.779598 0.752771 0.325573 0.112350
C41   C     C_3   0.165063 0.205260 0.719741 0.141589
C42   C     C_3   0.834649 0.704454 0.281948 0.189860
C43   C     C_1   0.337977 0.155196 0.660451 0.153145
C44   C     C_1   0.662594 0.646591 0.340673 0.123245
C45   C     C_1   0.157806 0.092825 0.836442 0.029216
C46   C     C_1   0.842636 0.596363 0.164093 0.027206
C47   C     C_1   0.120563 0.084866 0.875345 -0.092502
C48   C     C_1   0.879684 0.588022 0.124952 -0.070537
O11   O     O_R   0.942280 0.741210 0.056360 -0.522206
O12   O     O_R   0.057720 0.241210 0.943640 -0.518620
O13   O     O_R   0.077070 0.409690 0.071960 -0.546631
O14   O     O_R   0.922930 0.909690 0.928040 -0.524897
C49   C     C_R   0.100962 0.578981 0.089099 0.823649
C50   C     C_R   0.899543 0.077800 0.910298 0.793706
O15   O     O_R   0.943940 0.411580 0.064250 -0.547586
O16   O     O_R   0.056060 0.911580 0.935750 -0.547455
O17   O     O_R   0.923670 0.239840 0.935920 -0.528725
O18   O     O_R   0.076330 0.739840 0.064080 -0.527595
C51   C     C_R   0.924199 0.579984 0.078582 0.757726
C52   C     C_R   0.075759 0.079187 0.921371 0.721803
O19   O     O_3   0.993540 0.572620 0.957940 -0.364365
O20   O     O_3   0.006460 0.072620 0.042060 -0.379457
V3    V     V_3+5 0.001200 0.298330 0.007800 1.556284
V4    V     V_3+5 0.998800 0.798330 0.992200 1.581437
C53   C     C_2   0.902432 0.224848 0.778042 0.781876
O21   O     O_2   0.939441 0.335306 0.813093 -0.542924
O22   O     O_R   0.919797 0.150503 0.720634 -0.614626
H3    H     H_    0.964322 0.197741 0.713780 0.332807
C54   C     C_2   0.098603 0.509869 0.229363 0.784422
O23   O     O_2   0.045053 0.579666 0.205456 -0.565032
O24   O     O_R   0.102320 0.364706 0.275342 -0.628835
H4    H     H_    0.057414 0.329877 0.284751 0.323159
O25   O     O_3   0.268979 0.827298 0.824914 -0.612433
H5    H     H_    0.241781 0.804983 0.858964 0.293995
O26   O     O_3   0.731134 0.328170 0.173022 -0.610749
H6    H     H_    0.757624 0.308280 0.138123 0.287917
C55   C     C_2   0.247467 0.836280 0.648382 0.877053
O27   O     O_2   0.287099 0.746529 0.623708 -0.538021
O28   O     O_R   0.181150 0.841871 0.615643 -0.600001
H7    H     H_    0.172569 0.768472 0.572249 0.354288
C56   C     C_2   0.756478 0.332262 0.351274 0.920844
O29   O     O_2   0.717258 0.285244 0.385776 -0.540144
O30   O     O_R   0.824046 0.300468 0.374492 -0.571650
H8    H     H_    0.833715 0.236224 0.419342 0.352493
C57   C     C_2   0.119238 0.371631 0.729467 0.861637
O31   O     O_2   0.087227 0.449538 0.680428 -0.506729
O32   O     O_R   0.109273 0.427413 0.792246 -0.666120
H9    H     H_    0.073966 0.527164 0.790009 0.314902
C58   C     C_2   0.877190 0.879070 0.274381 0.938172
O33   O     O_2   0.891091 0.920572 0.221073 -0.575446
O34   O     O_R   0.904619 0.984607 0.330902 -0.598363
H10   H     H_    0.933627 0.090837 0.320830 0.336422
O35   O     O_3   0.122075 0.066837 0.685348 -0.600837
H11   H     H_    0.090740 0.120792 0.647094 0.354530
O36   O     O_3   0.879368 0.568544 0.314565 -0.614583
H12   H     H_    0.913708 0.626625 0.349731 0.339977
O37   O     O_3   0.236336 0.451746 0.688424 -0.610294
H13   H     H_    0.197728 0.526685 0.667554 0.359007
O38   O     O_3   0.765101 0.943810 0.318843 -0.614664
H14   H     H_    0.734830 0.972090 0.349502 0.328207
O39   O     O_3   0.242902 0.428673 0.819761 -0.598479
H15   H     H_    0.223384 0.451044 0.859683 0.353085
O40   O     O_3   0.756637 0.928608 0.184693 -0.593778
H16   H     H_    0.778749 0.951920 0.146657 0.346502
C59   C     C_2   0.357025 0.418287 0.777264 0.960463
O41   O     O_2   0.377631 0.499238 0.830187 -0.511209
O42   O     O_R   0.369145 0.496441 0.718476 -0.635045
H17   H     H_    0.396152 0.615891 0.726552 0.301963
C60   C     C_2   0.641753 0.909341 0.225094 0.902788
O43   O     O_2   0.623858 0.993606 0.172786 -0.493930
O44   O     O_R   0.624294 0.980498 0.282911 -0.677517
H18   H     H_    0.598578 0.101854 0.275132 0.316342
C61   C     C_2   0.194327 0.241798 0.601317 0.892847
O45   O     O_2   0.142638 0.319268 0.575800 -0.509433
O46   O     O_R   0.230074 0.149497 0.559762 -0.671106
H19   H     H_    0.207153 0.152249 0.511135 0.334658
C62   C     C_2   0.807647 0.724189 0.400763 0.840681
O47   O     O_2   0.859158 0.802628 0.426755 -0.497148
O48   O     O_R   0.772950 0.625975 0.441554 -0.662696
H20   H     H_    0.797416 0.621495 0.489641 0.338692
O49   O     O_3   0.783636 0.916722 0.930436 -0.647254
H21   H     H_    0.737664 0.911273 0.937880 0.319998
O50   O     O_3   0.221350 0.649608 0.055214 -0.648172
H22   H     H_    0.259672 0.728583 0.050729 0.314285
C63   C     C_2   0.815875 0.464135 0.691630 0.905770
O51   O     O_2   0.845231 0.482823 0.645884 -0.487485
O52   O     O_R   0.825768 0.595994 0.743412 -0.620812
H23   H     H_    0.797497 0.571139 0.777596 0.264111
C64   C     C_2   0.154107 0.722309 0.345478 0.815161
O53   O     O_2   0.133514 0.648134 0.390959 -0.500040
O54   O     O_R   0.118677 0.868700 0.310015 -0.641046
H24   H     H_    0.076762 0.900200 0.326528 0.322554
O55   O     O_3   0.675790 0.848655 0.823491 -0.628221
H25   H     H_    0.693882 0.742420 0.852295 0.311455
O56   O     O_3   0.342436 0.629329 0.149682 -0.618149
H26   H     H_    0.338448 0.561279 0.106761 0.327677
C65   C     C_2   0.708012 0.414178 0.580647 0.829461
O57   O     O_2   0.702121 0.347709 0.524647 -0.525993
O58   O     O_R   0.707434 0.608130 0.589850 -0.641131
H27   H     H_    0.700664 0.678895 0.546330 0.297019
C66   C     C_2   0.274665 0.720915 0.445367 0.801050
O59   O     O_2   0.251814 0.612338 0.480747 -0.501769
O60   O     O_R   0.301848 0.891591 0.470731 -0.658384
H28   H     H_    0.302794 0.906252 0.519935 0.326593
C67   C     C_2   0.615217 0.901981 0.699502 0.889417
O61   O     O_2   0.626263 0.734700 0.695421 -0.527330
O62   O     O_R   0.551921 0.964568 0.703635 -0.665675
H29   H     H_    0.519314 0.858004 0.702898 0.296397
C68   C     C_2   0.407140 0.584055 0.273938 0.855063
O63   O     O_2   0.419617 0.432733 0.251184 -0.520531
O64   O     O_R   0.455173 0.724916 0.285826 -0.654575
H30   H     H_    0.497993 0.686120 0.272424 0.302100
O65   O     O_3   0.370856 0.099199 0.806815 -0.652536
H31   H     H_    0.396956 0.152185 0.848914 0.331084
O66   O     O_3   0.630443 0.589496 0.193772 -0.644565
H32   H     H_    0.603639 0.642559 0.152337 0.331631
O67   O     O_3   0.289532 0.197723 0.888459 -0.630617
H33   H     H_    0.308231 0.070835 0.893022 0.337874
O68   O     O_3   0.710986 0.700607 0.113057 -0.630871
H34   H     H_    0.692576 0.573350 0.106687 0.336430
O69   O     O_3   0.175630 0.788999 0.745362 -0.572132
H35   H     H_    0.150081 0.770879 0.780912 0.311074
O70   O     O_3   0.825800 0.287550 0.250374 -0.562349
H36   H     H_    0.849610 0.268265 0.213386 0.313711

loop_
_geom_bond_atom_site_label_1
_geom_bond_atom_site_label_2
_ccdc_geom_bond_type
O14   C50   A    
O25   H5    S    
O64   H30   S    
C2    C31   S    
C66   O60   S    
O12   V3    S    
O15   V3    S    
C56   O29   D    
O1    C3    A    
C27   O25   S    
O67   H33   S    
O2    C4    A    
C2    O7    A    
O30   H8    S    
C60   O43   D    
C27   C29   S    
O68   H34   S    
O5    C3    A    
C40   C62   S    
C31   C43   T    
O32   H9    S    
C5    C21   A    
C54   O23   D    
C27   C33   S    
C68   O64   S    
O20   V4    S    
C35   O65   S    
O54   H24   S    
C24   O56   S    
C60   O44   S    
O16   V4    S    
O39   H15   S    
C40   O38   S    
C14   C68   S    
C15   C17   A    
C46   C48   T    
C49   O18   A    
O66   H32   S    
C28   C34   S    
O18   V4    S    
C39   C61   S    
O55   H25   S    
C26   O40   S    
O52   H23   S    
O60   H28   S    
C8    C12   A    
O13   C49   A    
C10   C64   S    
O16   C52   A    
C36   C38   S    
C65   O57   D    
C67   O62   S    
C48   C51   S    
O15   C51   A    
C37   C43   S    
C28   O26   S    
C25   C33   S    
C26   C34   S    
C55   O27   D    
C12   C66   S    
C39   O37   S    
C28   C30   S    
O44   H18   S    
O1    V2    S    
O6    V2    S    
C32   C44   T    
C29   H1    S    
C30   H2    S    
C38   C40   S    
C34   C46   S    
C66   O59   D    
C39   C41   S    
O14   V4    S    
C63   O51   D    
C40   C42   S    
C3    C8    S    
C45   C47   T    
O13   V3    S    
C30   C56   S    
O49   H21   S    
O20   V3    S    
O4    C2    A    
O65   H31   S    
C53   O22   S    
C26   O68   S    
O11   C51   A    
C35   C37   S    
C6    C49   S    
O24   H4    S    
C9    C17   A    
O22   H3    S    
C53   O21   D    
C41   O35   S    
C37   C39   S    
O4    V2    S    
C7    C11   A    
C29   C55   S    
C61   O46   S    
C13   C67   S    
C55   O28   S    
C25   C35   S    
C21   O49   S    
C67   O61   D    
O6    C4    A    
C58   O34   S    
O28   H7    S    
C23   O55   S    
O2    V1    S    
O19   V3    S    
O42   H17   S    
C59   O42   S    
C38   C44   S    
C25   O39   S    
C27   O69   S    
C57   O32   S    
C9    C11   A    
O48   H20   S    
C5    C19   A    
C10   C12   A    
C6    C20   A    
C9    C63   S    
O35   H11   S    
C41   C57   S    
C62   O47   D    
O3    C1    A    
C42   O36   S    
O17   V3    S    
O3    V1    S    
C33   C41   S    
O38   H14   S    
O50   H22   S    
C64   O54   S    
C20   C54   S    
C11   C65   S    
C5    C50   S    
C10   C18   A    
O37   H13   S    
C54   O24   S    
C36   C60   S    
C42   C58   S    
C62   O48   S    
C25   O67   S    
C59   O41   D    
C56   O30   S    
C19   C53   S    
C26   C36   S    
C34   C42   S    
C47   C52   S    
C13   C15   A    
O34   H10   S    
C22   O50   S    
C14   C16   A    
C57   O31   D    
C15   C23   A    
C16   C18   A    
C64   O53   D    
O46   H19   S    
C1    O8    A    
C17   C19   A    
O69   H35   S    
O62   H29   S    
O40   H16   S    
C18   C20   A    
C63   O52   S    
C35   C59   S    
C8    C14   A    
C6    C22   A    
C50   O17   A    
C4    C7    S    
O5    V1    S    
C21   C23   A    
C36   O66   S    
C22   C24   A    
C65   O58   S    
O7    V1    S    
C7    C13   A    
O19   V4    S    
C68   O63   D    
C33   C45   S    
C28   O70   S    
C16   C24   A    
O70   H36   S    
O9    V2    S    
O36   H12   S    
C58   O33   D    
O12   C52   A    
O10   V1    S    
O8    V2    S    
O26   H6    S    
O56   H26   S    
C1    C32   S    
C29   C37   S    
C61   O45   D    
C30   C38   S    
O58   H27   S    
O11   V4    S    
