data_mof_unit_18934.cif
_audit_creation_date              2012-10-26T18:59:55-0400
_audit_creation_method            fapswitch 2.2
_symmetry_space_group_name_H-M    P1
_symmetry_Int_Tables_number       1
_space_group_crystal_system       triclinic
_cell_length_a                    9.530456
_cell_length_b                    10.805211
_cell_length_c                    17.050024
_cell_angle_alpha                 89.174199
_cell_angle_beta                  93.465587
_cell_angle_gamma                 90.581176
_cell_volume                      1752.31891107

loop_
_atom_site_label
_atom_site_type_symbol
_atom_type_description
_atom_site_fract_x
_atom_site_fract_y
_atom_site_fract_z
_atom_type_partial_charge
C1    C     C_R   0.498688 0.262588 0.497573 0.546697
C2    C     C_R   0.493946 0.129175 0.497199 0.018849
C3    C     C_R   0.389249 0.062148 0.451958 -0.016386
C4    C     C_R   0.516718 0.502038 0.650802 0.548988
C5    C     C_R   0.392556 0.932500 0.454585 -0.150947
C6    C     C_R   0.498219 0.870410 0.499869 -0.009936
C7    C     C_R   0.587840 0.937722 0.550917 -0.003386
C8    C     C_3   0.743297 0.934470 0.567238 -0.273074
C9    C     C_3   0.741037 0.075160 0.565604 -0.270468
C10   C     C_R   0.067461 0.546320 0.437009 0.158810
C11   C     C_R   0.080111 0.442261 0.558249 -0.012606
C12   C     C_R   0.630683 0.445215 0.780170 -0.172151
C13   C     C_R   0.931149 0.442415 0.558332 -0.020118
C14   C     C_R   0.920001 0.545497 0.436676 0.157551
C15   C     C_3   0.911835 0.673738 0.403486 -0.278812
C16   C     C_R   0.500407 0.737444 0.499926 0.546595
C17   C     C_3   0.071207 0.675142 0.404862 -0.280691
C18   C     C_R   0.483123 0.503677 0.348988 0.541717
C19   C     C_R   0.523450 0.508255 0.736766 -0.000733
C20   C     C_R   0.419184 0.570822 0.776332 -0.049880
C21   C     C_R   0.421329 0.564080 0.858217 -0.096097
C22   C     C_R   0.527923 0.498422 0.901499 0.204090
C23   C     C_R   0.592032 0.563449 0.142808 0.046359
C24   C     C_R   0.632328 0.440139 0.861837 -0.119860
C25   C     C_3   0.724245 0.608255 0.105800 -0.256637
C26   C     C_3   0.830445 0.504086 0.101324 -0.432837
C27   C     C_R   0.309735 0.647048 0.733952 0.046030
C28   C     C_R   0.348095 0.751625 0.689905 -0.058061
C29   C     C_R   0.245199 0.820888 0.647634 -0.093174
C30   C     C_R   0.103812 0.785975 0.648695 -0.100391
C31   C     C_R   0.064598 0.683028 0.693181 -0.110705
C32   C     C_R   0.167062 0.613957 0.736051 -0.097173
C33   C     C_3   0.280562 0.122958 0.395800 -0.257798
C34   C     C_R   0.597219 0.545240 0.224259 -0.139455
C35   C     C_3   0.138616 0.129668 0.432526 -0.421232
C36   C     C_R   0.461878 0.546375 0.099268 0.232620
C37   C     C_R   0.475373 0.515523 0.263037 -0.011898
C38   C     C_R   0.346425 0.504030 0.219643 -0.170685
C39   C     C_R   0.340092 0.519535 0.138345 -0.123296
C40   C     C_R   0.585695 0.064696 0.549454 0.000513
Cu1   Cu    Cu3+1 0.640670 0.499980 0.500000 0.922421
Cu2   Cu    Cu3+1 0.359330 0.500020 0.500000 0.933207
H1    H     H_    0.696545 0.558024 0.257579 0.123855
H2    H     H_    0.869476 0.740159 0.444589 0.144329
H3    H     H_    0.112572 0.679443 0.345300 0.120070
H4    H     H_    0.119840 0.741936 0.447635 0.148678
H5    H     H_    0.715021 0.389905 0.894537 0.113989
H6    H     H_    0.711202 0.396971 0.750761 0.115232
H7    H     H_    0.250648 0.482692 0.248410 0.126042
H8    H     H_    0.340272 0.611346 0.887778 0.135766
H9    H     H_    0.240105 0.508745 0.105309 0.114470
H10   H     H_    0.863516 0.469319 0.161162 0.139394
H11   H     H_    0.784220 0.426411 0.066165 0.175532
H12   H     H_    0.317084 0.880207 0.417930 0.118680
H13   H     H_    0.924955 0.539373 0.072842 0.129510
H14   H     H_    0.700996 0.648236 0.046181 0.178660
H15   H     H_    0.772945 0.684491 0.141474 0.119715
H16   H     H_    0.457563 0.778765 0.687901 0.094419
H17   H     H_    0.275041 0.901263 0.613681 0.112229
H18   H     H_    0.024866 0.838842 0.615061 0.096416
H19   H     H_    0.954928 0.656208 0.693970 0.112490
H20   H     H_    0.135661 0.533445 0.769517 0.094420
H21   H     H_    0.148138 0.182635 0.487939 0.172694
H22   H     H_    0.061519 0.176738 0.391057 0.133236
H23   H     H_    0.772661 0.894689 0.626369 0.130419
H24   H     H_    0.098530 0.035049 0.445383 0.132694
H25   H     H_    0.314292 0.216756 0.376961 0.167545
H26   H     H_    0.267622 0.068583 0.340911 0.127250
H27   H     H_    0.799400 0.895900 0.518227 0.131368
H28   H     H_    0.769298 0.116578 0.623807 0.128308
H29   H     H_    0.795571 0.116691 0.515558 0.146129
H30   H     H_    0.140549 0.397444 0.606088 0.117484
H31   H     H_    0.880147 0.397694 0.606252 0.109241
H32   H     H_    0.861315 0.676608 0.343067 0.113959
N1    N     N_2   0.534801 0.489414 0.984699 -0.249170
N2    N     N_2   0.449469 0.556200 0.016531 -0.269002
N3    N     N_R   0.147870 0.500930 0.499500 -0.225632
N4    N     N_R   0.851960 0.500890 0.499500 -0.229634
O1    O     O_R   0.618810 0.319640 0.500000 -0.502139
O2    O     O_R   0.381230 0.319680 0.499990 -0.508691
O3    O     O_R   0.631790 0.498830 0.613930 -0.513127
O4    O     O_R   0.394210 0.498870 0.613920 -0.489579
O5    O     O_R   0.618770 0.680320 0.500010 -0.501868
O6    O     O_R   0.381190 0.680360 0.500000 -0.500498
O7    O     O_R   0.605790 0.501130 0.386080 -0.502410
O8    O     O_R   0.368210 0.501170 0.386070 -0.508436

loop_
_geom_bond_atom_site_label_1
_geom_bond_atom_site_label_2
_ccdc_geom_bond_type
C39   H9    S    
Cu2   O2    S    
C34   C37   A    
Cu1   Cu2   S    
C31   H19   S    
C19   C20   A    
Cu2   O4    S    
C25   H14   S    
C12   H6    S    
C26   H13   S    
C7    C8    S    
C38   H7    S    
C8    H27   S    
C29   C30   A    
C28   C29   A    
C18   C37   S    
C17   H3    S    
C15   H2    S    
C5    C6    A    
C3    C33   S    
C10   C17   S    
Cu1   O5    S    
C16   O6    A    
C1    C2    S    
C11   N3    A    
C4    C19   S    
C4    O3    A    
C29   H17   S    
C8    C9    S    
C30   H18   S    
C7    C40   A    
C35   H22   S    
Cu2   O8    S    
C16   O5    A    
C36   N2    S    
C23   C25   S    
C8    H23   S    
C21   C22   A    
C25   H15   S    
C22   N1    S    
C21   H8    S    
C10   N3    A    
C38   C39   A    
C18   O7    A    
C5    H12   S    
Cu2   O6    S    
C17   H4    S    
C10   C14   A    
Cu1   N4    S    
C11   H30   S    
C35   H24   S    
C25   C26   S    
C9    C40   S    
N1    N2    D    
C37   C38   A    
C26   H10   S    
C31   C32   A    
C23   C34   A    
Cu1   O3    S    
C18   O8    A    
C9    H28   S    
C13   H31   S    
C1    O1    A    
C22   C24   A    
C26   H11   S    
C33   H25   S    
C15   C17   S    
C13   N4    A    
C27   C32   A    
C24   H5    S    
C36   C39   A    
C34   H1    S    
C9    H29   S    
C3    C5    A    
Cu1   O1    S    
C6    C7    A    
C20   C27   S    
C28   H16   S    
Cu1   O7    S    
C12   C24   A    
C2    C3    A    
C32   H20   S    
C11   C13   A    
C30   C31   A    
C12   C19   A    
C33   C35   S    
C14   N4    A    
C6    C16   S    
C2    C40   A    
C15   H32   S    
C4    O4    A    
C20   C21   A    
Cu2   N3    S    
C23   C36   A    
C27   C28   A    
C1    O2    A    
C14   C15   S    
C35   H21   S    
C33   H26   S    
