data_mof_unit_22781.cif
_audit_creation_date              2012-12-10T16:51:00-0500
_audit_creation_method            fapswitch 2.2
_symmetry_space_group_name_H-M    P1
_symmetry_Int_Tables_number       1
_space_group_crystal_system       triclinic
_cell_length_a                    8.054275
_cell_length_b                    8.544139
_cell_length_c                    10.590884
_cell_angle_alpha                 91.428099
_cell_angle_beta                  88.037701
_cell_angle_gamma                 92.801742
_cell_volume                      727.335777249

loop_
_atom_site_label
_atom_site_type_symbol
_atom_type_description
_atom_site_fract_x
_atom_site_fract_y
_atom_site_fract_z
_atom_type_partial_charge
C1    C     C_R   0.544079 0.793049 0.497044 0.897113
C2    C     C_R   0.935165 0.502649 0.079585 0.581724
C3    C     C_R   0.068158 0.594950 0.030759 -0.252647
C4    C     C_R   0.931841 0.405509 0.969405 -0.252684
C5    C     C_R   0.209650 0.608522 0.103607 -0.122500
C6    C     C_R   0.790361 0.391953 0.896546 -0.122524
C7    C     C_R   0.351928 0.535654 0.061502 0.091845
C8    C     C_R   0.648107 0.464881 0.938584 0.091927
C9    C     C_R   0.352794 0.459136 0.943550 0.024653
C10   C     C_R   0.647228 0.541399 0.056541 0.024595
C11   C     C_R   0.498372 0.552307 0.125910 -0.210731
C12   C     C_R   0.455921 0.206951 0.502956 0.897239
C13   C     C_R   0.501659 0.448150 0.874185 -0.210653
C14   C     C_2   0.566742 0.956982 0.494982 -0.345670
C15   C     C_2   0.433258 0.043018 0.505016 -0.345692
C16   C     C_R   0.501162 0.480047 0.738516 0.827487
C17   C     C_R   0.498858 0.520082 0.261520 0.827534
C18   C     C_R   0.202785 0.412088 0.891551 -0.156749
C19   C     C_R   0.797216 0.588373 0.108617 -0.156929
C20   C     C_R   0.064835 0.497802 0.920573 0.581680
F1    F     F_    0.030460 0.578867 0.815985 -0.600998
F2    F     F_    0.969569 0.421574 0.184163 -0.601056
F3    F     F_    0.015569 0.327913 0.418002 -0.515539
F4    F     F_    0.984420 0.672057 0.582031 -0.515500
H1    H     H_    0.960937 0.284485 0.987037 0.158449
H2    H     H_    0.039059 0.715981 0.013122 0.158458
H3    H     H_    0.197375 0.328402 0.812690 0.151381
H4    H     H_    0.802562 0.671947 0.187569 0.151441
H5    H     H_    0.210916 0.687248 0.185577 0.166286
H6    H     H_    0.789103 0.313181 0.814625 0.166302
H7    H     H_    0.693532 0.006303 0.484995 0.218187
H8    H     H_    0.306469 0.993696 0.515003 0.218190
N1    N     N_2   0.950330 0.457950 0.466250 0.283360
N2    N     N_2   0.049670 0.542050 0.533750 0.283269
O1    O     O_R   0.389250 0.738570 0.508280 -0.602046
O2    O     O_R   0.610750 0.261430 0.491720 -0.602017
O3    O     O_R   0.678390 0.711630 0.486650 -0.576728
O4    O     O_R   0.321610 0.288370 0.513350 -0.576677
O5    O     O_R   0.355430 0.513480 0.694040 -0.573920
O6    O     O_R   0.644570 0.486520 0.305960 -0.573863
O7    O     O_R   0.644570 0.486540 0.672410 -0.582349
O8    O     O_R   0.355430 0.513460 0.327590 -0.582284
Zn1   Zn    Zn3+2 0.306940 0.517990 0.514440 1.139320
Zn2   Zn    Zn3+2 0.693060 0.482010 0.485560 1.139316

loop_
_geom_bond_atom_site_label_1
_geom_bond_atom_site_label_2
_ccdc_geom_bond_type
C2    F2    S    
C2    C4    A    
C5    C7    A    
C8    C13   A    
C12   O2    A    
O1    Zn1   S    
C14   H7    S    
O6    Zn2   S    
C5    H5    S    
C12   C15   S    
C1    O3    A    
C10   C19   A    
O3    Zn2   S    
C2    C3    A    
C3    C20   A    
C7    C11   A    
C19   H4    S    
C6    C8    A    
C4    C6    A    
C6    H6    S    
N1    N2    D    
C4    H1    S    
C18   C20   A    
C12   O4    A    
O7    Zn2   S    
O2    Zn2   S    
C10   C11   A    
N2    Zn1   S    
C16   O5    A    
C4    C20   A    
C9    C18   A    
O4    Zn1   S    
C20   F1    S    
C1    O1    A    
C8    C10   A    
O8    Zn1   S    
C13   C16   S    
C7    C9    A    
C9    C13   A    
C17   O8    A    
C11   C17   S    
O5    Zn1   S    
C1    C14   S    
C3    C5    A    
C2    C19   A    
C14   C15   D    
N1    Zn2   S    
C16   O7    A    
C3    H2    S    
F4    N2    S    
C18   H3    S    
F3    N1    S    
C17   O6    A    
C15   H8    S    
