data_mof_unit_67286.cif
_audit_creation_date              2013-03-05T16:01:59-0500
_audit_creation_method            fapswitch 2.2
_symmetry_space_group_name_H-M    P1
_symmetry_Int_Tables_number       1
_space_group_crystal_system       triclinic
_cell_length_a                    8.621597
_cell_length_b                    14.928994
_cell_length_c                    15.100006
_cell_angle_alpha                 95.742631
_cell_angle_beta                  96.417362
_cell_angle_gamma                 93.732735
_cell_volume                      1915.94940648

loop_
_atom_site_label
_atom_site_type_symbol
_atom_site_description
_atom_site_fract_x
_atom_site_fract_y
_atom_site_fract_z
_atom_type_partial_charge
P1    P     P_3+3 0.018620 0.416870 0.295980 0.528549
O1    O     O_2   0.841250 0.444240 0.280450 -0.365438
O2    O     O_3   0.112870 0.447390 0.393710 -0.342517
O3    O     O_3   0.597960 0.615760 0.327700 -0.254974
O4    O     O_2   0.691160 0.548248 0.179304 -0.385967
O5    O     O_3   0.985799 0.298668 0.270752 -0.564824
O6    O     O_3   0.596180 0.707322 0.171318 -0.425719
C1    C     C_3   0.464294 0.838692 0.135255 -0.120475
H1    H     H_    0.573917 0.867660 0.113606 0.208370
P2    P     P_3+3 0.635650 0.716500 0.560900 0.504936
P3    P     P_3+3 0.058115 0.781616 0.379391 0.545897
O7    O     O_2   0.802240 0.729720 0.532850 -0.391524
O8    O     O_3   0.017190 0.664840 0.371090 -0.282330
O9    O     O_2   0.958171 0.822374 0.449131 -0.378376
O10   O     O_3   0.644631 0.745231 0.677848 -0.617668
O11   O     O_3   0.974990 0.820894 0.280792 -0.457642
C2    C     C_3   0.090155 0.831760 0.223105 0.121126
H2    H     H_    0.128704 0.764726 0.199817 0.134196
H3    H     H_    0.192404 0.876149 0.256401 0.038221
C3    C     C_3   0.023677 0.876178 0.141558 -0.082741
C4    C     C_3   0.229066 0.735601 0.642501 0.384801
H4    H     H_    0.316695 0.697344 0.609693 0.117351
H5    H     H_    0.118858 0.733494 0.596261 0.102727
C5    C     C_3   0.295386 0.833113 0.665427 -0.783150
H6    H     H_    0.414495 0.836032 0.702254 0.283755
H7    H     H_    0.299778 0.866727 0.603842 0.209045
H8    H     H_    0.221974 0.871815 0.708217 0.318250
Ba1   Ba    Ba6+2 0.833410 0.543320 0.453520 1.687221
C6    C     C_3   0.930630 0.256388 0.341215 0.658556
H9    H     H_    0.845227 0.295961 0.373703 0.025329
C7    C     C_3   0.065568 0.238285 0.406464 -0.745029
H10   H     H_    0.156643 0.213954 0.368404 0.300747
H11   H     H_    0.037646 0.179814 0.441189 0.181354
H12   H     H_    0.106224 0.298623 0.453840 0.257657
C8    C     C_3   0.777016 0.721812 0.731354 0.226864
H13   H     H_    0.857718 0.683033 0.692575 0.106485
C9    C     C_3   0.717176 0.666249 0.802612 -0.739897
H14   H     H_    0.617129 0.698541 0.829649 0.251168
H15   H     H_    0.670338 0.599067 0.769365 0.212638
P4    P     P_3+3 0.171070 0.583210 0.704020 0.505921
O12   O     O_2   0.348460 0.555790 0.719610 -0.371914
O13   O     O_3   0.076820 0.552690 0.606290 -0.411256
O14   O     O_3   0.591740 0.384320 0.672310 -0.371896
O15   O     O_3   0.198360 0.700910 0.721881 -0.499692
P5    P     P_3+3 0.133595 0.217394 0.629496 0.468424
O16   O     O_3   0.629090 0.386360 0.459240 -0.340921
O17   O     O_3   0.172500 0.335240 0.628910 -0.393289
O18   O     O_2   0.252744 0.175249 0.571436 -0.357841
O19   O     O_3   0.194432 0.180460 0.735296 -0.545636
Ba2   Ba    Ba6+2 0.356410 0.456750 0.546480 1.650445
P6    P     P_3+3 0.555792 0.601846 0.210096 0.571770
C10   C     C_3   0.501422 0.772994 0.205653 0.318473
H16   H     H_    0.389592 0.743105 0.223987 -0.028960
H17   H     H_    0.402738 0.895622 0.164279 0.114632
O20   O     O_3   0.560600 0.613720 0.540760 -0.306433
C11   C     C_3   0.482593 0.276675 0.247256 0.151293
C12   C     C_3   0.487401 0.221368 0.151920 -0.231830
P7    P     P_3+3 0.558483 0.270363 0.435036 0.566634
O21   O     O_2   0.387470 0.270310 0.467210 -0.302167
O22   O     O_3   0.558639 0.231868 0.317247 -0.509399
H18   H     H_    0.118475 0.892091 0.100572 0.193455
C13   C     C_3   0.115300 0.213427 0.808379 0.152860
C14   C     C_3   0.150599 0.155078 0.888794 -0.122358
H19   H     H_    0.271097 0.171993 0.921637 0.144387
P8    P     P_3+3 0.632723 0.399969 0.788987 0.522767
C15   C     C_3   0.554801 0.228937 0.757089 0.239336
H20   H     H_    0.652943 0.225604 0.716009 0.098499
O23   O     O_2   0.510934 0.462224 0.822908 -0.392335
O24   O     O_3   0.581481 0.297355 0.829078 -0.489843
H21   H     H_    0.452170 0.243186 0.711566 0.189914
C16   C     C_3   0.521008 0.137872 0.791888 -0.064910
H22   H     H_    0.416189 0.141591 0.824354 0.090338
C17   C     C_R   0.358920 0.541179 0.162132 0.067911
H23   H     H_    0.328119 0.504821 0.292783 0.243893
C18   C     C_R   0.117821 0.472323 0.206883 0.276937
C19   C     C_R   0.918947 0.494533 0.772829 -0.450565
C20   C     C_R   0.836218 0.449279 0.831771 0.160684
C21   C     C_R   0.905681 0.444148 0.920725 0.105808
C22   C     C_R   0.054072 0.492554 0.953907 0.008896
C23   C     C_R   0.138093 0.533007 0.888581 -0.040364
C24   C     C_R   0.126245 0.499887 0.047455 0.157327
C25   C     C_R   0.287864 0.533901 0.069836 -0.052179
C26   C     C_R   0.367574 0.563322 0.999713 -0.060118
C27   C     C_R   0.288460 0.572023 0.915873 0.042965
C28   C     C_R   0.042941 0.477606 0.120266 -0.237203
C29   C     C_R   0.273154 0.505817 0.225861 -0.391145
C30   C     C_R   0.071818 0.531851 0.796455 0.216413
H24   H     H_    0.918158 0.469411 0.113708 0.205907
H25   H     H_    0.861151 0.503037 0.707194 0.199930
H26   H     H_    0.351596 0.606716 0.870212 0.173596
C31   C     C_R   0.703613 0.942939 0.543409 -0.072679
C32   C     C_R   0.518942 0.798948 0.498222 0.204807
C33   C     C_R   0.374343 0.763586 0.449004 -0.052119
C34   C     C_R   0.263272 0.821169 0.420096 0.079167
C35   C     C_R   0.301609 0.912402 0.427430 -0.324265
C36   C     C_R   0.453196 0.950564 0.458493 0.026013
C37   C     C_R   0.561346 0.896272 0.501299 -0.085406
C38   C     C_R   0.635559 0.089706 0.490320 0.001649
C39   C     C_R   0.746684 0.034985 0.531100 -0.025093
C40   C     C_R   0.674587 0.187247 0.497454 0.172064
C41   C     C_R   0.817143 0.222932 0.548887 -0.470624
C42   C     C_R   0.931948 0.167214 0.579213 0.232754
C43   C     C_R   0.900433 0.073667 0.563499 -0.107967
C44   C     C_R   0.492042 0.042765 0.448155 0.350940
H27   H     H_    0.208105 0.952980 0.406596 0.196906
C45   C     C_2   0.589923 0.827346 0.286725 0.450919
H28   H     H_    0.570102 0.897878 0.302368 -0.002884
O25   O     O_2   0.683629 0.792927 0.336570 -0.450483
Br1   Br    Br    0.837379 0.136484 0.296029 -0.532193
C46   C     C_2   0.858333 0.807507 0.780332 0.736252
H29   H     H_    0.795106 0.850980 0.823311 0.128155
O26   O     O_2   0.996006 0.827356 0.775634 -0.556429
C47   C     C_2   0.836855 0.655396 0.881518 0.628465
H30   H     H_    0.807890 0.610018 0.929264 0.068635
O27   O     O_2   0.967647 0.694296 0.892681 -0.515348
C48   C     C_2   0.319339 0.286354 0.262593 0.476953
H31   H     H_    0.222799 0.246649 0.221758 0.114813
O28   O     O_2   0.295901 0.338911 0.325051 -0.531170
C49   C     C_2   0.557016 0.369701 0.244202 0.412148
H32   H     H_    0.602958 0.387763 0.183938 0.027727
O29   O     O_2   0.559362 0.427963 0.306708 -0.450560
Br2   Br    Br    0.372722 0.102411 0.139467 -0.394718
C50   C     C_2   0.408441 0.270976 0.078425 0.377025
H33   H     H_    0.291086 0.291658 0.082396 0.109190
O30   O     O_2   0.475425 0.290234 0.015091 -0.496204
C51   C     C_2   0.654047 0.208238 0.132842 0.897737
H34   H     H_    0.744290 0.263013 0.150465 0.008506
O31   O     O_2   0.688544 0.137816 0.094081 -0.485948
Br3   Br    Br    0.330687 0.783367 0.030061 -0.404060
C52   C     C_2   0.170729 0.311476 0.834810 0.537677
H35   H     H_    0.148918 0.359927 0.787429 0.045166
O32   O     O_2   0.239352 0.338163 0.908585 -0.541665
C53   C     C_2   0.942245 0.205436 0.784422 0.487298
H36   H     H_    0.875905 0.262626 0.799880 0.000051
O33   O     O_2   0.875608 0.133094 0.752296 -0.536570
Br4   Br    Br    0.026818 0.180572 0.987835 -0.380969
C54   C     C_2   0.135593 0.054806 0.859159 0.840188
H37   H     H_    0.217227 0.025807 0.817066 0.045879
O34   O     O_2   0.033821 0.004889 0.882744 -0.453225
Br5   Br    Br    0.472555 0.045623 0.692048 -0.454957
C55   C     C_2   0.642269 0.114295 0.863308 0.761516
H38   H     H_    0.689733 0.165208 0.917292 0.096671
O35   O     O_2   0.683318 0.037631 0.863979 -0.444985
C56   C     C_2   0.536532 0.582980 0.006919 0.639015
H39   H     H_    0.614527 0.530596 0.019858 0.051420
O36   O     O_2   0.588922 0.657818 0.994816 -0.542955
Br6   Br    Br    0.804146 0.357904 0.985654 -0.521808
Br7   Br    Br    0.319577 0.637315 0.421247 -0.441411
C57   C     C_2   0.032027 0.015565 0.573841 0.602703
H40   H     H_    0.056506 0.971549 0.517290 0.007560
O37   O     O_2   0.107220 0.013098 0.646612 -0.531967
C58   C     C_2   0.855848 0.319835 0.568824 0.645120
H41   H     H_    0.882202 0.362128 0.517644 0.024139
O38   O     O_2   0.875401 0.351549 0.646480 -0.645332
C59   C     C_2   0.782713 0.911676 0.623675 0.626478
H42   H     H_    0.873646 0.865844 0.619074 0.021901
O39   O     O_2   0.762525 0.948515 0.696655 -0.490246
Br8   Br    Br    0.355710 0.088536 0.357468 -0.509947
Br9   Br    Br    0.868126 0.795042 0.068148 -0.377431
C60   C     C_2   0.950533 0.961264 0.167767 0.768214
H43   H     H_    0.850479 0.958979 0.205331 0.050506
O40   O     O_2   0.000344 0.032866 0.145235 -0.454844

loop_
_geom_bond_atom_site_label_1
_geom_bond_atom_site_label_2
_geom_bond_distance
_ccdc_geom_bond_type
C39   C43   1.424352 A    
C41   C42   1.401234 A    
C59   O39   1.217062 D    
C13   C52   1.509857 S    
C35   C36   1.401851 A    
C5    H8    1.102827 S    
C23   C27   1.387081 A    
C24   C25   1.442889 A    
C50   H33   1.083136 S    
C20   C21   1.419676 A    
C11   C12   1.592413 S    
C54   O34   1.220620 D    
Ba1   O16   2.852799 S    
C51   H34   1.082676 S    
O7    Ba1   2.958576 S    
Ba2   O21   2.958637 S    
C13   C53   1.489541 S    
C6    Br1   1.939524 S    
O2    Ba1   3.057565 S    
C8    C9    1.535906 S    
C5    H7    1.103091 S    
O6    C10   1.412348 S    
C23   C30   1.441580 A    
P2    O10   1.766912 S    
C57   O37   1.216982 D    
C26   C56   1.456858 S    
P3    O9    1.537714 D    
P8    O24   1.750913 S    
C50   O30   1.219682 D    
C15   O24   1.403272 S    
C9    C47   1.515288 S    
C45   H28   1.084634 S    
P7    O22   1.813790 S    
C2    C3    1.529580 S    
C48   H31   1.082702 S    
C33   Br7   1.906287 S    
P1    O1    1.606491 D    
C3    H18   1.106641 S    
C46   H29   1.086453 S    
C40   C41   1.419908 A    
C35   H27   1.077434 S    
C12   Br2   1.956979 S    
Ba1   Ba2   4.638402 S    
O2    Ba2   2.926479 S    
C26   C27   1.391489 A    
O11   C2    1.404131 S    
C3    Br9   1.918843 S    
P1    Ba1   3.480712 S    
C7    H11   1.089642 S    
O8    Ba1   2.805266 S    
C6    H9    1.100554 S    
C1    C10   1.538791 S    
C19   H25   1.081522 S    
C16   C55   1.500583 S    
P4    O13   1.610849 S    
C15   H20   1.104460 S    
C10   C45   1.500350 S    
C4    H4    1.107085 S    
O16   P7    1.785875 S    
C14   C54   1.511833 S    
C42   C43   1.396558 A    
C27   H26   1.076378 S    
O10   C8    1.407147 S    
O3    Ba1   2.955454 S    
Ba1   O20   3.018202 S    
C18   C28   1.404342 A    
C32   C37   1.469833 A    
O17   Ba2   2.805811 S    
P5    O17   1.770526 S    
P8    C20   1.876347 S    
O3    P6    1.760933 S    
P1    O5    1.765078 S    
P1    C18   1.901259 S    
P7    C40   1.901284 S    
C5    H6    1.107857 S    
C56   O36   1.216267 D    
C1    H17   1.110066 S    
C12   C51   1.517747 S    
C22   C24   1.469094 A    
C21   C22   1.440116 A    
C1    H1    1.109639 S    
P5    O18   1.547526 D    
P7    O21   1.603107 D    
C14   H19   1.102096 S    
H23   C29   1.069030 S    
C11   O22   1.427567 S    
P1    O2    1.610848 S    
C8    H13   1.112578 S    
C60   O40   1.220034 D    
C52   O32   1.217756 D    
C31   C59   1.456632 S    
C9    H14   1.112013 S    
C12   C50   1.518154 S    
C4    O15   1.397256 S    
P3    O11   1.750724 S    
C18   C29   1.387081 A    
C15   C16   1.528033 S    
P5    O19   1.777072 S    
O14   P8    1.746757 S    
P8    O23   1.542955 D    
C36   C37   1.418693 A    
C13   C14   1.577795 S    
C2    H2    1.111125 S    
C11   C48   1.465692 S    
C7    H12   1.104495 S    
P4    Ba2   3.481428 S    
C33   C34   1.391191 A    
C19   C20   1.398866 A    
P2    O20   1.612114 S    
C8    C46   1.501060 S    
C19   C30   1.390781 A    
C49   O29   1.215290 D    
P2    O7    1.548237 D    
C21   Br6   1.919110 S    
O13   Ba2   3.058592 S    
P3    C34   1.844833 S    
P4    O12   1.606962 D    
C58   O38   1.209097 D    
C38   C39   1.426595 A    
C38   C40   1.463560 A    
C4    H5    1.111189 S    
C53   H36   1.078947 S    
C11   C49   1.498655 S    
O12   Ba2   2.881831 S    
C1    Br3   1.933060 S    
C10   H16   1.110724 S    
P4    C30   1.914168 S    
C47   H30   1.075667 S    
C28   H24   1.067150 S    
P2    Ba1   3.545908 S    
C36   C44   1.423326 A    
C51   O31   1.221806 D    
O19   C13   1.424377 S    
C7    H10   1.083994 S    
P6    C17   1.902529 S    
C44   Br8   1.911983 S    
C56   H39   1.082413 S    
C49   H32   1.083262 S    
O14   Ba2   2.954813 S    
C16   Br5   1.926861 S    
C54   H37   1.082302 S    
O16   Ba2   3.017195 S    
C41   C58   1.456822 S    
Ba2   O20   2.852282 S    
C60   H43   1.084643 S    
C55   O35   1.220469 D    
C52   H35   1.077793 S    
C31   C37   1.421234 A    
O6    P6    1.761340 S    
C16   H22   1.077133 S    
C9    H15   1.105527 S    
C57   H40   1.073117 S    
C14   Br4   1.953479 S    
P3    O8    1.745211 S    
C15   H21   1.103859 S    
C45   O25   1.216036 D    
C38   C44   1.431498 A    
Ba1   O13   2.925765 S    
C32   C33   1.419124 A    
C2    H3    1.107809 S    
C48   O28   1.208751 D    
C17   C25   1.448995 A    
C34   C35   1.370999 A    
C46   O26   1.216123 D    
C17   C29   1.400508 A    
P5    C42   1.892523 S    
C43   C57   1.476350 S    
P2    C32   1.898615 S    
C22   C23   1.443773 A    
P4    O15   1.747228 S    
O5    C6    1.401833 S    
C58   H41   1.079692 S    
C6    C7    1.495068 S    
C25   C26   1.415203 A    
C3    C60   1.492419 S    
C4    C5    1.520706 S    
C59   H42   1.077093 S    
C53   O33   1.218129 D    
O4    P6    1.544987 D    
O1    Ba1   2.881155 S    
C31   C39   1.435565 A    
C55   H38   1.081935 S    
C24   C28   1.433129 A    
C47   O27   1.220614 D    
