data_mof_unit_48799.cif
_audit_creation_date              2012-12-10T19:00:00-0500
_audit_creation_method            fapswitch 2.2
_symmetry_space_group_name_H-M    P1
_symmetry_Int_Tables_number       1
_space_group_crystal_system       triclinic
_cell_length_a                    10.767057
_cell_length_b                    10.773824
_cell_length_c                    9.862872
_cell_angle_alpha                 90.633154
_cell_angle_beta                  90.933141
_cell_angle_gamma                 90.856556
_cell_volume                      1143.76404499

loop_
_atom_site_label
_atom_site_type_symbol
_atom_type_description
_atom_site_fract_x
_atom_site_fract_y
_atom_site_fract_z
_atom_type_partial_charge
C1    C     C_R   0.501316 0.259986 0.498764 0.921227
C2    C     C_R   0.526413 0.068050 0.619074 -0.350560
C3    C     C_R   0.500204 0.872734 0.503890 -0.222325
C4    C     C_R   0.504180 0.127552 0.496425 -0.217989
C5    C     C_R   0.547246 0.599891 0.073950 0.585686
C6    C     C_R   0.449295 0.401374 0.925369 0.595249
C7    C     C_R   0.547189 0.598481 0.929481 -0.277405
C8    C     C_R   0.452388 0.401594 0.070498 -0.334069
C9    C     C_R   0.260129 0.502551 0.498759 0.855884
C10   C     C_R   0.739986 0.498271 0.501381 0.869568
C11   C     C_R   0.236492 0.752678 0.142673 -0.110763
C12   C     C_R   0.500046 0.740112 0.501319 0.930303
C13   C     C_R   0.854040 0.213737 0.873795 -0.146814
C14   C     C_R   0.178431 0.710209 0.259402 -0.200315
C15   C     C_R   0.892326 0.268441 0.753503 -0.257304
C16   C     C_R   0.118334 0.593527 0.259230 0.030680
C17   C     C_R   0.886427 0.397629 0.737543 0.028615
C18   C     C_R   0.118232 0.518425 0.140519 0.559599
C19   C     C_R   0.843166 0.472492 0.844717 0.597298
C20   C     C_R   0.176796 0.562733 0.024446 -0.257435
C21   C     C_R   0.804225 0.416001 0.964654 -0.160918
C22   C     C_R   0.235751 0.678888 0.025544 -0.221466
C23   C     C_R   0.872543 0.499460 0.503960 -0.062693
C24   C     C_R   0.810841 0.287603 0.979487 -0.131399
C25   C     C_R   0.932069 0.546132 0.389878 -0.212780
C26   C     C_R   0.068345 0.457485 0.610142 -0.287243
C27   C     C_3   0.112010 0.313942 0.204133 -0.329782
C28   C     C_3   0.928380 0.665797 0.871868 -0.370825
C29   C     C_3   0.567124 0.094191 0.166549 -0.361758
C30   C     C_3   0.452654 0.914445 0.842619 -0.363357
C31   C     C_3   0.700085 0.749280 0.114047 -0.368096
C32   C     C_3   0.302905 0.238757 0.907721 -0.418895
C33   C     C_R   0.127659 0.504844 0.496965 -0.099456
C34   C     C_R   0.940963 0.454070 0.615511 0.040689
C35   C     C_R   0.059648 0.548969 0.384685 0.023440
C36   C     C_R   0.485603 0.059845 0.374831 0.539924
C37   C     C_R   0.520296 0.940333 0.625598 0.550889
C38   C     C_R   0.480186 0.932459 0.380976 -0.369374
H1    H     H_    0.279358 0.712071 0.934614 0.153851
H2    H     H_    0.769227 0.471182 0.047069 0.129743
H3    H     H_    0.879367 0.580691 0.304079 0.158517
H4    H     H_    0.121398 0.420517 0.694684 0.176261
H5    H     H_    0.460267 0.880618 0.288488 0.225847
H6    H     H_    0.549404 0.120669 0.710463 0.221365
H7    H     H_    0.073231 0.306919 0.307279 0.187239
H8    H     H_    0.214695 0.326430 0.211018 0.173847
H9    H     H_    0.093040 0.223807 0.151821 0.182963
H10   H     H_    0.012185 0.641445 0.813533 0.183384
H11   H     H_    0.944423 0.653058 0.982229 0.166572
H12   H     H_    0.782820 0.245556 0.073326 0.139087
H13   H     H_    0.911195 0.765842 0.855774 0.198036
H14   H     H_    0.657717 0.115039 0.218701 0.161813
H15   H     H_    0.560659 0.155115 0.077027 0.193700
H16   H     H_    0.564591 0.996971 0.128017 0.182683
H17   H     H_    0.467266 0.010852 0.880733 0.182160
H18   H     H_    0.461331 0.853575 0.931860 0.196406
H19   H     H_    0.356813 0.901745 0.799987 0.157486
H20   H     H_    0.730070 0.819326 0.191581 0.186015
H21   H     H_    0.700481 0.796486 0.014612 0.192969
H22   H     H_    0.768655 0.673718 0.117717 0.164583
H23   H     H_    0.583291 0.676462 0.874497 0.243442
H24   H     H_    0.334567 0.174964 0.988373 0.187362
H25   H     H_    0.255727 0.180822 0.828130 0.199998
H26   H     H_    0.233197 0.304379 0.946535 0.188910
H27   H     H_    0.416860 0.323880 0.126164 0.212042
H28   H     H_    0.281323 0.843203 0.142529 0.141127
H29   H     H_    0.859136 0.114172 0.885641 0.141900
H30   H     H_    0.180177 0.768066 0.349963 0.131571
H31   H     H_    0.928117 0.210386 0.673178 0.151110
H32   H     H_    0.173758 0.508472 0.931596 0.150577
N1    N     N_R   0.499970 0.499970 0.857200 -0.141572
N2    N     N_R   0.500030 0.500030 0.142800 -0.130449
O1    O     O_R   0.499990 0.316750 0.614620 -0.571207
O2    O     O_3   0.823383 0.597703 0.825681 -0.614350
O3    O     O_3   0.465710 0.117689 0.251801 -0.616672
O4    O     O_3   0.543821 0.881624 0.747627 -0.597620
O5    O     O_3   0.580047 0.706488 0.146467 -0.595449
O6    O     O_3   0.404739 0.300532 0.848867 -0.579747
O7    O     O_R   0.500010 0.683250 0.385380 -0.564854
O8    O     O_R   0.499990 0.316780 0.385290 -0.587914
O9    O     O_R   0.500010 0.683220 0.614710 -0.579984
O10   O     O_R   0.316760 0.500000 0.614660 -0.613210
O11   O     O_R   0.683240 0.500000 0.385340 -0.625721
O12   O     O_R   0.316760 0.500020 0.385330 -0.626513
O13   O     O_R   0.683240 0.499980 0.614670 -0.585299
O14   O     O_3   0.051301 0.407867 0.130859 -0.636619
Zn1   Zn    Zn3+2 0.500000 0.499980 0.653120 1.016734
Zn2   Zn    Zn3+2 0.500000 0.500020 0.346880 0.991848

loop_
_geom_bond_atom_site_label_1
_geom_bond_atom_site_label_2
_ccdc_geom_bond_type
C4    C36   A    
C10   O13   A    
C28   O2    S    
C18   O14   S    
C31   H20   S    
C19   C21   A    
C5    N2    A    
C16   C35   S    
C7    N1    A    
C28   H13   S    
C6    O6    S    
C29   H16   S    
O10   Zn1   S    
C12   O7    A    
C10   O11   A    
C31   H21   S    
C7    H23   S    
C3    C12   S    
C17   C19   A    
C26   C34   A    
O1    Zn1   S    
C3    C38   A    
C2    H6    S    
C11   H28   S    
C9    O10   A    
C27   H7    S    
O11   Zn2   S    
C8    H27   S    
C9    C33   S    
C20   H32   S    
O7    Zn2   S    
N2    Zn2   S    
C31   O5    S    
O13   Zn1   S    
C24   H12   S    
C6    N1    A    
C15   H31   S    
C8    N2    A    
C32   H26   S    
C25   H3    S    
C11   C14   A    
C5    C7    A    
C6    C8    A    
C30   H18   S    
C13   C24   A    
C30   H19   S    
C31   H22   S    
C27   O14   S    
C2    C4    A    
C36   O3    S    
C30   O4    S    
C28   H11   S    
C26   C33   A    
C23   C34   A    
O9    Zn1   S    
C25   C35   A    
N1    Zn1   S    
C27   H8    S    
C37   O4    S    
C20   C22   A    
C13   C15   A    
C14   C16   A    
C17   C34   S    
C5    O5    S    
C26   H4    S    
C13   H29   S    
C27   H9    S    
C15   C17   A    
C28   H10   S    
C19   O2    S    
O12   Zn2   S    
C32   H25   S    
C29   O3    S    
C10   C23   S    
C30   H17   S    
C11   C22   A    
C1    C4    S    
C1    O1    A    
C36   C38   A    
C32   H24   S    
C38   H5    S    
O8    Zn2   S    
C2    C37   A    
C21   H2    S    
C29   H15   S    
C22   H1    S    
C33   C35   A    
C12   O9    A    
C18   C20   A    
C23   C25   A    
C9    O12   A    
C32   O6    S    
C3    C37   A    
C16   C18   A    
C21   C24   A    
C1    O8    A    
C14   H30   S    
C29   H14   S    
