data_mof_unit_23142.cif
_audit_creation_date              2012-12-11T14:30:05-0500
_audit_creation_method            fapswitch 2.2
_symmetry_space_group_name_H-M    P1
_symmetry_Int_Tables_number       1
_space_group_crystal_system       triclinic
_cell_length_a                    12.841109
_cell_length_b                    12.840458
_cell_length_c                    27.146332
_cell_angle_alpha                 90.00019
_cell_angle_beta                  90.001267
_cell_angle_gamma                 120.001394
_cell_volume                      3876.31207606

loop_
_atom_site_label
_atom_site_type_symbol
_atom_type_description
_atom_site_fract_x
_atom_site_fract_y
_atom_site_fract_z
_atom_type_partial_charge
C1    C     C_R   0.559058 0.454275 0.822369 0.620077
C2    C     C_R   0.893857 0.438641 0.677308 0.619832
C3    C     C_R   0.545727 0.104787 0.822369 0.619980
C4    C     C_R   0.561344 0.455221 0.677314 0.619783
C5    C     C_R   0.895221 0.440946 0.822368 0.620088
C6    C     C_R   0.544793 0.106182 0.677299 0.619576
C7    C     C_R   0.454271 0.559063 0.322372 0.619858
C8    C     C_R   0.438639 0.893855 0.177309 0.619809
C9    C     C_R   0.104784 0.545726 0.322370 0.619910
C10   C     C_R   0.455215 0.561357 0.177309 0.619857
C11   C     C_R   0.440949 0.895225 0.322366 0.619847
C12   C     C_R   0.106142 0.544783 0.177308 0.619870
C13   C     C_R   0.997448 0.503173 0.973191 -0.127370
C14   C     C_R   0.507398 0.015838 0.524568 -0.128842
C15   C     C_R   0.496853 0.494282 0.973193 -0.127377
C16   C     C_R   0.984256 0.491598 0.524584 -0.128679
C17   C     C_R   0.505720 0.002598 0.973197 -0.127395
C18   C     C_R   0.508378 0.492660 0.524594 -0.128768
C19   C     C_R   0.503192 0.997500 0.473179 -0.127511
C20   C     C_R   0.015804 0.507399 0.024578 -0.128676
C21   C     C_R   0.494266 0.496901 0.473206 -0.127476
C22   C     C_R   0.491592 0.984241 0.024584 -0.128694
C23   C     C_R   0.002595 0.505721 0.473195 -0.127464
C24   C     C_R   0.492636 0.508409 0.024582 -0.128680
C25   C     C_R   0.882329 0.605469 0.984800 0.297882
C26   C     C_R   0.601453 0.892390 0.536065 0.303777
C27   C     C_R   0.394466 0.276846 0.984796 0.297862
C28   C     C_R   0.107772 0.709096 0.536084 0.303714
C29   C     C_R   0.723145 0.117671 0.984806 0.297880
C30   C     C_R   0.290899 0.398728 0.536092 0.303706
C31   C     C_R   0.605713 0.882576 0.484778 0.297885
C32   C     C_R   0.892144 0.601205 0.036089 0.303796
C33   C     C_R   0.276834 0.394437 0.484801 0.297807
C34   C     C_R   0.709067 0.107848 0.036094 0.303782
C35   C     C_R   0.117559 0.723167 0.484795 0.297866
C36   C     C_R   0.398759 0.290924 0.036085 0.303769
C37   C     C_R   0.897578 0.531968 0.903226 0.376748
C38   C     C_R   0.565784 0.989921 0.607626 0.425424
C39   C     C_R   0.467926 0.365596 0.903216 0.376747
C40   C     C_R   0.010299 0.575878 0.607654 0.425434
C41   C     C_R   0.634399 0.102397 0.903225 0.376697
C42   C     C_R   0.424114 0.434524 0.607668 0.425275
C43   C     C_R   0.532201 0.897802 0.403200 0.376567
C44   C     C_R   0.989659 0.565503 0.107655 0.425495
C45   C     C_R   0.365587 0.467920 0.403221 0.376572
C46   C     C_R   0.575856 0.010324 0.107657 0.425451
C47   C     C_R   0.102295 0.634414 0.403214 0.376580
C48   C     C_R   0.434474 0.424141 0.107654 0.425491
C49   C     C_R   0.066500 0.527301 0.125769 0.065637
C50   C     C_R   0.479259 0.945748 0.372054 0.057687
C51   C     C_R   0.472709 0.539195 0.125771 0.065613
C52   C     C_R   0.054301 0.533524 0.372065 0.057749
C53   C     C_R   0.460802 0.933515 0.125772 0.065558
C54   C     C_R   0.466474 0.520805 0.372074 0.057715
C55   C     C_R   0.527267 0.066498 0.625763 0.065116
C56   C     C_R   0.945689 0.479222 0.872065 0.058001
C57   C     C_R   0.539161 0.472710 0.625781 0.065420
C58   C     C_R   0.533528 0.054325 0.872068 0.057879
C59   C     C_R   0.933539 0.460809 0.625774 0.065664
C60   C     C_R   0.520778 0.466478 0.872065 0.057944
C61   C     C_R   0.926364 0.548425 0.953524 0.010848
C62   C     C_R   0.556772 0.963513 0.556570 0.011320
C63   C     C_R   0.451532 0.377933 0.953520 0.010800
C64   C     C_R   0.036654 0.593289 0.556591 0.011473
C65   C     C_R   0.622063 0.073650 0.953528 0.010808
C66   C     C_R   0.406697 0.443415 0.556602 0.011397
C67   C     C_R   0.548593 0.926542 0.453504 0.010651
C68   C     C_R   0.963328 0.556593 0.056591 0.011532
C69   C     C_R   0.377921 0.451544 0.453528 0.010716
C70   C     C_R   0.593268 0.036680 0.056595 0.011478
C71   C     C_R   0.073574 0.622076 0.453520 0.010714
C72   C     C_R   0.443403 0.406727 0.056590 0.011522
C73   C     C_R   0.027659 0.448020 0.890409 0.419889
C74   C     C_R   0.474467 0.113246 0.594062 0.372704
C75   C     C_R   0.552070 0.579675 0.890417 0.419923
C76   C     C_R   0.886645 0.361285 0.594059 0.372855
C77   C     C_R   0.420341 0.972399 0.890417 0.419898
C78   C     C_R   0.638640 0.525151 0.594057 0.372778
C79   C     C_R   0.447905 0.027603 0.390407 0.419864
C80   C     C_R   0.113485 0.474782 0.094049 0.372741
C81   C     C_R   0.579677 0.552152 0.390436 0.419896
C82   C     C_R   0.361293 0.886563 0.094054 0.372768
C83   C     C_R   0.972436 0.420318 0.390422 0.419870
C84   C     C_R   0.525277 0.638710 0.094056 0.372772
C85   C     C_R   0.051088 0.454708 0.941422 0.009602
C86   C     C_R   0.459358 0.084425 0.544087 0.005076
C87   C     C_R   0.545352 0.596403 0.941429 0.009609
C88   C     C_R   0.915579 0.374983 0.544099 0.005145
C89   C     C_R   0.403608 0.948971 0.941429 0.009569
C90   C     C_R   0.624971 0.540482 0.544107 0.005245
C91   C     C_R   0.454619 0.051050 0.441417 0.009490
C92   C     C_R   0.084555 0.459545 0.044087 0.005193
C93   C     C_R   0.596394 0.545436 0.441448 0.009492
C94   C     C_R   0.374986 0.915502 0.044093 0.005205
C95   C     C_R   0.949017 0.403591 0.441434 0.009498
C96   C     C_R   0.540520 0.625019 0.044095 0.005205
C97   C     C_R   0.123809 0.397875 0.013289 0.292062
C98   C     C_R   0.404345 0.117027 0.462116 0.297226
C99   C     C_R   0.602190 0.725950 0.013300 0.292102
C100  C     C_R   0.883049 0.287340 0.462138 0.297190
C101  C     C_R   0.274060 0.876248 0.013296 0.292088
C102  C     C_R   0.712633 0.595646 0.462155 0.297296
C103  C     C_R   0.397651 0.123643 0.513285 0.292137
C104  C     C_R   0.117121 0.404495 0.962120 0.297261
C105  C     C_R   0.725910 0.602176 0.513325 0.292106
C106  C     C_R   0.287362 0.882938 0.962127 0.297267
C107  C     C_R   0.876388 0.274052 0.513308 0.292016
C108  C     C_R   0.595561 0.712650 0.962130 0.297300
Cr1   Cr    Cr6+3 0.487630 0.241180 0.750000 1.263526
Cr2   Cr    Cr6+3 0.753550 0.512370 0.750000 1.263440
Cr3   Cr    Cr6+3 0.758820 0.246450 0.750000 1.263566
Cr4   Cr    Cr6+3 0.241180 0.487630 0.250000 1.263523
Cr5   Cr    Cr6+3 0.512370 0.753550 0.250000 1.263531
Cr6   Cr    Cr6+3 0.246450 0.758820 0.250000 1.263505
O1    O     O_R   0.460870 0.120930 0.805240 -0.391518
O2    O     O_R   0.660060 0.539130 0.694760 -0.429701
O3    O     O_R   0.879070 0.339940 0.805240 -0.391542
O4    O     O_R   0.460870 0.120930 0.694760 -0.429522
O5    O     O_R   0.660060 0.539130 0.805240 -0.391530
O6    O     O_R   0.879070 0.339940 0.694760 -0.429601
O7    O     O_R   0.120930 0.460870 0.305240 -0.391492
O8    O     O_R   0.539130 0.660060 0.194760 -0.429601
O9    O     O_R   0.339940 0.879070 0.305240 -0.391462
O10   O     O_R   0.120930 0.460870 0.194760 -0.429625
O11   O     O_R   0.539130 0.660060 0.305240 -0.391496
O12   O     O_R   0.339940 0.879070 0.194760 -0.429623
O13   O     O_R   0.498910 0.350470 0.801870 -0.455101
O14   O     O_R   0.851560 0.501090 0.698130 -0.430484
O15   O     O_R   0.649530 0.148440 0.801870 -0.455110
O16   O     O_R   0.498910 0.350470 0.698130 -0.430644
O17   O     O_R   0.851560 0.501090 0.801870 -0.455151
O18   O     O_R   0.649530 0.148440 0.698130 -0.430434
O19   O     O_R   0.350470 0.498910 0.301870 -0.455085
O20   O     O_R   0.501090 0.851560 0.198130 -0.430529
O21   O     O_R   0.148440 0.649530 0.301870 -0.455096
O22   O     O_R   0.350470 0.498910 0.198130 -0.430542
O23   O     O_R   0.501090 0.851560 0.301870 -0.455091
O24   O     O_R   0.148440 0.649530 0.198130 -0.430567
O25   O     O_3   0.666667 0.333333 0.750000 -0.384373
O26   O     O_3   0.333333 0.666667 0.250000 -0.384417
F1    F     F_    0.945991 0.614590 0.140100 -0.507561
F2    F     F_    0.554592 0.812090 0.385455 -0.571582
F3    F     F_    0.385313 0.331369 0.140094 -0.507506
F4    F     F_    0.188033 0.742501 0.385470 -0.571666
F5    F     F_    0.668635 0.053888 0.140097 -0.507447
F6    F     F_    0.257501 0.445559 0.385472 -0.571691
F7    F     F_    0.615426 0.946715 0.640036 -0.507086
F8    F     F_    0.811642 0.554034 0.885512 -0.572041
F9    F     F_    0.331344 0.385389 0.640111 -0.507496
F10   F     F_    0.742453 0.188229 0.885493 -0.571835
F11   F     F_    0.053798 0.668673 0.640087 -0.507480
F12   F     F_    0.445640 0.257527 0.885477 -0.571747
Cl1   Cl    Cl    0.819278 0.659458 0.073006 -0.320595
Cl2   Cl    Cl    0.703548 0.836449 0.460438 -0.282596
Cl3   Cl    Cl    0.340490 0.159794 0.073002 -0.320588
Cl4   Cl    Cl    0.163640 0.867118 0.460450 -0.282737
Cl5   Cl    Cl    0.840186 0.180676 0.073012 -0.320504
Cl6   Cl    Cl    0.132906 0.296523 0.460450 -0.282708
Cl7   Cl    Cl    0.659693 0.819506 0.572981 -0.320609
Cl8   Cl    Cl    0.836184 0.703279 0.960449 -0.283088
Cl9   Cl    Cl    0.159775 0.340365 0.573004 -0.320403
Cl10  Cl    Cl    0.867107 0.163823 0.960463 -0.283031
Cl11  Cl    Cl    0.180563 0.840228 0.573000 -0.320377
Cl12  Cl    Cl    0.296602 0.132893 0.960452 -0.282878
F13   F     F_    0.197888 0.449729 0.111311 -0.578530
F14   F     F_    0.405151 0.077800 0.358040 -0.509638
F15   F     F_    0.550347 0.748170 0.111318 -0.578466
F16   F     F_    0.922175 0.327367 0.358055 -0.509698
F17   F     F_    0.251837 0.802148 0.111311 -0.578535
F18   F     F_    0.672631 0.594855 0.358075 -0.509652
F19   F     F_    0.449023 0.197362 0.611356 -0.577843
F20   F     F_    0.078013 0.405465 0.858033 -0.509821
F21   F     F_    0.747967 0.549799 0.611274 -0.579053
F22   F     F_    0.327412 0.922084 0.858044 -0.509757
F23   F     F_    0.802287 0.251801 0.611319 -0.578272
F24   F     F_    0.594753 0.672620 0.858051 -0.509734
Cl13  Cl    Cl    0.153522 0.288259 0.038106 -0.266638
Cl14  Cl    Cl    0.335432 0.180501 0.425845 -0.320993
Cl15  Cl    Cl    0.711801 0.865289 0.038117 -0.266513
Cl16  Cl    Cl    0.819693 0.154941 0.425878 -0.320814
Cl17  Cl    Cl    0.134727 0.846501 0.038115 -0.266626
Cl18  Cl    Cl    0.845038 0.664650 0.425903 -0.320848
Cl19  Cl    Cl    0.287996 0.153338 0.538073 -0.266153
Cl20  Cl    Cl    0.180530 0.335524 0.925850 -0.321106
Cl21  Cl    Cl    0.865216 0.711706 0.538181 -0.266718
Cl22  Cl    Cl    0.154972 0.819511 0.925859 -0.321121
Cl23  Cl    Cl    0.846798 0.134769 0.538134 -0.266056
Cl24  Cl    Cl    0.664448 0.845049 0.925864 -0.321254

loop_
_geom_bond_atom_site_label_1
_geom_bond_atom_site_label_2
_ccdc_geom_bond_type
C44   C49   A    
C80   C92   A    
C77   F22   S    
C82   C94   A    
Cr2   O2    S    
C18   C21   A    
Cr4   O26   S    
C5    C56   S    
Cr4   O19   S    
C38   C55   A    
C50   C79   A    
C12   C49   S    
Cr3   O25   S    
C78   C90   A    
C31   C67   A    
C99   C108  A    
C20   C92   A    
C77   C89   A    
C103  Cl19  S    
Cr2   O25   S    
C48   C72   A    
C41   C58   A    
Cr4   O10   S    
C24   C96   A    
C1    O5    A    
Cr6   O12   S    
C46   F5    S    
Cr5   O11   S    
C86   C103  A    
C98   C103  A    
C14   C62   A    
C96   C99   A    
C107  Cl23  S    
C102  C105  A    
C84   C96   A    
C105  Cl21  S    
C42   F9    S    
C84   F15   S    
C58   C77   A    
C55   C74   A    
Cr3   O15   S    
C48   C51   A    
Cr5   O8    S    
C94   C101  A    
C44   F1    S    
C4    C57   S    
C92   C97   A    
C78   F21   S    
C9    O7    A    
Cr6   O21   S    
C19   C67   A    
Cr6   O26   S    
C98   Cl14  S    
Cr2   O14   S    
C6    C55   S    
C79   C91   A    
C13   C20   A    
C33   C69   A    
C32   C68   A    
C25   C32   A    
C26   C62   A    
C82   F17   S    
C35   C71   A    
C26   C31   A    
C79   F14   S    
C40   C59   A    
C3    O15   A    
C22   C94   A    
C9    C52   S    
Cr4   O22   S    
C10   C51   S    
C57   C78   A    
C42   C57   A    
Cr1   O13   S    
Cr1   O4    S    
C16   C88   A    
C87   C108  A    
C59   C76   A    
C45   C69   A    
C45   F6    S    
C18   C90   A    
C23   C71   A    
Cr2   O17   S    
C17   C89   A    
C35   Cl4   S    
C28   C35   A    
C6    O18   A    
C1    C60   S    
C88   C107  A    
C2    O6    A    
C34   C70   A    
C14   C19   A    
C41   C65   A    
C41   F10   S    
C8    O20   A    
C47   F4    S    
C7    O11   A    
C40   F11   S    
C21   C69   A    
C53   C82   A    
C102  Cl18  S    
Cr2   O5    S    
C52   C83   A    
C29   C34   A    
C99   Cl15  S    
C27   Cl12  S    
C81   C93   A    
C97   Cl13  S    
C12   O10   A    
C83   C95   A    
C25   Cl8   S    
Cr5   O26   S    
C26   Cl7   S    
C25   C61   A    
C81   F18   S    
C74   C86   A    
C73   F20   S    
C85   C104  A    
C14   C86   A    
C74   F19   S    
C30   C66   A    
C106  Cl22  S    
C27   C63   A    
C37   C56   A    
C29   C65   A    
Cr6   O9    S    
C28   C64   A    
C8    O12   A    
C15   C24   A    
C2    C59   S    
C45   C54   A    
C16   C23   A    
Cr5   O20   S    
C7    C54   S    
C91   C98   A    
C89   C106  A    
C12   O24   A    
C44   C68   A    
C47   C71   A    
C13   C85   A    
C100  Cl16  S    
C9    O21   A    
C80   F13   S    
C31   Cl2   S    
C101  Cl17  S    
C33   Cl6   S    
C24   C72   A    
C15   C87   A    
C73   C85   A    
C75   C87   A    
C101  C106  A    
C76   C88   A    
C100  C107  A    
C56   C73   A    
C30   C33   A    
C104  Cl20  S    
C75   F24   S    
C95   C100  A    
C93   C102  A    
C29   Cl10  S    
C20   C68   A    
C76   F23   S    
C11   O9    A    
C1    O13   A    
C90   C105  A    
C10   O22   A    
C10   O8    A    
C8    C53   S    
C108  Cl24  S    
C4    O16   A    
C43   C50   A    
C7    O19   A    
C47   C52   A    
C27   C36   A    
C18   C66   A    
C39   C63   A    
C83   F16   S    
C60   C75   A    
C17   C65   A    
C17   C22   A    
C40   C64   A    
C49   C80   A    
Cr3   O3    S    
Cr1   O25   S    
C37   C61   A    
C4    O2    A    
Cr4   O7    S    
C11   C50   S    
C3    O1    A    
C21   C93   A    
C39   C60   A    
C39   F12   S    
C46   C53   A    
C23   C95   A    
Cr5   O23   S    
Cr6   O24   S    
C37   F8    S    
C11   O23   A    
C38   F7    S    
C46   C70   A    
C97   C104  A    
C19   C91   A    
Cr1   O1    S    
C32   Cl1   S    
C3    C58   S    
Cr3   O18   S    
C5    O17   A    
C13   C61   A    
C48   F3    S    
C43   C67   A    
C5    O3    A    
Cr1   O16   S    
C42   C66   A    
C15   C63   A    
Cr3   O6    S    
C43   F2    S    
C16   C64   A    
C30   Cl9   S    
C28   Cl11  S    
C51   C84   A    
C22   C70   A    
C54   C81   A    
C34   Cl5   S    
C36   C72   A    
C36   Cl3   S    
C6    O4    A    
C38   C62   A    
C2    O14   A    
