data_mof_unit_46714.cif
_audit_creation_date              2013-03-05T16:07:35-0500
_audit_creation_method            fapswitch 2.2
_symmetry_space_group_name_H-M    P1
_symmetry_Int_Tables_number       1
_space_group_crystal_system       triclinic
_cell_length_a                    21.771291
_cell_length_b                    7.07529
_cell_length_c                    15.094184
_cell_angle_alpha                 89.976017
_cell_angle_beta                  107.575641
_cell_angle_gamma                 89.948339
_cell_volume                      2216.5426201

loop_
_atom_site_label
_atom_site_type_symbol
_atom_site_description
_atom_site_fract_x
_atom_site_fract_y
_atom_site_fract_z
_atom_type_partial_charge
O1    O     O_R   0.585850 0.505770 0.002130 -0.572800
O2    O     O_R   0.414150 0.005770 0.997870 -0.568753
O3    O     O_R   0.467530 0.173560 0.861970 -0.571870
O4    O     O_R   0.532470 0.673560 0.138030 -0.587967
C1    C     C_R   0.454263 0.345537 0.825564 1.026585
C2    C     C_R   0.546407 0.843926 0.173863 0.972120
O5    O     O_R   0.588690 0.175900 0.993250 -0.544780
O6    O     O_R   0.411310 0.675900 0.006750 -0.550339
O7    O     O_R   0.536170 0.007950 0.130090 -0.596924
O8    O     O_R   0.463830 0.507950 0.869910 -0.588056
C3    C     C_R   0.615440 0.344909 0.999685 0.964406
C4    C     C_R   0.385514 0.845335 0.005233 0.986179
O9    O     O_3   0.482630 0.339970 0.044740 -0.248769
O10   O     O_3   0.517370 0.839970 0.955260 -0.232603
V1    V     V_3+5 0.503220 0.064200 0.991700 1.330416
V2    V     V_3+5 0.496780 0.564200 0.008300 1.323245
C5    C     C_R   0.274115 0.987324 0.953419 0.066161
C6    C     C_R   0.706116 0.492662 0.951865 0.022820
C7    C     C_R   0.317277 0.855345 0.007117 -0.234318
C8    C     C_R   0.684330 0.354973 0.001877 -0.189587
C9    C     C_R   0.293088 0.733265 0.061877 -0.131302
C10   C     C_R   0.730741 0.231940 0.057836 -0.127096
H1    H     H_    0.325827 0.639483 0.110253 0.214213
H2    H     H_    0.716642 0.135520 0.103678 0.186903
C11   C     C_R   0.227940 0.742585 0.061521 0.383135
C12   C     C_R   0.796642 0.242677 0.062342 0.335714
C13   C     C_R   0.184139 0.872599 0.002307 -0.323128
C14   C     C_R   0.817250 0.375468 0.006014 -0.288522
C15   C     C_R   0.208422 0.990252 0.946295 0.083182
C16   C     C_R   0.770471 0.498556 0.950802 0.064503
C17   C     C_3   0.204846 0.200957 0.942122 -0.579136
C18   C     C_3   0.772656 0.709626 0.953645 -0.600309
C19   C     C_3   0.277299 0.198012 0.961288 0.525512
C20   C     C_3   0.705285 0.703425 0.963502 0.536969
H3    H     H_    0.188496 0.263682 0.998169 0.260123
H4    H     H_    0.774834 0.769483 0.886503 0.198112
H5    H     H_    0.177715 0.251788 0.871472 0.247238
H6    H     H_    0.810063 0.765437 0.015278 0.269085
C21   C     C_R   0.931908 0.879930 0.723906 -0.115570
C22   C     C_R   0.070664 0.379999 0.275660 -0.166364
C23   C     C_R   0.575648 0.851767 0.274351 -0.153089
C24   C     C_R   0.427110 0.359656 0.723974 -0.142929
C25   C     C_R   0.945113 0.817552 0.573350 -0.031338
C26   C     C_R   0.059706 0.318843 0.427324 -0.035685
C27   C     C_R   0.971879 0.845559 0.668828 -0.105146
C28   C     C_R   0.032042 0.337569 0.331597 -0.085916
C29   C     C_R   0.865650 0.892089 0.683323 -0.190392
C30   C     C_R   0.137034 0.396872 0.314827 -0.162393
C31   C     C_R   0.837309 0.872361 0.586237 0.120122
C32   C     C_R   0.166987 0.367535 0.410700 0.103996
C33   C     C_R   0.877656 0.823587 0.531335 -0.049572
C34   C     C_R   0.126922 0.337508 0.468334 -0.047951
C35   C     C_R   0.769825 0.893773 0.543528 0.013953
C36   C     C_R   0.235417 0.366106 0.450144 -0.009638
C37   C     C_R   0.741871 0.855501 0.447319 0.013960
C38   C     C_R   0.263290 0.356791 0.547883 0.026346
C39   C     C_R   0.782972 0.797617 0.395737 -0.240550
C40   C     C_R   0.221871 0.329204 0.603236 -0.256310
C41   C     C_R   0.849750 0.781396 0.436194 0.336206
C42   C     C_R   0.155003 0.319410 0.564979 0.329145
C43   C     C_R   0.729804 0.960780 0.594024 -0.259324
C44   C     C_R   0.276624 0.360997 0.394113 -0.179396
C45   C     C_R   0.663516 0.965549 0.556488 0.352276
C46   C     C_R   0.343365 0.358253 0.431241 0.320882
C47   C     C_R   0.633717 0.904990 0.464870 -0.058538
C48   C     C_R   0.372673 0.366674 0.528734 -0.078114
C49   C     C_R   0.673306 0.869440 0.406918 0.106199
C50   C     C_R   0.331897 0.366403 0.587206 0.090723
C51   C     C_R   0.565616 0.879958 0.429126 0.030722
C52   C     C_R   0.441004 0.380486 0.570683 0.017990
C53   C     C_R   0.536849 0.851837 0.333150 0.025516
C54   C     C_R   0.467366 0.371420 0.668165 -0.016248
C55   C     C_R   0.642751 0.853794 0.310533 -0.208873
C56   C     C_R   0.360943 0.377970 0.683953 -0.159058
H7    H     H_    0.669845 0.848550 0.261385 0.166171
H8    H     H_    0.333157 0.409713 0.729637 0.194386
H9    H     H_    0.977764 0.791455 0.533096 0.175944
H10   H     H_    0.028111 0.285259 0.468298 0.186651
H11   H     H_    0.023619 0.836557 0.699984 0.154018
H12   H     H_    0.980546 0.319209 0.301151 0.180131
H13   H     H_    0.837446 0.909123 0.730494 0.105406
H14   H     H_    0.164014 0.433432 0.268473 0.189326
H15   H     H_    0.764092 0.754931 0.324130 0.204083
H16   H     H_    0.240074 0.308910 0.677241 0.210411
H17   H     H_    0.748745 0.020624 0.662518 0.167358
H18   H     H_    0.258354 0.344761 0.319793 0.208070
O11   O     O_R   0.036080 0.231270 0.130120 -0.583862
O12   O     O_R   0.963920 0.731270 0.869880 -0.598724
O13   O     O_R   0.911300 0.558970 0.006750 -0.586144
O14   O     O_R   0.088700 0.058970 0.993250 -0.587977
C57   C     C_R   0.885560 0.389193 0.005109 0.964240
C58   C     C_R   0.115591 0.889232 0.000938 0.982499
O15   O     O_R   0.032450 0.561140 0.138040 -0.571446
O16   O     O_R   0.967550 0.061140 0.861960 -0.591334
O17   O     O_R   0.085870 0.728910 0.002130 -0.565620
O18   O     O_R   0.914130 0.228910 0.997870 -0.572647
C59   C     C_R   0.043221 0.391795 0.174851 1.003422
C60   C     C_R   0.957913 0.891674 0.825058 0.918793
O19   O     O_3   0.017320 0.394650 0.955270 -0.273282
O20   O     O_3   0.982680 0.894650 0.044730 -0.245510
V3    V     V_3+5 0.996780 0.670490 0.008300 1.274950
V4    V     V_3+5 0.003220 0.170490 0.991700 1.263341
N1    N     N_R   0.628634 0.063932 0.607811 0.202871
O21   O     O_R   0.614395 0.240427 0.587647 -0.460034
O22   O     O_R   0.628329 0.997913 0.688007 -0.372559
N2    N     N_R   0.379483 0.330947 0.367358 0.227738
O23   O     O_R   0.398474 0.161225 0.355444 -0.424424
O24   O     O_R   0.377151 0.458697 0.304406 -0.353020
N3    N     N_3   0.525879 0.865508 0.489417 -0.215021
H19   H     H_    0.518076 0.998933 0.513003 0.165067
H20   H     H_    0.548277 0.777796 0.545677 0.147644
N4    N     N_3   0.484341 0.419961 0.517939 -0.190884
H21   H     H_    0.466913 0.534990 0.474226 0.138394
H22   H     H_    0.488721 0.302085 0.479107 0.187329
N5    N     N_R   0.210079 0.639219 0.131284 0.225985
O25   O     O_R   0.241725 0.666531 0.218313 -0.394169
O26   O     O_R   0.171348 0.495741 0.108300 -0.434730
N6    N     N_R   0.842296 0.139819 0.134983 0.229821
O27   O     O_R   0.880607 0.016405 0.115806 -0.364451
O28   O     O_R   0.838555 0.148121 0.219316 -0.347294
N7    N     N_R   0.312970 0.261605 0.055500 0.212113
O29   O     O_R   0.369332 0.338399 0.071402 -0.352345
O30   O     O_R   0.293607 0.214906 0.126187 -0.361131
N8    N     N_R   0.657464 0.801793 0.888303 0.251968
O31   O     O_R   0.661639 0.983781 0.879765 -0.362789
O32   O     O_R   0.608026 0.712416 0.834452 -0.394689
N9    N     N_R   0.298882 0.286238 0.888681 0.223246
O33   O     O_R   0.324456 0.182966 0.837800 -0.468899
O34   O     O_R   0.291855 0.467187 0.873742 -0.426790
N10   N     N_R   0.702900 0.759457 0.056240 0.202862
O35   O     O_R   0.747947 0.706225 0.130522 -0.397871
O36   O     O_R   0.651432 0.838735 0.065819 -0.414793
N11   N     N_R   0.887755 0.708819 0.380726 0.237457
O37   O     O_R   0.925638 0.564839 0.410196 -0.418364
O38   O     O_R   0.875263 0.760543 0.294368 -0.290049
N12   N     N_R   0.116384 0.292494 0.626116 0.230535
O39   O     O_R   0.072087 0.415231 0.627389 -0.402985
O40   O     O_R   0.132028 0.162921 0.690244 -0.412962
N13   N     N_3   0.468467 0.823100 0.293479 -0.184952
H23   H     H_    0.449357 0.941904 0.253375 0.162001
H24   H     H_    0.445030 0.810818 0.344132 0.195868
N14   N     N_3   0.535405 0.381950 0.712317 -0.189087
H25   H     H_    0.555140 0.254189 0.700583 0.226273
H26   H     H_    0.554787 0.492431 0.683308 0.198459

loop_
_geom_bond_atom_site_label_1
_geom_bond_atom_site_label_2
_geom_bond_distance
_ccdc_geom_bond_type
C48   C50   1.428372 A    
C1    C24   1.470748 S    
C45   C47   1.405718 A    
O18   V4    2.012281 S    
C13   C15   1.399061 A    
C5    C15   1.401640 A    
O1    C3    1.313315 A    
O2    C4    1.316269 A    
C2    O7    1.320222 A    
N4    H22   1.040307 S    
O12   V3    2.039130 S    
C29   C31   1.414898 A    
C54   N14   1.431068 S    
C44   H18   1.077291 S    
C32   C36   1.427726 A    
C56   H8    1.069440 S    
C18   H4    1.112385 S    
N8    O32   1.300904 A    
C7    C9    1.403457 A    
N3    H20   1.045466 S    
C31   C35   1.422885 A    
C39   C41   1.401150 A    
C47   C49   1.423527 A    
N2    O23   1.299792 A    
O16   C60   1.312382 A    
C50   C56   1.407690 A    
N5    O25   1.300586 A    
C19   N9    1.456880 S    
C43   C45   1.382385 A    
C51   C53   1.408195 A    
N6    O27   1.298710 A    
O14   V4    2.014330 S    
C20   N10   1.470936 S    
C44   C46   1.390661 A    
C34   C42   1.406874 A    
C57   O18   1.313303 A    
C51   N3    1.436197 S    
C30   H14   1.072292 S    
C14   C16   1.405487 A    
N5    O26   1.298886 A    
C2    C23   1.458068 S    
C32   C34   1.421682 A    
C39   H15   1.077311 S    
C6    C16   1.406686 A    
C18   H6    1.108135 S    
O13   C57   1.323041 A    
C42   N12   1.436485 S    
C6    C8    1.400105 A    
C23   C53   1.397858 A    
C26   C34   1.412604 A    
O5    V1    2.015951 S    
O6    V2    2.014628 S    
C19   N7    1.470372 S    
C55   H7    1.078863 S    
C5    C19   1.495455 S    
O20   V4    2.205914 S    
N4    H21   1.043790 S    
C26   C28   1.393631 A    
O5    C3    1.321249 A    
C35   C37   1.421078 A    
C36   C38   1.417132 A    
C3    C8    1.491940 S    
C24   C56   1.389572 A    
C17   C19   1.515485 S    
C45   N1    1.419926 S    
O15   V3    2.028761 S    
C22   C59   1.459461 S    
C21   C60   1.461762 S    
C53   N13   1.441742 S    
C36   C44   1.406993 A    
C31   C33   1.420128 A    
C38   C50   1.432737 A    
C41   N11   1.437786 S    
C58   O17   1.309212 A    
C17   H5    1.111004 S    
C46   C48   1.417485 A    
O4    V2    2.029860 S    
N10   O36   1.299186 A    
C26   H10   1.081322 S    
N9    O34   1.300736 A    
C37   C39   1.412438 A    
C40   H16   1.076041 S    
O11   V4    2.039771 S    
C6    C20   1.502327 S    
O14   C58   1.325170 A    
O6    C4    1.320626 A    
C24   C54   1.389471 A    
C13   C58   1.490807 S    
N1    O22   1.299182 A    
O1    V2    2.011870 S    
O2    V1    2.012572 S    
C25   C27   1.396094 A    
C27   H11   1.083512 S    
N7    O29   1.296908 A    
C43   H17   1.077685 S    
C49   C55   1.409666 A    
N12   O40   1.301142 A    
O19   V3    2.205793 S    
C8    C10   1.405190 A    
C9    H1    1.079788 S    
N11   O37   1.300923 A    
C17   H3    1.105099 S    
O4    C2    1.318962 A    
C11   C13   1.427374 A    
C22   C28   1.392484 A    
C35   C43   1.401978 A    
N9    O33   1.300654 A    
O15   C59   1.311324 A    
N14   H26   1.045339 S    
O3    V1    2.028699 S    
C21   C29   1.389085 A    
C22   C30   1.391452 A    
C9    C11   1.418222 A    
C20   N8    1.463239 S    
O13   V3    2.015651 S    
O10   V1    1.736829 S    
C12   N6    1.435132 S    
N12   O39   1.301640 A    
O3    C1    1.330008 A    
C37   C49   1.435206 A    
N13   H23   1.045437 S    
C46   N2    1.429434 S    
C25   H9    1.081335 S    
C12   C14   1.427373 A    
C21   C27   1.394376 A    
C11   N5    1.429006 S    
N10   O35   1.302189 A    
O7    V1    2.032301 S    
C1    O8    1.314836 A    
C15   C17   1.493072 S    
O8    V2    2.032898 S    
N3    H19   1.040814 S    
C16   C18   1.494403 S    
N13   H24   1.043117 S    
C25   C33   1.413585 A    
C48   C52   1.433540 A    
N2    O24   1.300957 A    
C47   C51   1.427634 A    
C4    C7    1.496056 S    
C30   C32   1.411412 A    
O20   V3    1.736026 S    
C5    C7    1.396323 A    
C38   C40   1.415800 A    
C14   C57   1.494621 S    
C10   H2    1.080123 S    
C29   H13   1.078184 S    
C52   N4    1.433862 S    
N6    O28   1.301193 A    
N7    O30   1.302637 A    
C23   C55   1.396748 A    
O19   V4    1.736111 S    
C33   C41   1.412205 A    
O16   V4    2.029921 S    
C10   C12   1.417795 A    
O9    V2    1.736916 S    
N1    O21   1.300051 A    
N11   O38   1.300901 A    
N14   H25   1.038504 S    
C52   C54   1.410108 A    
C28   H12   1.083589 S    
C40   C42   1.396472 A    
O12   C60   1.307092 A    
O17   V3    2.012983 S    
C18   C20   1.518984 S    
N8    O31   1.299996 A    
O11   C59   1.306735 A    
