data_mof_unit_39916.cif
_audit_creation_date              2012-12-10T18:24:48-0500
_audit_creation_method            fapswitch 2.2
_symmetry_space_group_name_H-M    P1
_symmetry_Int_Tables_number       1
_space_group_crystal_system       triclinic
_cell_length_a                    14.169223
_cell_length_b                    14.986734
_cell_length_c                    16.811278
_cell_angle_alpha                 87.677902
_cell_angle_beta                  85.87762
_cell_angle_gamma                 90.968299
_cell_volume                      3557.01821568

loop_
_atom_site_label
_atom_site_type_symbol
_atom_type_description
_atom_site_fract_x
_atom_site_fract_y
_atom_site_fract_z
_atom_type_partial_charge
C1    C     C_R   0.500556 0.672468 0.498421 1.023966
C2    C     C_R   0.493261 0.900164 0.574703 -0.099701
C3    C     C_R   0.500356 0.045443 0.503097 -0.095330
C4    C     C_R   0.498813 0.951881 0.501415 -0.105224
C5    C     C_R   0.492616 0.087264 0.577264 -0.039363
C6    C     C_R   0.501471 0.910076 0.426552 -0.072328
C7    C     C_R   0.500316 0.056447 0.357425 0.462869
C8    C     C_R   0.493548 0.942197 0.648502 0.490222
C9    C     C_R   0.498882 0.963405 0.354901 -0.135159
C10   C     C_R   0.496291 0.035636 0.649218 -0.106104
C11   C     C_R   0.197559 0.424651 0.524353 0.515054
C12   C     C_R   0.498888 0.326882 0.504477 0.952442
C13   C     C_R   0.802405 0.573010 0.468525 0.532833
C14   C     C_R   0.207217 0.570797 0.463860 0.516209
C15   C     C_R   0.795417 0.432637 0.539852 0.511701
C16   C     C_R   0.487099 0.504899 0.653149 0.885917
C17   C     C_R   0.512785 0.494066 0.347410 0.934233
C18   C     C_R   0.106398 0.574438 0.464475 -0.192024
C19   C     C_R   0.895513 0.436880 0.547181 -0.187589
C20   C     C_R   0.051358 0.504137 0.503272 -0.051999
C21   C     C_R   0.950243 0.504700 0.504419 -0.081043
C22   C     C_R   0.097579 0.432680 0.540525 -0.137521
C23   C     C_R   0.478048 0.179529 0.577766 0.385096
C24   C     C_R   0.904023 0.573043 0.463128 -0.164353
C25   C     C_R   0.059249 0.646273 0.428096 0.477022
C26   C     C_R   0.942524 0.377352 0.598505 0.564928
C27   C     C_R   0.960707 0.641276 0.420941 -0.118840
C28   C     C_R   0.042308 0.373789 0.593683 -0.100025
C29   C     C_R   0.479280 0.501619 0.741163 -0.272111
C30   C     C_R   0.521039 0.463588 0.265145 -0.270036
C31   C     C_R   0.559466 0.522619 0.782692 -0.158462
C32   C     C_R   0.452150 0.403217 0.239703 -0.137351
C33   C     C_R   0.561386 0.496889 0.863621 0.456647
C34   C     C_R   0.506116 0.816288 0.426392 0.419398
C35   C     C_R   0.459274 0.374822 0.161083 0.457188
C36   C     C_R   0.479110 0.459725 0.904557 -0.119244
C37   C     C_R   0.540345 0.398171 0.111524 -0.100696
C38   C     C_R   0.395842 0.447656 0.866024 0.444945
C39   C     C_R   0.615008 0.447381 0.139646 0.475938
C40   C     C_R   0.394766 0.470540 0.784798 -0.162027
C41   C     C_R   0.603597 0.484205 0.214689 -0.165836
C42   C     C_2   0.475269 0.443794 0.990484 -0.048141
C43   C     C_2   0.537120 0.392126 0.025651 -0.044733
C44   C     C_1   0.636406 0.577801 0.745187 0.311901
C45   C     C_R   0.498172 0.230787 0.506079 -0.288404
C46   C     C_1   0.376606 0.365580 0.293867 0.300505
C47   C     C_3   0.245625 0.278061 0.546305 -0.148202
C48   C     C_3   0.760032 0.711597 0.505217 -0.267536
C49   C     C_3   0.273895 0.611968 0.340099 -0.122265
C50   C     C_3   0.701314 0.360512 0.640323 -0.117678
C51   C     C_3   0.111766 0.783837 0.457484 -0.238113
C52   C     C_3   0.887789 0.372438 0.729413 -0.372251
C53   C     C_1   0.921124 0.705776 0.366720 0.318429
C54   C     C_1   0.084746 0.320023 0.654530 0.191055
C55   C     C_1   0.677668 0.543635 0.237688 0.280065
C56   C     C_R   0.500503 0.767334 0.498956 -0.300470
C57   C     C_1   0.304998 0.463958 0.749183 0.295740
C58   C     C_3   0.307341 0.323765 0.904896 -0.303859
C59   C     C_3   0.761323 0.401223 0.100060 -0.332249
C60   C     C_3   0.302685 0.363335 0.131158 -0.321575
C61   C     C_3   0.714823 0.460805 0.882264 -0.281097
C62   C     C_3   0.464017 0.270525 0.685273 -0.343182
C63   C     C_3   0.601087 0.755798 0.328158 -0.283614
C64   C     C_3   0.637667 0.245090 0.346299 -0.200742
C65   C     C_3   0.377792 0.737809 0.660506 -0.260775
C66   C     C_3   0.397879 0.123887 0.277583 -0.201188
C67   C     C_R   0.518933 0.190478 0.433709 0.421367
C68   C     C_3   0.424407 0.900033 0.773873 -0.235303
C69   C     C_1   0.491704 0.926140 0.277243 0.338113
C70   C     C_1   0.515907 0.076078 0.723264 0.271798
C71   C     C_R   0.488230 0.806875 0.572294 0.422169
C72   C     C_R   0.507420 0.097577 0.430698 -0.107803
H1    H     H_    0.592452 0.358339 0.991349 0.149835
H2    H     H_    0.275031 0.538647 0.331337 0.117835
H3    H     H_    0.341610 0.641407 0.312853 0.191849
H4    H     H_    0.718482 0.422005 0.671883 0.112319
H5    H     H_    0.717607 0.300779 0.677514 0.181232
H6    H     H_    0.625105 0.356707 0.635923 0.155992
H7    H     H_    0.148103 0.756540 0.509501 0.160175
H8    H     H_    0.039369 0.805633 0.477129 0.132148
H9    H     H_    0.152721 0.843786 0.433090 0.193243
H10   H     H_    0.868300 0.443643 0.720263 0.139227
H11   H     H_    0.955489 0.369313 0.758474 0.194056
H12   H     H_    0.421986 0.479219 0.025906 0.157561
H13   H     H_    0.833183 0.339845 0.772008 0.177918
H14   H     H_    0.242833 0.299227 0.940981 0.191640
H15   H     H_    0.369208 0.290711 0.929820 0.179043
H16   H     H_    0.299875 0.303751 0.842679 0.168105
H17   H     H_    0.827185 0.419637 0.062949 0.191575
H18   H     H_    0.734901 0.336139 0.079927 0.154722
H19   H     H_    0.780154 0.394238 0.163177 0.159256
H20   H     H_    0.307275 0.437372 0.135309 0.138586
H21   H     H_    0.253474 0.334830 0.180323 0.176006
H22   H     H_    0.270942 0.349544 0.074555 0.217814
H23   H     H_    0.270125 0.303332 0.602848 0.190519
H24   H     H_    0.756035 0.489926 0.828681 0.150625
H25   H     H_    0.691345 0.391225 0.871353 0.107978
H26   H     H_    0.763829 0.456830 0.930655 0.220316
H27   H     H_    0.461086 0.337959 0.658161 0.160808
H28   H     H_    0.537683 0.251484 0.694988 0.147783
H29   H     H_    0.425250 0.271293 0.744815 0.193411
H30   H     H_    0.627507 0.695541 0.358620 0.237757
H31   H     H_    0.649486 0.814121 0.334564 0.161158
H32   H     H_    0.602429 0.742528 0.263667 0.198677
H33   H     H_    0.653853 0.290169 0.292893 0.170464
H34   H     H_    0.301638 0.235597 0.519741 0.198665
H35   H     H_    0.663401 0.177614 0.331489 0.166874
H36   H     H_    0.676827 0.271462 0.395665 0.174326
H37   H     H_    0.337098 0.800663 0.659680 0.136383
H38   H     H_    0.367824 0.706485 0.721516 0.182826
H39   H     H_    0.347145 0.690789 0.619854 0.179794
H40   H     H_    0.364098 0.158334 0.329359 0.165543
H41   H     H_    0.357881 0.061135 0.268270 0.130651
H42   H     H_    0.393074 0.168228 0.223727 0.230293
H43   H     H_    0.359466 0.924077 0.746631 0.115715
H44   H     H_    0.442559 0.944878 0.821590 0.178283
H45   H     H_    0.182904 0.232734 0.555542 0.150831
H46   H     H_    0.407125 0.833762 0.803535 0.189615
H47   H     H_    0.719017 0.770838 0.487973 0.180225
H48   H     H_    0.833572 0.735175 0.512309 0.135169
H49   H     H_    0.728214 0.684322 0.563726 0.197665
H50   H     H_    0.216342 0.640618 0.306451 0.174910
N1    N     N_R   0.249970 0.499930 0.499970 -0.185476
N2    N     N_1   0.532144 0.106654 0.783078 -0.238177
N3    N     N_R   0.750030 0.500070 0.500030 -0.191403
N4    N     N_1   0.697955 0.622010 0.715561 -0.226518
N5    N     N_1   0.315882 0.335085 0.336593 -0.161789
N6    N     N_1   0.889798 0.757346 0.323291 -0.191942
N7    N     N_1   0.117085 0.277160 0.704214 -0.210906
N8    N     N_1   0.737443 0.590669 0.255660 -0.189469
N9    N     N_1   0.233006 0.459233 0.721074 -0.234852
N10   N     N_1   0.485701 0.897137 0.214979 -0.187041
O1    O     O_R   0.419720 0.632140 0.499990 -0.583790
O2    O     O_3   0.755448 0.648325 0.445131 -0.604111
O3    O     O_3   0.263845 0.634628 0.421225 -0.551118
O4    O     O_3   0.746604 0.354260 0.563317 -0.573219
O5    O     O_3   0.109103 0.721495 0.397006 -0.594932
O6    O     O_3   0.891791 0.325819 0.657536 -0.579638
O7    O     O_3   0.313711 0.417473 0.909272 -0.605983
O8    O     O_3   0.694772 0.468879 0.089738 -0.563252
O9    O     O_3   0.390679 0.320005 0.131880 -0.611062
O10   O     O_3   0.639262 0.516649 0.905794 -0.551297
O11   O     O_3   0.417602 0.210342 0.638890 -0.623309
O12   O     O_R   0.580280 0.367860 0.500010 -0.595627
O13   O     O_3   0.506666 0.770915 0.356157 -0.623505
O14   O     O_3   0.539006 0.243865 0.365100 -0.582318
O15   O     O_3   0.475791 0.752898 0.641443 -0.561193
O16   O     O_3   0.494218 0.107159 0.287229 -0.580406
O17   O     O_3   0.503678 0.891409 0.718497 -0.548423
O18   O     O_R   0.580270 0.632160 0.499980 -0.596941
O19   O     O_R   0.419730 0.367840 0.500020 -0.581470
O20   O     O_R   0.410240 0.500000 0.615800 -0.635381
O21   O     O_R   0.589760 0.500000 0.384200 -0.604239
O22   O     O_R   0.570790 0.500020 0.615800 -0.646886
O23   O     O_R   0.429210 0.499980 0.384200 -0.613950
O24   O     O_3   0.228743 0.346695 0.490139 -0.603144
Zn1   Zn    Zn3+2 0.392800 0.499980 0.500010 1.006412
Zn2   Zn    Zn3+2 0.607200 0.500020 0.499990 0.992753

loop_
_geom_bond_atom_site_label_1
_geom_bond_atom_site_label_2
_ccdc_geom_bond_type
C58   O7    S    
C43   H1    S    
C71   O15   S    
C34   C56   A    
C23   C45   A    
C66   H41   S    
O23   Zn1   S    
C13   O2    S    
C14   C18   A    
C36   C42   S    
C61   H26   S    
C24   C27   A    
C62   O11   S    
C17   O21   A    
C58   H15   S    
C6    C9    A    
C61   H24   S    
C64   H33   S    
C39   C41   A    
C15   C19   A    
C44   N4    T    
O19   Zn1   S    
C48   O2    S    
C52   H13   S    
C35   C37   A    
C1    C56   S    
C9    C69   S    
O22   Zn2   S    
C34   O13   S    
C14   O3    S    
C49   H50   S    
C50   H6    S    
C33   C36   A    
C67   C72   A    
C59   H17   S    
O21   Zn2   S    
C19   C26   A    
C51   H8    S    
C65   H39   S    
C68   O17   S    
C68   H46   S    
C39   O8    S    
C41   C55   S    
C45   C67   A    
C52   O6    S    
C38   O7    S    
C31   C33   A    
C30   C41   A    
C40   C57   S    
C65   O15   S    
C66   H42   S    
C51   H9    S    
C66   O16   S    
C62   H29   S    
C13   N3    A    
C60   H21   S    
C55   N8    T    
C12   O12   A    
C49   O3    S    
C38   C40   A    
C22   C28   A    
C17   C30   S    
C12   O19   A    
C23   O11   S    
C18   C25   A    
C63   H30   S    
C1    O1    A    
C58   H14   S    
C64   H36   S    
C48   H47   S    
C60   H20   S    
C11   N1    A    
C31   C44   S    
C32   C35   A    
C46   N5    T    
C42   H12   S    
C63   H31   S    
C48   H49   S    
C28   C54   S    
N3    Zn2   S    
C63   H32   S    
C15   O4    S    
N1    Zn1   S    
C3    C5    A    
C16   C29   S    
C6    C34   A    
C13   C24   A    
C59   H18   S    
C37   C43   S    
C52   H11   S    
C25   O5    S    
C53   N6    T    
C50   H4    S    
C60   O9    S    
C5    C23   A    
C47   H34   S    
C67   O14   S    
C49   H3    S    
C1    O18   A    
C16   O20   A    
C59   H19   S    
C52   H10   S    
C65   H37   S    
C11   O24   S    
C68   H44   S    
C62   H28   S    
C10   C70   S    
C4    C6    A    
O1    Zn1   S    
C35   O9    S    
C16   O22   A    
C42   C43   D    
O12   Zn2   S    
C3    C4    A    
C17   O23   A    
C50   H5    S    
C51   O5    S    
C7    C72   A    
C48   H48   S    
C64   H35   S    
C7    O16   S    
C7    C9    A    
C54   N7    T    
O20   Zn1   S    
C14   N1    A    
O18   Zn2   S    
C64   O14   S    
C32   C46   S    
C57   N9    T    
C8    C10   A    
C61   H25   S    
C20   C22   A    
C12   C45   S    
C26   O6    S    
C58   H16   S    
C27   C53   S    
C33   O10   S    
C25   C27   A    
C11   C22   A    
C26   C28   A    
C36   C38   A    
C3    C72   A    
C5    C10   A    
C29   C31   A    
C50   O4    S    
C30   C32   A    
C59   O8    S    
C69   N10   T    
C2    C4    A    
C29   C40   A    
C8    O17   S    
C18   C20   A    
C51   H7    S    
C65   H38   S    
C68   H43   S    
C62   H27   S    
C70   N2    T    
C61   O10   S    
C47   H45   S    
C20   C21   A    
C37   C39   A    
C47   O24   S    
C21   C24   A    
C2    C8    A    
C47   H23   S    
C49   H2    S    
C66   H40   S    
C15   N3    A    
C63   O13   S    
C2    C71   A    
C56   C71   A    
C19   C21   A    
C60   H22   S    
