data_mof_unit_25364.cif
_audit_creation_date              2012-10-26T18:41:26-0400
_audit_creation_method            fapswitch 2.2
_symmetry_space_group_name_H-M    P1
_symmetry_Int_Tables_number       1
_space_group_crystal_system       triclinic
_cell_length_a                    19.424632
_cell_length_b                    18.098462
_cell_length_c                    10.826982
_cell_angle_alpha                 89.990208
_cell_angle_beta                  89.879271
_cell_angle_gamma                 90.029906
_cell_volume                      3806.28107082

loop_
_atom_site_label
_atom_site_type_symbol
_atom_type_description
_atom_site_fract_x
_atom_site_fract_y
_atom_site_fract_z
_atom_type_partial_charge
C1    C     C_R   0.367434 0.499916 0.499973 0.550580
C2    C     C_R   0.927818 0.495822 0.506229 -0.064137
C3    C     C_R   0.440350 0.721587 0.520511 0.049556
C4    C     C_R   0.545787 0.279515 0.571950 0.077060
C5    C     C_R   0.559668 0.721630 0.479497 0.048853
C6    C     C_R   0.454194 0.279477 0.428092 0.076870
C7    C     C_R   0.438548 0.799379 0.517520 0.244337
C8    C     C_R   0.548114 0.200970 0.572819 0.261385
C9    C     C_R   0.561496 0.799428 0.482478 0.244521
C10   C     C_R   0.451829 0.200934 0.427317 0.261084
C11   C     C_R   0.500027 0.839626 0.499999 0.049209
C12   C     C_R   0.632557 0.499971 0.500167 0.549742
C13   C     C_R   0.499981 0.162144 0.500043 0.067292
C14   C     C_R   0.530577 0.962542 0.402642 -0.053639
C15   C     C_R   0.469745 0.040049 0.597640 -0.060541
C16   C     C_R   0.469470 0.962471 0.597404 -0.053549
C17   C     C_R   0.530263 0.040121 0.402411 -0.060180
C18   C     C_R   0.499991 0.079606 0.500025 0.088851
C19   C     C_R   0.500034 0.922580 0.500022 0.045446
C20   C     C_R   0.508894 0.499976 0.262183 0.544047
C21   C     C_R   0.491117 0.499961 0.737821 0.542178
C22   C     C_R   0.535826 0.635192 0.110429 -0.128806
C23   C     C_R   0.708142 0.499507 0.500710 0.005802
C24   C     C_R   0.464527 0.364370 0.889257 -0.128889
C25   C     C_R   0.464208 0.635157 0.889522 -0.127648
C26   C     C_R   0.535485 0.364406 0.110826 -0.128806
C27   C     C_R   0.520663 0.702697 0.053459 0.200913
C28   C     C_R   0.479900 0.296760 0.945801 0.238732
C29   C     C_R   0.479369 0.702676 0.946474 0.200899
C30   C     C_R   0.520077 0.296779 0.054345 0.238719
C31   C     C_R   0.486853 0.567387 0.939726 -0.031014
C32   C     C_R   0.513044 0.432201 0.060385 -0.046071
C33   C     C_R   0.513184 0.567401 0.060245 -0.031419
C34   C     C_R   0.291832 0.499196 0.500673 0.007729
C35   C     C_R   0.486984 0.432186 0.939655 -0.045940
C36   C     C_R   0.482492 0.499828 0.874083 -0.014051
C37   C     C_R   0.517536 0.499850 0.125923 -0.013891
C38   C     C_R   0.743863 0.432242 0.491796 -0.137437
C39   C     C_R   0.254437 0.565629 0.501177 -0.126885
C40   C     C_R   0.256341 0.431538 0.501568 -0.131710
C41   C     C_R   0.745276 0.565872 0.510816 -0.132353
C42   C     C_R   0.815457 0.431347 0.493026 -0.092453
C43   C     C_R   0.182675 0.564266 0.502518 -0.063199
C44   C     C_R   0.184762 0.430323 0.502968 -0.097476
C45   C     C_R   0.963745 0.468503 0.402797 0.226613
C46   C     C_R   0.817016 0.564827 0.512553 -0.091332
C47   C     C_R   0.852269 0.497538 0.503755 0.068050
C48   C     C_R   0.147663 0.496593 0.503059 0.091668
C49   C     C_3   0.923739 0.504095 0.215404 -0.093574
C50   C     C_3   0.089804 0.500289 0.791122 -0.087379
C51   C     C_3   0.062745 0.361918 0.290790 -0.092447
C52   C     C_3   0.899657 0.495370 0.781792 -0.107295
C53   C     C_3   0.342913 0.841735 0.422000 -0.102985
C54   C     C_3   0.647267 0.199983 0.698181 -0.067926
C55   C     C_3   0.657233 0.841659 0.577935 -0.103374
C56   C     C_R   0.036264 0.522983 0.608503 0.243770
C57   C     C_3   0.352230 0.199811 0.303153 -0.068927
C58   C     C_R   0.036078 0.464501 0.404924 0.235993
C59   C     C_R   0.964122 0.522360 0.610034 0.247957
C60   C     C_R   0.072086 0.494845 0.505436 -0.058829
Cu1   Cu    Cu3+1 0.500000 0.573360 0.500000 0.932947
Cu2   Cu    Cu3+1 0.500000 0.426640 0.500000 0.957459
H1    H     H_    0.567376 0.635825 0.192534 0.174130
H2    H     H_    0.154383 0.615830 0.502732 0.143826
H3    H     H_    0.158292 0.377708 0.505625 0.105024
H4    H     H_    0.845097 0.616329 0.520378 0.145753
H5    H     H_    0.393095 0.692200 0.538686 0.160360
H6    H     H_    0.580028 0.312288 0.628049 0.113878
H7    H     H_    0.606916 0.692268 0.461344 0.160115
H8    H     H_    0.419975 0.312208 0.371921 0.114801
H9    H     H_    0.554266 0.933755 0.325967 0.228468
H10   H     H_    0.446057 0.069228 0.673871 0.170040
H11   H     H_    0.445786 0.933630 0.674070 0.228591
H12   H     H_    0.432531 0.364014 0.807769 0.196825
H13   H     H_    0.553940 0.069356 0.326186 0.170246
H14   H     H_    0.615473 0.188226 0.281174 0.357723
H15   H     H_    0.535799 0.782597 0.754659 0.312134
H16   H     H_    0.384562 0.188058 0.718958 0.356961
H17   H     H_    0.464274 0.782556 0.245343 0.312486
H18   H     H_    0.975670 0.520889 0.182071 0.156797
H19   H     H_    0.896384 0.552316 0.256266 0.122344
H20   H     H_    0.893774 0.485651 0.133947 0.131346
H21   H     H_    0.122012 0.456333 0.748445 0.100652
H22   H     H_    0.043498 0.475539 0.834973 0.121947
H23   H     H_    0.432653 0.635762 0.807424 0.174696
H24   H     H_    0.120733 0.526159 0.865463 0.158271
H25   H     H_    0.014844 0.350052 0.238791 0.176761
H26   H     H_    0.062090 0.332244 0.381026 0.089538
H27   H     H_    0.106232 0.339181 0.236243 0.130921
H28   H     H_    0.927862 0.441762 0.777446 0.080278
H29   H     H_    0.845456 0.486938 0.752987 0.134487
H30   H     H_    0.898842 0.512906 0.879926 0.138246
H31   H     H_    0.331405 0.786464 0.381839 0.105672
H32   H     H_    0.373452 0.875558 0.355708 0.162691
H33   H     H_    0.293123 0.870371 0.436966 0.165357
H34   H     H_    0.567481 0.364079 0.192315 0.197355
H35   H     H_    0.626716 0.235874 0.772977 0.156805
H36   H     H_    0.676616 0.232308 0.628245 0.079235
H37   H     H_    0.683905 0.160913 0.741666 0.176220
H38   H     H_    0.668762 0.786324 0.617811 0.105213
H39   H     H_    0.626753 0.875335 0.644459 0.163075
H40   H     H_    0.707018 0.870365 0.562968 0.165536
H41   H     H_    0.372235 0.235873 0.228059 0.157464
H42   H     H_    0.323239 0.231944 0.373765 0.078380
H43   H     H_    0.315406 0.160662 0.260283 0.174391
H44   H     H_    0.716569 0.380254 0.483945 0.133490
H45   H     H_    0.280503 0.618523 0.500591 0.127211
H46   H     H_    0.283795 0.379458 0.501736 0.129029
H47   H     H_    0.719001 0.618452 0.517979 0.127919
H48   H     H_    0.842277 0.379007 0.486778 0.131807
N1    N     N_R   0.500000 0.683620 0.500000 -0.303885
N2    N     N_R   0.500000 0.316380 0.500000 -0.262786
O1    O     O_R   0.400190 0.561980 0.499980 -0.517331
O2    O     O_2   0.607674 0.183870 0.035554 -0.253160
O3    O     O_3   0.590673 0.233938 0.257973 -0.582858
O4    O     O_2   0.388860 0.767420 0.792567 -0.281833
O5    O     O_2   0.423541 0.837988 0.974060 -0.156388
O6    O     O_3   0.511589 0.824224 0.795149 -0.494116
O7    O     O_2   0.501816 0.158794 0.860865 -0.185276
O8    O     O_2   0.392171 0.183876 0.964737 -0.253567
O9    O     O_3   0.409266 0.233848 0.742243 -0.584416
O10   O     O_2   0.611173 0.767531 0.207348 -0.284612
O11   O     O_2   0.576498 0.838074 0.025830 -0.156855
O12   O     O_R   0.599810 0.438020 0.500020 -0.507448
O13   O     O_3   0.488451 0.824207 0.204749 -0.493560
O14   O     O_3   0.927834 0.444946 0.299839 -0.567010
O15   O     O_3   0.071575 0.555470 0.705224 -0.521901
O16   O     O_3   0.072601 0.438870 0.303472 -0.554122
O17   O     O_3   0.930254 0.552315 0.711035 -0.523597
O18   O     O_3   0.376801 0.835498 0.536483 -0.538768
O19   O     O_3   0.593983 0.158757 0.642977 -0.537637
O20   O     O_3   0.623250 0.835607 0.463516 -0.539492
O21   O     O_3   0.405967 0.158710 0.357113 -0.537408
O22   O     O_R   0.599810 0.561980 0.500020 -0.517738
O23   O     O_R   0.400190 0.438020 0.499980 -0.507193
O24   O     O_R   0.500000 0.561950 0.319660 -0.498708
O25   O     O_R   0.500000 0.438050 0.680340 -0.505856
O26   O     O_R   0.500000 0.561950 0.680340 -0.499633
O27   O     O_R   0.500000 0.438050 0.319660 -0.505094
O28   O     O_2   0.498011 0.158863 0.139516 -0.184892
S1    S     S_3+6 0.553957 0.215083 0.120917 0.035943
S2    S     S_3+6 0.447950 0.784677 0.877145 0.064377
S3    S     S_3+6 0.445938 0.215040 0.879347 0.034888
S4    S     S_3+6 0.552084 0.784729 0.122764 0.063336

loop_
_geom_bond_atom_site_label_1
_geom_bond_atom_site_label_2
_ccdc_geom_bond_type
C25   C31   A    
C15   C18   A    
C57   H43   S    
O3    S1    S    
C58   O16   S    
C8    C13   A    
C27   C29   A    
O7    S3    D    
C14   H9    S    
O9    S3    S    
C52   H28   S    
C35   C36   A    
C10   O21   S    
C21   O25   A    
C4    C8    A    
C24   H12   S    
Cu2   O12   S    
C50   H22   S    
C21   C36   S    
C7    C11   A    
C54   O19   S    
C55   H40   S    
C11   C19   S    
C30   S1    S    
C13   C18   S    
C34   C40   A    
C51   O16   S    
C20   O27   A    
C38   C42   A    
C3    C7    A    
Cu1   O26   S    
C49   H20   S    
C53   H33   S    
O13   S4    S    
C58   C60   A    
C15   C16   A    
H14   O3    S    
C1    C34   S    
C56   O15   S    
C49   H19   S    
C22   C33   A    
H16   O9    S    
C7    O18   S    
C5    H7    S    
C43   H2    S    
C22   H1    S    
C3    N1    A    
O11   S4    D    
Cu1   O22   S    
C41   C46   A    
C31   C33   A    
C54   H35   S    
O10   S4    D    
Cu2   O27   S    
C43   C48   A    
C40   H46   S    
C4    N2    A    
C41   H47   S    
C25   C29   A    
C14   C17   A    
C57   O21   S    
C44   H3    S    
O8    S3    D    
C1    O1    A    
C21   O26   A    
C50   H21   S    
C48   C60   S    
C2    C45   A    
C26   H34   S    
C57   H41   S    
C45   C58   A    
C24   C35   A    
C53   H31   S    
C34   C39   A    
C32   C35   A    
O28   S1    D    
H15   O6    S    
C51   H25   S    
C12   C23   S    
C4    H6    S    
C26   C32   A    
C39   C43   A    
C5    N1    A    
C33   C37   A    
C16   H11   S    
Cu2   O23   S    
C38   H44   S    
C39   H45   S    
O2    S1    D    
C5    C9    A    
C49   O14   S    
C12   O12   A    
C45   O14   S    
C8    O19   S    
C25   H23   S    
C17   C18   A    
C28   S3    S    
C32   C37   A    
C20   O24   A    
C9    C11   A    
O4    S2    D    
C26   C30   A    
C22   C27   A    
Cu1   O1    S    
C54   H37   S    
C52   H30   S    
C52   O17   S    
Cu1   N1    S    
C9    O20   S    
C6    H8    S    
C57   H42   S    
C46   C47   A    
C59   O17   S    
C53   H32   S    
C2    C59   A    
C6    N2    A    
C14   C19   A    
C3    H5    S    
C24   C28   A    
O6    S2    S    
C10   C13   A    
C51   H26   S    
C6    C10   A    
C49   H18   S    
C46   H4    S    
C50   O15   S    
C55   H38   S    
C2    C47   S    
C23   C38   A    
C55   H39   S    
C23   C41   A    
C56   C59   A    
C28   C30   A    
O5    S2    D    
C42   H48   S    
C51   H27   S    
C20   C37   S    
C27   S4    S    
C16   C19   A    
C29   S2    S    
C15   H10   S    
C42   C47   A    
Cu2   O25   S    
H17   O13   S    
Cu1   Cu2   S    
C50   H24   S    
C56   C60   A    
C40   C44   A    
Cu2   N2    S    
C55   O20   S    
C17   H13   S    
C31   C36   A    
C54   H36   S    
C52   H29   S    
C12   O22   A    
C53   O18   S    
C1    O23   A    
C44   C48   A    
Cu1   O24   S    
