data_mof_unit_61317.cif
_audit_creation_date              2012-12-10T18:42:31-0500
_audit_creation_method            fapswitch 2.2
_symmetry_space_group_name_H-M    P1
_symmetry_Int_Tables_number       1
_space_group_crystal_system       triclinic
_cell_length_a                    8.583839
_cell_length_b                    10.686628
_cell_length_c                    9.83728
_cell_angle_alpha                 89.279438
_cell_angle_beta                  98.13625
_cell_angle_gamma                 90.417239
_cell_volume                      893.228582983

loop_
_atom_site_label
_atom_site_type_symbol
_atom_type_description
_atom_site_fract_x
_atom_site_fract_y
_atom_site_fract_z
_atom_type_partial_charge
C1    C     C_R   0.509565 0.259963 0.501693 0.919777
C2    C     C_R   0.578044 0.061735 0.627558 0.497343
C3    C     C_R   0.537459 0.872096 0.499792 -0.245494
C4    C     C_R   0.534110 0.127933 0.503730 -0.227481
C5    C     C_R   0.439912 0.598712 0.063211 -0.114263
C6    C     C_R   0.557180 0.400404 0.936651 -0.089728
C7    C     C_R   0.440793 0.599019 0.919547 -0.042554
C8    C     C_R   0.557706 0.400423 0.080417 -0.079982
C9    C     C_3   0.988031 0.403680 0.218822 0.147490
C10   C     C_3   0.945946 0.536197 0.161298 -0.420578
C11   C     C_3   0.961354 0.545867 0.008802 -0.872987
C12   C     C_R   0.510457 0.740049 0.500086 0.900501
C13   C     C_3   0.010656 0.731976 0.573462 0.066264
C14   C     C_3   0.114201 0.828060 0.657927 -0.296774
C15   C     C_3   0.123108 0.950655 0.577845 -0.958386
C16   C     C_3   0.693528 0.847405 0.236821 0.126794
C17   C     C_3   0.794661 0.959553 0.203098 -0.409637
C18   C     C_3   0.956449 0.917258 0.174922 -0.958795
C19   C     C_3   0.789682 0.161713 0.746927 0.067449
C20   C     C_3   0.884894 0.144508 0.889102 -0.368332
C21   C     C_3   0.049489 0.201346 0.895927 -0.941385
C22   C     C_R   0.201542 0.493112 0.464447 0.887227
C23   C     C_R   0.798439 0.502174 0.534752 0.877541
C24   C     C_2   0.036730 0.474254 0.448435 0.143730
C25   C     C_2   0.961434 0.523237 0.546491 0.187204
C26   C     C_R   0.519666 0.066693 0.377932 -0.340405
C27   C     C_R   0.568605 0.933157 0.625637 -0.331442
C28   C     C_R   0.534944 0.939304 0.375283 0.504939
H1    H     H_    0.499796 0.117055 0.280750 0.197092
H2    H     H_    0.024752 0.607502 0.216494 0.211843
H3    H     H_    0.084501 0.527163 0.992682 0.271541
H4    H     H_    0.929050 0.641504 0.969842 0.263080
H5    H     H_    0.881549 0.477792 0.949232 0.268316
H6    H     H_    0.885794 0.762189 0.565164 0.121482
H7    H     H_    0.046088 0.730295 0.468663 0.102332
H8    H     H_    0.066065 0.846071 0.754949 0.211263
H9    H     H_    0.235076 0.790743 0.683992 0.240450
H10   H     H_    0.003303 0.987473 0.543260 0.257538
H11   H     H_    0.183129 0.935643 0.486542 0.270780
H12   H     H_    0.588718 0.881702 0.722126 0.195070
H13   H     H_    0.191869 0.020851 0.643931 0.270369
H14   H     H_    0.686892 0.780143 0.151045 0.164917
H15   H     H_    0.752083 0.797039 0.329804 0.108663
H16   H     H_    0.733905 0.010131 0.111594 0.235909
H17   H     H_    0.811481 0.025011 0.290858 0.224197
H18   H     H_    0.017223 0.863665 0.264008 0.261357
H19   H     H_    0.029650 0.000326 0.157181 0.277999
H20   H     H_    0.944700 0.857506 0.082458 0.261559
H21   H     H_    0.788213 0.262536 0.718497 0.172949
H22   H     H_    0.852028 0.110793 0.672304 0.127914
H23   H     H_    0.391013 0.677380 0.110417 0.178748
H24   H     H_    0.823163 0.189270 0.967441 0.209527
H25   H     H_    0.895298 0.042852 0.912843 0.237321
H26   H     H_    0.116431 0.153730 0.823192 0.276003
H27   H     H_    0.113830 0.189766 0.001423 0.258345
H28   H     H_    0.042342 0.302739 0.870003 0.272875
H29   H     H_    0.602795 0.321025 0.889255 0.174597
H30   H     H_    0.393733 0.678383 0.858697 0.132879
H31   H     H_    0.604809 0.320944 0.141487 0.137739
H32   H     H_    0.909638 0.336528 0.156456 0.147143
H33   H     H_    0.108537 0.375855 0.203634 0.166794
H34   H     H_    0.823345 0.558717 0.175181 0.241896
N1    N     N_R   0.499960 0.499970 0.857200 -0.078540
N2    N     N_R   0.500040 0.500030 0.142800 -0.090205
O1    O     O_R   0.499990 0.316750 0.614620 -0.599344
O2    O     O_3   0.028752 0.612939 0.638586 -0.636547
O3    O     O_3   0.537272 0.883208 0.249397 -0.640431
O4    O     O_3   0.632854 0.119751 0.750047 -0.644129
O5    O     O_R   0.500010 0.683250 0.385380 -0.599233
O6    O     O_R   0.499990 0.316780 0.385290 -0.631642
O7    O     O_R   0.500010 0.683220 0.614710 -0.636750
O8    O     O_R   0.271750 0.499990 0.587840 -0.570802
O9    O     O_R   0.728250 0.500010 0.412160 -0.613960
O10   O     O_R   0.271750 0.500010 0.358510 -0.642192
O11   O     O_R   0.728250 0.499990 0.641490 -0.626765
O12   O     O_3   0.962572 0.385173 0.357257 -0.666465
Zn1   Zn    Zn3+2 0.500000 0.499980 0.653120 0.963113
Zn2   Zn    Zn3+2 0.500000 0.500020 0.346880 0.935367

loop_
_geom_bond_atom_site_label_1
_geom_bond_atom_site_label_2
_ccdc_geom_bond_type
C6    N1    A    
C21   H28   S    
C2    C4    A    
C12   O5    A    
C15   H10   S    
C19   O4    S    
C2    C27   A    
C9    O12   S    
C16   H14   S    
O6    Zn2   S    
C9    C10   S    
C19   H21   S    
C7    H30   S    
C26   C28   A    
C19   C20   S    
C6    H29   S    
C11   H5    S    
C27   H12   S    
O9    Zn2   S    
C9    H32   S    
C7    N1    A    
C18   H19   S    
C1    C4    S    
C3    C27   A    
C17   C18   S    
C17   H16   S    
C11   H3    S    
C13   H6    S    
C20   H24   S    
C16   O3    S    
C13   C14   S    
C24   C25   D    
C14   H9    S    
C20   H25   S    
O11   Zn1   S    
C16   H15   S    
C15   H11   S    
O5    Zn2   S    
C10   H34   S    
N2    Zn2   S    
C23   O9    A    
C9    H33   S    
C18   H18   S    
C22   O8    A    
C3    C28   A    
C12   O7    A    
C17   H17   S    
C11   H4    S    
C13   H7    S    
C2    O4    S    
C13   O2    S    
C23   C25   S    
C8    H31   S    
C14   H8    S    
C21   H26   S    
C22   C24   S    
C4    C26   A    
O1    Zn1   S    
C10   C11   S    
C22   O10   A    
C8    N2    A    
C19   H22   S    
O7    Zn1   S    
C28   O3    S    
C20   C21   S    
C15   H13   S    
C26   H1    S    
C21   H27   S    
N1    Zn1   S    
C5    C7    A    
C10   H2    S    
C14   C15   S    
C5    H23   S    
C6    C8    A    
C3    C12   S    
O8    Zn1   S    
O10   Zn2   S    
C1    O1    A    
C24   O12   S    
C25   O2    S    
C1    O6    A    
C5    N2    A    
C23   O11   A    
C16   C17   S    
C18   H20   S    
