data_mof_unit_59908.cif
_audit_creation_date              2012-10-26T19:03:00-0400
_audit_creation_method            fapswitch 2.2
_symmetry_space_group_name_H-M    P1
_symmetry_Int_Tables_number       1
_space_group_crystal_system       triclinic
_cell_length_a                    15.082937
_cell_length_b                    11.135092
_cell_length_c                    9.869975
_cell_angle_alpha                 110.840812
_cell_angle_beta                  99.167849
_cell_angle_gamma                 90.725479
_cell_volume                      1525.08871321

loop_
_atom_site_label
_atom_site_type_symbol
_atom_type_description
_atom_site_fract_x
_atom_site_fract_y
_atom_site_fract_z
_atom_type_partial_charge
C1    C     C_R   0.491855 0.255482 0.441713 0.556979
C2    C     C_2   0.496130 0.483526 0.915050 0.002925
C3    C     C_R   0.328617 0.499740 0.500213 0.554876
C4    C     C_R   0.671341 0.499743 0.499705 0.537599
C5    C     C_R   0.801156 0.489774 0.371181 -0.143220
C6    C     C_R   0.198703 0.507743 0.628369 -0.140808
C7    C     C_R   0.768173 0.499008 0.499387 -0.016580
C8    C     C_R   0.231696 0.499220 0.500341 -0.010819
C9    C     C_R   0.827939 0.507606 0.627579 -0.146683
C10   C     C_R   0.171837 0.489961 0.371998 -0.135350
C11   C     C_R   0.920397 0.507057 0.628476 0.011357
C12   C     C_R   0.506198 0.745362 0.558198 0.557632
C13   C     C_R   0.079345 0.489589 0.370834 0.012304
C14   C     C_R   0.953379 0.498181 0.499513 0.061032
C15   C     C_R   0.046378 0.498260 0.499739 0.060567
C16   C     C_R   0.893472 0.489465 0.370395 0.011628
C17   C     C_R   0.106315 0.507193 0.628912 0.011815
C18   C     C_R   0.980380 0.515422 0.756140 -0.137383
C19   C     C_R   0.019339 0.480885 0.243050 -0.134764
C20   C     C_3   0.481851 0.823178 0.227251 -0.004342
C21   C     C_3   0.411937 0.778836 0.086535 -0.359635
C22   C     C_3   0.664949 0.133488 0.602738 -0.006888
C23   C     C_R   0.072870 0.515499 0.756355 -0.135422
C24   C     C_3   0.728220 0.225554 0.736402 -0.362816
C25   C     C_3   0.625167 0.626042 0.949827 -0.093269
C26   C     C_3   0.647546 0.748870 0.921095 -0.254926
C27   C     C_3   0.728124 0.829591 0.032543 -0.500916
C28   C     C_3   0.381503 0.360780 0.048719 -0.098767
C29   C     C_3   0.408034 0.225433 0.962218 -0.297506
C30   C     C_3   0.326064 0.138752 0.863517 -0.469055
C31   C     C_R   0.926869 0.480825 0.242831 -0.137591
C32   C     C_2   0.478279 0.119479 0.411702 -0.102373
C33   C     C_2   0.517674 0.882801 0.586302 -0.098671
C34   C     C_2   0.517838 0.065760 0.505924 0.216656
C35   C     C_2   0.494253 0.929104 0.477686 0.230220
C36   C     C_2   0.516305 0.487790 0.073956 -0.008831
Cu1   Cu    Cu3+1 0.515770 0.521810 0.644910 0.919985
Cu2   Cu    Cu3+1 0.484230 0.478190 0.355090 0.928443
H1    H     H_    0.755154 0.483395 0.272083 0.115381
H2    H     H_    0.431952 0.064095 0.311945 0.093824
H3    H     H_    0.439883 0.421171 0.840011 0.146336
H4    H     H_    0.579182 0.531972 0.144111 0.120828
H5    H     H_    0.525648 0.744531 0.227359 0.154036
H6    H     H_    0.525474 0.904390 0.227010 0.083154
H7    H     H_    0.365306 0.855521 0.088145 0.146097
H8    H     H_    0.445281 0.758318 0.989281 0.123255
H9    H     H_    0.372558 0.690237 0.076646 0.162117
H10   H     H_    0.669891 0.163278 0.507442 0.127048
H11   H     H_    0.687299 0.034237 0.579065 0.108754
H12   H     H_    0.244763 0.514473 0.727556 0.117432
H13   H     H_    0.726866 0.197085 0.833124 0.145499
H14   H     H_    0.798038 0.223171 0.713461 0.093424
H15   H     H_    0.707144 0.325318 0.762118 0.168862
H16   H     H_    0.712514 0.862867 0.145859 0.138965
H17   H     H_    0.788074 0.772230 0.027946 0.149662
H18   H     H_    0.744154 0.915626 0.006336 0.146891
H19   H     H_    0.665997 0.725521 0.811210 0.206425
H20   H     H_    0.589000 0.808993 0.930827 0.166339
H21   H     H_    0.623753 0.663437 0.068522 0.077819
H22   H     H_    0.680889 0.561195 0.928730 0.121851
H23   H     H_    0.802681 0.514595 0.726814 0.113474
H24   H     H_    0.276026 0.128406 0.930690 0.146532
H25   H     H_    0.294295 0.179869 0.781832 0.157029
H26   H     H_    0.347283 0.041801 0.803334 0.159214
H27   H     H_    0.457759 0.230581 0.892404 0.182163
H28   H     H_    0.439810 0.180851 0.040500 0.179761
H29   H     H_    0.336251 0.350006 0.122158 0.174679
H30   H     H_    0.341408 0.404080 0.975577 0.085556
H31   H     H_    0.197081 0.483504 0.272908 0.120737
H32   H     H_    0.955765 0.522042 0.855735 0.099393
H33   H     H_    0.043926 0.474251 0.143433 0.101509
H34   H     H_    0.118224 0.522185 0.856107 0.101532
H35   H     H_    0.881512 0.474142 0.143069 0.096115
H36   H     H_    0.552181 0.945027 0.694644 0.094340
N1    N     N_2   0.460520 0.445420 0.137370 -0.241786
N2    N     N_2   0.539480 0.554580 0.862630 -0.245862
O1    O     O_R   0.508410 0.332340 0.577400 -0.441665
O2    O     O_3   0.576502 0.139059 0.633398 -0.563590
O3    O     O_R   0.491590 0.667660 0.422600 -0.450152
O4    O     O_R   0.481780 0.295500 0.332650 -0.520867
O5    O     O_R   0.518220 0.704500 0.667350 -0.530102
O6    O     O_R   0.383570 0.518390 0.622380 -0.512220
O7    O     O_R   0.616430 0.481610 0.377620 -0.516600
O8    O     O_R   0.356940 0.481550 0.377630 -0.511892
O9    O     O_R   0.643060 0.518450 0.622370 -0.520617
O10   O     O_3   0.436525 0.855027 0.348994 -0.548085

loop_
_geom_bond_atom_site_label_1
_geom_bond_atom_site_label_2
_ccdc_geom_bond_type
C18   H32   S    
C22   H10   S    
C11   C18   A    
C24   H14   S    
C30   H26   S    
Cu2   O7    S    
C1    O1    A    
C36   H4    S    
C19   C31   A    
C27   H16   S    
C16   C31   A    
C26   C27   S    
C17   C23   A    
C9    H23   S    
Cu1   O9    S    
C28   C29   S    
C28   H30   S    
Cu1   Cu2   S    
C30   H24   S    
C35   O10   S    
C27   H17   S    
C31   H35   S    
Cu2   O3    S    
C2    H3    S    
C12   O3    A    
C15   C17   A    
C34   C35   S    
C5    C16   A    
C19   H33   S    
C20   O10   S    
C25   H22   S    
C24   H13   S    
C30   H25   S    
Cu1   O5    S    
C4    C7    S    
C20   H6    S    
C21   H7    S    
Cu2   N1    S    
C13   C19   A    
C18   C23   A    
C28   H29   S    
C22   O2    S    
C3    C8    S    
C11   C14   A    
C5    C7    A    
C27   H18   S    
C6    C8    A    
C4    O9    A    
C25   C26   S    
Cu1   O1    S    
C1    C32   S    
C32   C34   D    
C29   C30   S    
C36   N1    D    
C26   H20   S    
C3    O6    A    
C6    H12   S    
C9    C11   A    
C22   H11   S    
C29   H27   S    
Cu1   N2    S    
C13   C15   A    
C14   C16   A    
Cu1   O6    S    
C20   H5    S    
C2    N2    D    
C21   H8    S    
C2    C36   S    
C7    C9    A    
C6    C17   A    
Cu2   O8    S    
C23   H34   S    
C10   C13   A    
C25   N2    S    
C5    H1    S    
C24   H15   S    
C34   O2    S    
C4    O7    A    
Cu2   O4    S    
C33   C35   D    
C12   O5    A    
C22   C24   S    
C32   H2    S    
C26   H19   S    
C29   H28   S    
C10   H31   S    
C33   H36   S    
C20   C21   S    
C8    C10   A    
C3    O8    A    
C1    O4    A    
C14   C15   A    
C25   H21   S    
C12   C33   S    
C28   N1    S    
C21   H9    S    
