data_mof_unit_37295.cif
_audit_creation_date              2012-12-11T15:55:41-0500
_audit_creation_method            fapswitch 2.2
_symmetry_space_group_name_H-M    P1
_symmetry_Int_Tables_number       1
_space_group_crystal_system       triclinic
_cell_length_a                    6.933762
_cell_length_b                    14.610279
_cell_length_c                    16.095798
_cell_angle_alpha                 90.016202
_cell_angle_beta                  90.25212
_cell_angle_gamma                 90.060597
_cell_volume                      1630.5551314

loop_
_atom_site_label
_atom_site_type_symbol
_atom_type_description
_atom_site_fract_x
_atom_site_fract_y
_atom_site_fract_z
_atom_type_partial_charge
O1    O     O_R   0.505680 0.583900 0.413320 -0.545483
O2    O     O_R   0.176010 0.594950 0.586080 -0.552759
O3    O     O_R   0.005680 0.416100 0.586680 -0.545059
C1    C     C_R   0.345848 0.619394 0.613036 0.721632
O4    O     O_R   0.175960 0.594930 0.413930 -0.546054
O5    O     O_R   0.005640 0.416080 0.413300 -0.539552
C2    C     C_R   0.344884 0.617072 0.384860 0.669708
O6    O     O_R   0.505720 0.583920 0.586700 -0.537133
O7    O     O_3   0.339190 0.441320 0.500000 -0.362361
V1    V     V_3+5 0.064350 0.510890 0.500000 1.399791
O8    O     O_R   0.675920 0.405050 0.413920 -0.539312
C3    C     C_R   0.843692 0.382426 0.385232 0.726079
O9    O     O_R   0.675960 0.405070 0.586070 -0.529962
C4    C     C_R   0.844615 0.384017 0.615838 0.699935
V2    V     V_3+5 0.564340 0.489110 0.500000 1.437396
O10   O     O_3   0.839370 0.558680 0.500000 -0.377124
C5    C     C_R   0.001815 0.319244 0.745522 -0.120624
C6    C     C_R   0.851170 0.318810 0.686919 -0.112503
C7    C     C_R   0.702425 0.254190 0.699149 -0.105909
H1    H     H_    0.580685 0.251804 0.656973 0.110592
C8    C     C_R   0.714967 0.187883 0.762800 -0.101758
H2    H     H_    0.601112 0.137579 0.768415 0.130492
C9    C     C_R   0.877500 0.183362 0.815614 -0.122417
C10   C     C_R   0.018065 0.250936 0.805862 -0.041025
C11   C     C_3   0.230574 0.242689 0.789822 0.303618
C12   C     C_3   0.216041 0.326806 0.732826 0.229333
H3    H     H_    0.259671 0.179704 0.753076 0.018966
H4    H     H_    0.260898 0.312605 0.667936 0.067853
C13   C     C_R   0.043927 0.236068 0.210130 0.380239
C14   C     C_R   0.025322 0.301521 0.273831 -0.269530
H5    H     H_    0.148422 0.343341 0.290128 0.131432
C15   C     C_R   0.851319 0.313762 0.316491 -0.167037
C16   C     C_R   0.691199 0.258599 0.293277 0.341716
C17   C     C_R   0.708941 0.194339 0.229284 -0.244670
H6    H     H_    0.584556 0.152798 0.213564 0.187135
C18   C     C_R   0.882327 0.183293 0.185704 -0.153170
C19   C     C_R   0.196151 0.740036 0.704539 -0.160493
H7    H     H_    0.058794 0.730514 0.673420 0.139791
C20   C     C_R   0.208279 0.803055 0.770003 -0.223642
H8    H     H_    0.080362 0.841379 0.786298 0.183370
C21   C     C_R   0.381749 0.815877 0.814457 -0.150457
C22   C     C_R   0.545610 0.764337 0.790618 0.429930
C23   C     C_R   0.534582 0.705305 0.721564 -0.247098
H9    H     H_    0.662775 0.668289 0.703241 0.126719
C24   C     C_R   0.358923 0.689925 0.679777 -0.095466
C25   C     C_R   0.188062 0.724152 0.281692 -0.157377
H10   H     H_    0.047290 0.705732 0.305296 0.116088
C26   C     C_R   0.199345 0.787555 0.216504 -0.148068
H11   H     H_    0.066624 0.816094 0.192129 0.116293
C27   C     C_R   0.378960 0.813893 0.183464 -0.043025
C28   C     C_R   0.546912 0.774663 0.217381 -0.157983
H12   H     H_    0.687664 0.793011 0.193698 0.112833
C29   C     C_R   0.535620 0.711253 0.282570 -0.151987
H13   H     H_    0.668322 0.682629 0.306873 0.117128
C30   C     C_R   0.356042 0.685163 0.315824 -0.044461
O11   O     O_R   0.229200 0.915950 0.913350 -0.548879
O12   O     O_R   0.559090 0.905000 0.086080 -0.550431
O13   O     O_R   0.729280 0.083880 0.086680 -0.549238
C31   C     C_R   0.390143 0.882485 0.114872 0.677706
O14   O     O_R   0.558920 0.904980 0.913920 -0.509347
O15   O     O_R   0.729110 0.083860 0.913300 -0.531144
C32   C     C_R   0.390188 0.882927 0.884690 0.711311
O16   O     O_R   0.229360 0.915970 0.086730 -0.544315
O17   O     O_3   0.395680 0.058580 0.000030 -0.355410
V3    V     V_3+5 0.670570 0.989070 0.999990 1.455056
O18   O     O_R   0.058820 0.094950 0.913870 -0.534380
C33   C     C_R   0.889900 0.115165 0.883710 0.706604
O19   O     O_R   0.058990 0.094970 0.086020 -0.515149
C34   C     C_R   0.890973 0.116310 0.115685 0.728111
V4    V     V_3+5 0.170560 0.010930 0.999930 1.464812
O20   O     O_3   0.895590 0.941310 0.999960 -0.376059
O21   O     O_3   0.717907 0.773065 0.833879 -0.552779
C35   C     C_3   0.756543 0.690956 0.877429 0.069647
H14   H     H_    0.818016 0.639006 0.834518 0.113240
H15   H     H_    0.624674 0.662607 0.907534 0.107904
C36   C     C_3   0.902850 0.709521 0.946127 -0.675261
H16   H     H_    0.840832 0.757368 0.992442 0.224303
H17   H     H_    0.940504 0.644441 0.977890 0.157002
H18   H     H_    0.036131 0.739812 0.920034 0.218435
O22   O     O_3   0.357207 0.245750 0.859916 -0.534742
C37   C     C_3   0.324825 0.316835 0.917806 0.157195
H19   H     H_    0.176491 0.345308 0.916652 0.106684
H20   H     H_    0.431284 0.372126 0.906708 0.173874
C38   C     C_3   0.363277 0.280898 0.004323 -0.688145
H21   H     H_    0.511727 0.252699 0.008859 0.223071
H22   H     H_    0.347235 0.337256 0.050060 0.157709
H23   H     H_    0.257398 0.226318 0.017938 0.271712
O23   O     O_3   0.312324 0.404581 0.766969 -0.545650
C39   C     C_3   0.190664 0.479914 0.784951 0.117785
H24   H     H_    0.062309 0.460693 0.822196 0.109053
H25   H     H_    0.142281 0.512782 0.726529 0.138201
C40   C     C_3   0.301941 0.548195 0.837916 -0.791247
H26   H     H_    0.448474 0.557992 0.812268 0.232338
H27   H     H_    0.224178 0.614384 0.839820 0.204858
H28   H     H_    0.315977 0.522832 0.902617 0.191484
O24   O     O_3   0.219290 0.222446 0.172149 -0.649253
H29   H     H_    0.312681 0.268798 0.192372 0.284671
O25   O     O_3   0.516864 0.263653 0.333105 -0.635330
H30   H     H_    0.469734 0.326855 0.324485 0.279425

loop_
_geom_bond_atom_site_label_1
_geom_bond_atom_site_label_2
_ccdc_geom_bond_type
C11   O22   S    
C21   C22   A    
C4    C6    S    
C7    H1    S    
C36   H18   S    
C2    C30   S    
C1    O6    A    
C37   H19   S    
C20   C21   A    
C29   H13   S    
C13   C18   A    
C19   H7    S    
C27   C31   S    
C7    C8    A    
C36   H17   S    
C6    C7    A    
O5    C3    A    
C14   H5    S    
O12   C31   A    
V2    O10   S    
O14   C32   A    
C17   H6    S    
C35   H14   S    
C9    C33   S    
O8    V2    S    
C16   O25   S    
O19   C34   A    
C25   C30   A    
C9    C10   A    
C38   H23   S    
V4    O20   S    
O1    V2    S    
O17   V4    S    
C39   H25   S    
O7    V1    S    
C26   C27   A    
O18   C33   A    
O9    C4    A    
C3    C15   S    
C35   H15   S    
C21   C32   S    
C22   O21   S    
C37   H20   S    
C5    C6    A    
C1    C24   S    
C29   C30   A    
C25   C26   A    
C5    C10   A    
C28   H12   S    
C10   C11   S    
C20   H8    S    
O4    C2    A    
O21   C35   S    
C27   C28   A    
C11   C12   S    
V3    O20   S    
C40   H28   S    
C28   C29   A    
O2    C1    A    
C23   H9    S    
C13   C14   A    
O15   C33   A    
O13   V3    S    
O16   V4    S    
O24   H29   S    
C40   H27   S    
C16   C17   A    
C38   H21   S    
C39   C40   S    
C23   C24   A    
O3    C4    A    
O19   V4    S    
C26   H11   S    
O14   V3    S    
O6    V2    S    
O11   V4    S    
C8    C9    A    
C35   C36   S    
O11   C32   A    
C22   C23   A    
C5    C12   S    
C19   C24   A    
O2    V1    S    
C37   C38   S    
C18   C34   S    
C25   H10   S    
O1    C2    A    
C31   O16   A    
O12   V3    S    
O22   C37   S    
O5    V1    S    
C13   O24   S    
O8    C3    A    
O13   C34   A    
C11   H3    S    
C12   H4    S    
C15   C16   A    
O9    V2    S    
O7    V2    S    
O4    V1    S    
C19   C20   A    
O3    V1    S    
V1    O10   S    
O17   V3    S    
C14   C15   A    
C36   H16   S    
O18   V4    S    
C40   H26   S    
C17   C18   A    
O15   V3    S    
O23   C39   S    
C12   O23   S    
O25   H30   S    
C38   H22   S    
C39   H24   S    
C8    H2    S    
