data_mof_unit_14656.cif
_audit_creation_date              2013-03-05T16:13:09-0500
_audit_creation_method            fapswitch 2.2
_symmetry_space_group_name_H-M    P1
_symmetry_Int_Tables_number       1
_space_group_crystal_system       triclinic
_cell_length_a                    8.828225
_cell_length_b                    16.538203
_cell_length_c                    18.879544
_cell_angle_alpha                 110.986928
_cell_angle_beta                  93.123151
_cell_angle_gamma                 82.217799
_cell_volume                      2549.85494416

loop_
_atom_site_label
_atom_site_type_symbol
_atom_site_description
_atom_site_fract_x
_atom_site_fract_y
_atom_site_fract_z
_atom_type_partial_charge
P1    P     P_3+3 0.582960 0.413890 0.320860 0.643755
O1    O     O_2   0.402610 0.439360 0.314250 -0.367440
O2    O     O_3   0.648560 0.446300 0.404730 -0.309446
O3    O     O_3   0.108870 0.604000 0.387500 -0.394432
O4    O     O_2   0.192914 0.533013 0.246766 -0.409524
O5    O     O_3   0.666113 0.303536 0.267547 -0.621443
O6    O     O_3   0.092088 0.695146 0.284195 -0.574899
H1    H     H_    0.953590 0.752117 0.381640 -0.089908
C1    C     C_3   0.110555 0.837378 0.376081 -0.894791
H2    H     H_    0.182604 0.816017 0.416881 0.255338
H3    H     H_    0.180804 0.848467 0.334285 0.268881
P2    P     P_3+3 0.071690 0.707860 0.593450 0.483656
P3    P     P_3+3 0.503503 0.762161 0.451160 0.490655
O7    O     O_2   0.241370 0.719440 0.573960 -0.280373
O8    O     O_3   0.507090 0.652150 0.432150 -0.428423
O9    O     O_2   0.374370 0.808038 0.509538 -0.325252
O10   O     O_3   0.092494 0.735645 0.691012 -0.522346
O11   O     O_3   0.438621 0.776422 0.366314 -0.541793
C2    C     C_3   0.463471 0.697008 0.305012 0.458469
H4    H     H_    0.387752 0.650620 0.309223 0.148541
H5    H     H_    0.584388 0.667830 0.303410 0.060970
C3    C     C_3   0.427553 0.712962 0.230941 -0.768791
H6    H     H_    0.441076 0.649962 0.183171 0.233061
H7    H     H_    0.308707 0.744271 0.230384 0.297018
C4    C     C_3   0.516250 0.760288 0.765150 0.951536
C5    C     C_3   0.373281 0.728754 0.784940 -0.919386
H8    H     H_    0.397903 0.694186 0.825101 0.192767
H9    H     H_    0.287547 0.784784 0.814228 0.273557
H10   H     H_    0.323370 0.685019 0.733507 0.250639
Ba1   Ba    Ba6+2 0.333520 0.539550 0.472180 1.714836
C6    C     C_3   0.615669 0.224547 0.265683 1.117346
C7    C     C_3   0.682417 0.147182 0.193774 -0.594946
H11   H     H_    0.783129 0.165350 0.176634 0.184264
H12   H     H_    0.607270 0.137577 0.142882 0.202120
C8    C     C_3   0.954624 0.737474 0.724175 0.332123
H13   H     H_    0.888842 0.685430 0.688038 0.150669
H14   H     H_    0.885911 0.801932 0.734249 0.068506
C9    C     C_3   0.992675 0.724031 0.799257 -0.923574
H15   H     H_    0.035901 0.782894 0.840885 0.267512
H16   H     H_    0.079681 0.666265 0.790830 0.248579
H17   H     H_    0.891315 0.712401 0.823477 0.212992
P4    P     P_3+3 0.606720 0.586180 0.679160 0.473886
O12   O     O_2   0.787080 0.560670 0.685800 -0.381643
O13   O     O_3   0.541120 0.553770 0.595290 -0.343678
O14   O     O_3   0.080800 0.396070 0.612520 -0.415795
O15   O     O_3   0.598697 0.700052 0.700207 -0.611375
P5    P     P_3+3 0.686640 0.241356 0.565001 0.502659
O16   O     O_3   0.164600 0.390590 0.443970 -0.380877
O17   O     O_3   0.682580 0.347920 0.567870 -0.340796
O18   O     O_2   0.816024 0.190345 0.508288 -0.388268
O19   O     O_3   0.750596 0.229930 0.651835 -0.657445
Ba2   Ba    Ba6+2 0.856270 0.460520 0.527840 1.656490
P6    P     P_3+3 0.061425 0.597047 0.294668 0.418590
C10   C     C_3   0.006343 0.767941 0.336791 1.056019
H18   H     H_    0.045664 0.900954 0.408784 0.249644
O20   O     O_3   0.025080 0.609480 0.556050 -0.449591
C11   C     C_3   0.033644 0.225492 0.266914 1.077269
H19   H     H_    0.928742 0.210213 0.283676 0.032307
C12   C     C_3   0.072337 0.159449 0.186546 -0.965896
H20   H     H_    0.993539 0.169330 0.142154 0.203344
H21   H     H_    0.181092 0.165640 0.165405 0.322935
H22   H     H_    0.075920 0.091941 0.186056 0.250317
P7    P     P_3+3 0.125590 0.277944 0.414772 0.622458
O21   O     O_2   0.948320 0.280590 0.426090 -0.286227
O22   O     O_3   0.152566 0.215959 0.317402 -0.508659
H23   H     H_    0.505877 0.755385 0.222102 0.252528
C13   C     C_3   0.681896 0.294707 0.717601 0.962838
H24   H     H_    0.682620 0.361260 0.716094 -0.022114
C14   C     C_3   0.774868 0.286801 0.786511 -0.536620
H25   H     H_    0.885026 0.310665 0.785623 0.176260
H26   H     H_    0.793536 0.216482 0.779671 0.219261
P8    P     P_3+3 0.109201 0.420204 0.711844 0.478898
C15   C     C_3   0.104678 0.247813 0.673755 0.206897
H27   H     H_    0.192447 0.232781 0.630313 0.118751
O23   O     O_2   0.959498 0.472978 0.751008 -0.421406
O24   O     O_3   0.120578 0.325709 0.735205 -0.523159
H28   H     H_    0.994882 0.254444 0.645435 0.131008
H29   H     H_    0.223825 0.176043 0.742264 0.203439
C16   C     C_3   0.119100 0.174172 0.707447 0.000804
H30   H     H_    0.029360 0.186682 0.748684 0.108605
C17   C     C_R   0.489437 0.488158 0.050778 -0.027621
C18   C     C_R   0.408937 0.449853 0.090681 0.066966
C19   C     C_R   0.267854 0.418523 0.060899 0.087122
C20   C     C_R   0.209481 0.425707 0.991738 0.059124
C21   C     C_R   0.288731 0.465212 0.952773 0.135333
C22   C     C_R   0.430254 0.494333 0.981042 0.054013
C23   C     C_R   0.229412 0.473598 0.884468 -0.052183
C24   C     C_R   0.318889 0.496609 0.837126 0.013010
C25   C     C_R   0.461750 0.526118 0.865181 0.039766
C26   C     C_R   0.513813 0.527942 0.938589 0.033706
C27   C     C_R   0.278750 0.480337 0.759750 0.242157
C28   C     C_R   0.382114 0.497725 0.714129 -0.162753
C29   C     C_R   0.511181 0.540345 0.743063 0.135861
C30   C     C_R   0.554758 0.551538 0.819447 -0.118476
C31   C     C_R   0.629835 0.519352 0.079992 0.031968
C32   C     C_R   0.685738 0.516922 0.151810 0.027865
C33   C     C_R   0.604122 0.479781 0.193652 -0.113976
C34   C     C_R   0.470359 0.443603 0.159638 -0.158503
H31   H     H_    0.116822 0.456050 0.865799 0.164283
H32   H     H_    0.409075 0.412275 0.187277 0.234055
C35   C     C_R   0.688387 0.586906 0.851566 -0.124197
C36   C     C_R   0.738956 0.589730 0.923991 0.046561
C37   C     C_R   0.654293 0.558246 0.967288 -0.015915
C38   C     C_R   0.712407 0.554871 0.037942 -0.026170
C39   C     C_R   0.875937 0.622228 0.952503 -0.341629
C40   C     C_R   0.934649 0.622290 0.022763 0.553962
C41   C     C_R   0.853904 0.585995 0.065748 -0.113383
C42   C     C_R   0.823948 0.551174 0.180912 -0.037047
C43   C     C_R   0.907977 0.581284 0.135794 -0.101834
C44   C     C_R   0.874208 0.556275 0.254968 0.178275
C45   C     C_R   0.784404 0.527518 0.298925 -0.339961
C46   C     C_R   0.656965 0.482083 0.268324 0.292917
H33   H     H_    0.756818 0.610329 0.819776 0.171291
H34   H     H_    0.937990 0.648173 0.919330 0.203939
H35   H     H_    0.014426 0.604167 0.156755 0.251406
H36   H     H_    0.821095 0.535736 0.356377 0.172249
C47   C     C_2   0.394769 0.248020 0.502299 -0.264921
C48   C     C_R   0.793956 0.749490 0.519991 -0.465584
C49   C     C_2   0.210392 0.141985 0.469321 -0.370444
C50   C     C_2   0.245639 0.218233 0.469239 0.256044
C51   C     C_2   0.505102 0.197021 0.525469 0.371248
C52   C     C_3   0.475836 0.105460 0.515880 -0.152185
C53   C     C_3   0.307797 0.091272 0.511316 0.175552
C54   C     C_2   0.592093 0.036587 0.531999 0.042630
C55   C     C_2   0.613117 0.953999 0.479366 0.156973
C56   C     C_R   0.874736 0.904287 0.516858 0.124150
C57   C     C_R   0.726894 0.883920 0.492503 -0.084740
C58   C     C_R   0.978431 0.851281 0.545071 -0.205343
C59   C     C_R   0.936370 0.775899 0.551057 0.180511
C60   C     C_R   0.689083 0.802024 0.489765 0.274494
H37   H     H_    0.106468 0.117428 0.441625 0.209011
H38   H     H_    0.089921 0.870665 0.564191 0.257277
H39   H     H_    0.418639 0.310337 0.502027 0.146230
H40   H     H_    0.762860 0.688778 0.520905 0.189014
S1    S     S_3+6 0.423618 0.230991 0.251933 -0.014031
O25   O     O_2   0.381825 0.141425 0.238575 -0.322088
O26   O     O_2   0.359763 0.297414 0.324098 -0.231852
O27   O     O_3   0.375810 0.261675 0.177405 -0.569137
H41   H     H_    0.471888 0.265193 0.154697 0.308187
S2    S     S_3+6 0.658102 0.202268 0.351985 -0.018083
O28   O     O_2   0.653838 0.287396 0.416732 -0.228204
O29   O     O_2   0.536835 0.153364 0.363971 -0.388345
O30   O     O_3   0.826971 0.139983 0.349619 -0.559851
H42   H     H_    0.806027 0.091454 0.365065 0.382381
N1    N     N_2   0.717830 0.063529 0.204119 -0.055846
H43   H     H_    0.630181 0.045520 0.226816 0.266953
C61   C     C_3   0.783041 0.992419 0.138708 -0.711302
H44   H     H_    0.823275 0.934908 0.155054 0.280346
H45   H     H_    0.881868 0.010907 0.116698 0.244453
H46   H     H_    0.695424 0.974097 0.093118 0.224078
S3    S     S_3+6 0.856725 0.812742 0.289217 -0.081240
O31   O     O_2   0.711161 0.800871 0.318406 -0.393374
O32   O     O_2   0.863541 0.908154 0.306058 -0.335570
O33   O     O_3   0.859700 0.762021 0.195266 -0.491789
H47   H     H_    0.762205 0.785008 0.176748 0.357323
S4    S     S_3+6 0.994723 0.332987 0.265676 -0.049887
O34   O     O_2   0.890824 0.334419 0.200306 -0.385463
O35   O     O_2   0.918882 0.387035 0.339424 -0.338376
O36   O     O_3   0.149262 0.376575 0.259426 -0.444733
H48   H     H_    0.145276 0.427882 0.306860 0.409291
S5    S     S_3+6 0.492370 0.275474 0.725667 -0.098857
O37   O     O_2   0.427122 0.324481 0.802717 -0.313033
O38   O     O_2   0.401712 0.305014 0.668924 -0.458120
O39   O     O_3   0.481692 0.170622 0.708177 -0.542418
H49   H     H_    0.418688 0.151777 0.661825 0.364200
N2    N     N_2   0.704236 0.338147 0.859183 -0.067462
H50   H     H_    0.755563 0.393072 0.888298 0.194391
C62   C     C_3   0.675149 0.289436 0.906450 -0.692982
H51   H     H_    0.605746 0.332217 0.955874 0.215721
H52   H     H_    0.783790 0.263857 0.927629 0.205625
H53   H     H_    0.610479 0.234249 0.874246 0.287607
S6    S     S_3+6 0.113089 0.063901 0.644618 -0.057491
O40   O     O_2   0.271052 0.015339 0.635369 -0.236029
O41   O     O_2   0.016122 0.022130 0.681259 -0.277602
O42   O     O_3   0.041689 0.054320 0.558369 -0.570039
H54   H     H_    0.002367 0.114109 0.562184 0.344157
N3    N     N_2   0.180148 0.385149 0.103072 -0.073124
H55   H     H_    0.078060 0.423286 0.122133 0.209283
C63   C     C_3   0.162658 0.293249 0.070919 -0.682639
H56   H     H_    0.133052 0.271651 0.116277 0.311951
H57   H     H_    0.269797 0.253686 0.043435 0.232950
H58   H     H_    0.064056 0.280817 0.031550 0.207183
N4    N     N_2   0.078874 0.385168 0.956868 -0.127452
H59   H     H_    0.990435 0.391167 0.992511 0.171610
C64   C     C_3   0.117756 0.298644 0.901116 -0.881132
H60   H     H_    0.014405 0.265869 0.882004 0.241148
H61   H     H_    0.200111 0.257147 0.923830 0.262699
H62   H     H_    0.173273 0.303168 0.852277 0.312968
N5    N     N_2   0.353832 0.473419 0.636471 -0.111908
H63   H     H_    0.344958 0.408673 0.609245 0.191149
C65   C     C_3   0.233847 0.530770 0.620056 -0.563435
H64   H     H_    0.186388 0.495163 0.564609 0.287500
H65   H     H_    0.280540 0.588648 0.619857 0.250803
H66   H     H_    0.139982 0.553749 0.662159 0.199887
S7    S     S_3+6 0.104290 0.673556 0.052678 -0.061466
O43   O     O_2   0.063026 0.767306 0.101977 -0.226001
O44   O     O_2   0.210662 0.628669 0.095452 -0.355068
O45   O     O_3   0.196862 0.672224 0.976615 -0.584955
H67   H     H_    0.290707 0.699436 0.997320 0.371200
N6    N     N_2   0.674143 0.059367 0.602456 -0.097637
H68   H     H_    0.783853 0.070453 0.598451 0.261541
C66   C     C_3   0.658145 0.012815 0.653532 -0.564400
H69   H     H_    0.744012 0.954954 0.642966 0.195012
H70   H     H_    0.542918 0.992766 0.649150 0.299569
H71   H     H_    0.679064 0.055421 0.712791 0.270558
N7    N     N_2   0.512437 0.931410 0.415372 -0.071083
H72   H     H_    0.401057 0.932041 0.429524 0.207598
C67   C     C_3   0.522916 0.970160 0.358357 -0.556461
H73   H     H_    0.420917 0.018167 0.360547 0.221039
H74   H     H_    0.524040 0.919174 0.301039 0.257592
H75   H     H_    0.627340 0.002630 0.366445 0.256682
N8    N     N_2   0.621216 0.784522 0.829854 -0.152478
H76   H     H_    0.705465 0.817173 0.821144 0.167601
C68   C     C_3   0.561365 0.826318 0.906397 -0.912928
H77   H     H_    0.654466 0.854015 0.946028 0.260731
H78   H     H_    0.518690 0.777967 0.926103 0.254280
H79   H     H_    0.468724 0.879979 0.909401 0.293053
S8    S     S_3+6 0.455401 0.855903 0.739696 0.018416
O46   O     O_2   0.285008 0.869423 0.729442 -0.176849
O47   O     O_2   0.503501 0.937121 0.798913 -0.319200
O48   O     O_3   0.537000 0.841253 0.656997 -0.483419
H80   H     H_    0.648210 0.837421 0.667729 0.301345

loop_
_geom_bond_atom_site_label_1
_geom_bond_atom_site_label_2
_geom_bond_distance
_ccdc_geom_bond_type
P6    C44   1.884933 S    
S1    O27   1.674580 S    
C23   C24   1.403452 A    
P7    O22   1.765980 S    
C35   C36   1.401616 A    
S7    O44   1.497691 D    
O3    P6    1.746154 S    
O2    Ba1   3.090773 S    
P4    C29   1.918510 S    
C35   H33   1.069892 S    
C15   H27   1.098119 S    
C61   H44   1.110356 S    
S2    O30   1.686419 S    
P8    O24   1.758776 S    
C47   H39   1.081347 S    
C58   C59   1.391304 A    
C64   H61   1.106890 S    
N1    H43   1.030053 S    
S8    O46   1.502826 D    
S1    O25   1.504710 D    
P5    O17   1.739229 S    
C36   C37   1.405260 A    
C6    C7    1.570399 S    
C21   C22   1.408534 A    
C28   N5    1.392355 S    
O45   H67   0.990652 S    
C5    H8    1.099011 S    
C56   C57   1.403961 A    
C66   H70   1.101875 S    
P3    O11   1.756045 S    
O8    Ba1   2.879928 S    
C19   C20   1.416274 A    
O4    P6    1.543471 D    
O39   H49   0.985330 S    
C8    H14   1.110296 S    
S2    O29   1.497822 D    
O11   C2    1.404765 S    
N4    C64   1.449416 S    
P1    C46   1.937510 S    
C9    H15   1.109447 S    
C17   C31   1.414741 A    
N7    C67   1.448795 S    
O12   Ba2   2.897648 S    
P5    C51   1.859854 S    
C40   C41   1.433485 A    
O30   H42   0.988460 S    
C55   N7    1.427894 S    
C42   C43   1.413014 A    
C36   C39   1.392441 A    
N5    C65   1.421391 S    
P1    O1    1.600747 D    
P4    O15   1.772113 S    
S3    O33   1.668492 S    
C25   C30   1.423791 A    
C14   H26   1.113161 S    
C47   C51   1.359003 D    
C14   N2    1.451755 S    
C3    H23   1.107255 S    
C22   C26   1.410704 A    
S5    O38   1.484072 D    
C44   C45   1.414205 A    
C62   H53   1.111046 S    
C2    H4    1.109095 S    
C30   C35   1.398714 A    
N6    H68   1.021476 S    
N3    C63   1.447340 S    
C66   H71   1.109199 S    
P2    O10   1.737042 S    
C49   H37   1.084719 S    
S3    O31   1.488836 D    
C45   H36   1.080714 S    
C1    H18   1.106939 S    
C1    H2    1.096995 S    
C17   C22   1.422566 A    
C48   H40   1.082296 S    
S6    O42   1.674611 S    
C63   H58   1.104973 S    
P2    Ba1   3.549959 S    
O13   Ba2   3.091604 S    
C62   H52   1.108258 S    
O5    C6    1.424430 S    
C32   C42   1.415177 A    
C12   H20   1.103105 S    
O14   P8    1.782764 S    
N2    C62   1.451616 S    
C41   C43   1.406312 A    
Ba1   O13   2.842087 S    
C4    S8    1.818290 S    
N5    H63   1.020290 S    
P4    O13   1.583076 S    
O7    Ba1   2.936851 S    
P8    O23   1.544983 D    
C58   H38   1.079664 S    
N1    C61   1.446821 S    
S6    O41   1.501861 D    
C33   C34   1.413634 A    
P5    O18   1.545350 D    
C23   H31   1.078471 S    
C21   C23   1.411127 A    
C48   C59   1.414330 A    
C11   S4    1.772726 S    
C12   H21   1.090531 S    
C51   C52   1.515576 S    
C66   H69   1.101552 S    
C18   C34   1.415576 A    
C13   H24   1.112049 S    
C39   H34   1.081668 S    
C8    C9    1.524870 S    
S2    O28   1.495222 D    
C57   C60   1.420903 A    
C9    H17   1.095903 S    
C6    S1    1.695961 S    
P2    C59   1.873707 S    
C47   C50   1.493788 S    
H1    C10   1.112218 S    
C27   C28   1.411157 A    
C33   C46   1.449569 A    
C19   N3    1.426799 S    
C68   H77   1.111140 S    
C67   H73   1.108982 S    
O16   P7    1.819502 S    
P5    O19   1.770390 S    
C7    N1    1.455911 S    
O14   Ba2   2.815011 S    
C4    C5    1.540736 S    
Ba1   O20   3.092669 S    
C17   C18   1.412817 A    
C65   H64   1.093434 S    
P1    O2    1.583076 S    
C8    H13   1.102315 S    
C7    H12   1.112773 S    
C16   S6    1.790384 S    
P8    C27   1.912803 S    
C4    N8    1.462231 S    
N4    H59   1.029908 S    
C65   H65   1.093520 S    
O48   H80   0.989771 S    
C48   C60   1.420358 A    
C13   S5    1.769325 S    
S8    O47   1.503821 D    
O36   H48   0.987038 S    
C20   N4    1.422267 S    
C24   C27   1.421199 A    
P3    C60   1.862311 S    
O17   Ba2   2.880601 S    
C11   O22   1.410468 S    
C32   C33   1.431761 A    
C2    C3    1.522853 S    
C15   C16   1.551842 S    
C11   H19   1.083619 S    
C29   C30   1.424610 A    
O19   C13   1.417905 S    
C20   C21   1.407726 A    
C49   C50   1.339662 D    
C28   C29   1.402641 A    
C1    H3    1.108452 S    
O33   H47   0.990639 S    
P2    O20   1.625371 S    
C67   H74   1.107883 S    
C62   H51   1.103940 S    
N8    C68   1.453990 S    
N3    H55   1.028777 S    
C34   H32   1.064784 S    
P3    O8    1.719845 S    
Ba2   O21   2.937015 S    
N2    H50   1.029204 S    
C15   O24   1.409213 S    
C3    H7    1.106627 S    
C16   H30   1.088126 S    
P4    O12   1.601002 D    
O6    P6    1.760417 S    
C52   C54   1.530059 S    
C61   H46   1.111339 S    
C37   C38   1.420091 A    
S5    O39   1.659992 S    
S6    O40   1.497664 D    
S8    O48   1.679176 S    
Ba1   O16   2.923190 S    
S1    O26   1.491535 D    
Ba1   Ba2   4.849925 S    
S4    O34   1.502243 D    
C12   H22   1.109341 S    
C56   C58   1.397939 A    
P1    O5    1.812361 S    
C45   C46   1.418212 A    
C2    H5    1.107625 S    
N7    H72   1.030626 S    
S4    O36   1.655204 S    
P2    O7    1.613763 D    
P7    O21   1.583640 D    
C64   H62   1.097530 S    
C68   H79   1.110008 S    
O2    Ba2   2.842680 S    
C52   C53   1.526130 S    
C10   S3    1.784027 S    
C49   C53   1.509372 S    
C63   H56   1.094536 S    
C61   H45   1.109098 S    
C39   C40   1.397299 A    
C54   N6    1.430369 S    
C5    H9    1.107205 S    
O1    Ba1   2.897122 S    
C7    H11   1.076496 S    
S7    O45   1.682538 S    
S4    O35   1.494613 D    
C6    S2    1.804703 S    
C40   S7    1.785890 S    
O42   H54   0.980910 S    
S5    O37   1.491673 D    
C31   C38   1.421205 A    
C9    H16   1.110726 S    
P7    C50   1.865744 S    
H29   C16   1.102165 S    
C64   H60   1.102022 S    
N8    H76   1.028354 S    
C67   H75   1.105227 S    
P1    Ba1   3.538804 S    
C42   C44   1.420151 A    
C68   H78   1.108930 S    
S3    O32   1.502961 D    
C14   H25   1.101021 S    
C26   C37   1.408335 A    
C65   H66   1.110431 S    
C11   C12   1.542800 S    
O27   H41   0.988666 S    
C43   H35   1.063707 S    
S7    O43   1.501068 D    
O16   Ba2   3.091835 S    
C24   C25   1.420607 A    
C5    H10   1.093991 S    
N6    C66   1.455535 S    
C18   C19   1.423271 A    
P3    O9    1.547156 D    
C31   C32   1.429808 A    
C55   C57   1.509023 S    
C15   H28   1.092790 S    
C3    H6    1.103689 S    
C1    C10   1.522162 S    
O10   C8    1.390633 S    
O6    C10   1.409680 S    
C13   C14   1.536157 S    
C25   C26   1.427352 A    
C4    O15   1.432291 S    
C38   C41   1.417773 A    
O3    Ba1   2.815669 S    
Ba2   O20   2.922593 S    
P4    Ba2   3.539376 S    
C54   C55   1.366267 D    
C63   H57   1.111146 S    
