data_mof_unit_29058.cif
_audit_creation_date              2013-03-05T16:03:00-0500
_audit_creation_method            fapswitch 2.2
_symmetry_space_group_name_H-M    P1
_symmetry_Int_Tables_number       1
_space_group_crystal_system       triclinic
_cell_length_a                    14.934022
_cell_length_b                    14.255468
_cell_length_c                    10.497501
_cell_angle_alpha                 89.642413
_cell_angle_beta                  86.341477
_cell_angle_gamma                 90.044268
_cell_volume                      2230.22905874

loop_
_atom_site_label
_atom_site_type_symbol
_atom_site_description
_atom_site_fract_x
_atom_site_fract_y
_atom_site_fract_z
_atom_type_partial_charge
O1    O     O_R   0.367850 0.580280 0.500030 -0.631575
O2    O     O_R   0.632150 0.419720 0.499970 -0.631630
O3    O     O_R   0.632150 0.580280 0.499970 -0.617796
O4    O     O_R   0.367850 0.419720 0.500030 -0.617797
C1    C     C_R   0.327593 0.499973 0.496632 0.881548
C2    C     C_R   0.672406 0.500028 0.503391 0.881576
O5    O     O_R   0.499970 0.580260 0.313950 -0.602448
O6    O     O_R   0.500030 0.419740 0.686050 -0.602497
O7    O     O_R   0.500030 0.580260 0.686050 -0.618129
O8    O     O_R   0.499970 0.419740 0.313950 -0.618121
C3    C     C_R   0.500681 0.500388 0.257848 0.937158
C4    C     C_R   0.499323 0.499611 0.742151 0.937185
Zn1   Zn    Zn3+2 0.500000 0.607200 0.500000 0.956469
Zn2   Zn    Zn3+2 0.500000 0.392800 0.500000 0.956448
C5    C     C_3   0.499729 0.588993 0.037750 0.514584
C6    C     C_3   0.500277 0.411006 0.962247 0.514604
C7    C     C_3   0.573105 0.543596 0.950758 0.483572
C8    C     C_3   0.426901 0.456402 0.049239 0.483525
C9    C     C_3   0.424109 0.544989 0.964155 -0.521271
C10   C     C_3   0.575897 0.455009 0.035842 -0.521243
H1    H     H_    0.363973 0.580380 0.929597 0.169303
H2    H     H_    0.636035 0.419619 0.070398 0.169304
C11   C     C_3   0.498899 0.498838 0.876990 -0.247428
C12   C     C_3   0.501107 0.501161 0.123008 -0.247456
C13   C     C_R   0.816139 0.547987 0.412436 -0.332643
C14   C     C_R   0.183861 0.452078 0.587679 -0.332681
C15   C     C_R   0.767527 0.500372 0.509849 -0.035850
C16   C     C_R   0.232471 0.499639 0.490209 -0.035838
C17   C     C_R   0.809412 0.453770 0.609011 0.119549
C18   C     C_R   0.190582 0.546254 0.391064 0.119481
C19   C     C_R   0.903795 0.452151 0.603912 0.099893
C20   C     C_R   0.096200 0.547939 0.396230 0.099871
C21   C     C_R   0.953032 0.500114 0.503110 0.027113
C22   C     C_R   0.046964 0.499990 0.497047 0.027128
C23   C     C_R   0.908517 0.548456 0.408294 0.131466
C24   C     C_R   0.091481 0.451648 0.591862 0.131483
C25   C     C_R   0.950426 0.404112 0.696735 -0.219594
C26   C     C_R   0.049571 0.596019 0.303448 -0.219612
C27   C     C_R   0.043332 0.404105 0.690628 -0.215796
C28   C     C_R   0.956665 0.596033 0.309563 -0.215785
H3    H     H_    0.781444 0.583516 0.338122 0.140205
H4    H     H_    0.218559 0.416554 0.661994 0.140182
H5    H     H_    0.916138 0.365737 0.774533 0.156056
H6    H     H_    0.083862 0.634413 0.225674 0.156060
H7    H     H_    0.077657 0.366797 0.763486 0.139736
H8    H     H_    0.922340 0.633360 0.236724 0.139741
C29   C     C_R   0.564376 0.799638 0.426243 0.258537
C30   C     C_R   0.435623 0.200362 0.573757 0.258525
C31   C     C_R   0.435375 0.798879 0.573334 0.240974
C32   C     C_R   0.564624 0.201121 0.426665 0.240981
N1    N     N_R   0.500000 0.750030 0.500000 -0.104690
N2    N     N_R   0.500000 0.249970 0.500000 -0.104692
C33   C     C_R   0.432511 0.899091 0.570294 0.013985
C34   C     C_R   0.567488 0.100909 0.429705 0.013988
C35   C     C_R   0.567339 0.899805 0.429452 0.010186
C36   C     C_R   0.432661 0.100195 0.570548 0.010186
C37   C     C_R   0.499979 0.949618 0.499972 0.027455
C38   C     C_R   0.500020 0.050382 0.500028 0.027458
C39   C     C_R   0.363932 0.950446 0.637018 -0.199649
C40   C     C_R   0.636066 0.049554 0.362980 -0.199651
C41   C     C_R   0.635923 0.951811 0.362713 -0.198464
C42   C     C_R   0.364076 0.048189 0.637286 -0.198461
H9    H     H_    0.308472 0.916223 0.689780 0.152905
H10   H     H_    0.691525 0.083777 0.310217 0.152904
H11   H     H_    0.691183 0.918066 0.309613 0.150223
H12   H     H_    0.308816 0.081935 0.690385 0.150226
O9    O     O_3   0.503000 0.680334 0.088312 -0.595656
C43   C     C_3   0.483151 0.746060 0.993604 -0.285978
H13   H     H_    0.410868 0.742795 0.974626 0.159709
H14   H     H_    0.525750 0.736152 0.903733 0.201116
H15   H     H_    0.496820 0.817408 0.029330 0.181106
O10   O     O_3   0.496998 0.319666 0.911688 -0.595655
C44   C     C_3   0.516861 0.253940 0.006390 -0.285922
H16   H     H_    0.474281 0.263853 0.096276 0.201122
H17   H     H_    0.589148 0.257199 0.025337 0.159690
H18   H     H_    0.503177 0.182593 0.970675 0.181102
O11   O     O_3   0.646365 0.590364 0.886892 -0.593960
C45   C     C_3   0.709854 0.613015 0.975456 -0.314772
H19   H     H_    0.741054 0.548659 0.013265 0.150964
H20   H     H_    0.679931 0.656199 0.055121 0.185249
H21   H     H_    0.764152 0.655058 0.925745 0.191468
O12   O     O_3   0.353642 0.409620 0.113093 -0.593976
C46   C     C_3   0.290135 0.387045 0.024540 -0.314707
H22   H     H_    0.320045 0.343920 0.944810 0.185227
H23   H     H_    0.258935 0.451433 0.986831 0.150980
H24   H     H_    0.235839 0.344965 0.074219 0.191453
C47   C     C_3   0.755023 0.409183 0.720918 -0.824272
H25   H     H_    0.777059 0.437760 0.811961 0.234516
H26   H     H_    0.682283 0.423483 0.721581 0.268283
H27   H     H_    0.764577 0.331964 0.719668 0.227804
C48   C     C_3   0.244971 0.590764 0.279088 -0.824068
H28   H     H_    0.317698 0.576306 0.278303 0.268227
H29   H     H_    0.222812 0.562240 0.188083 0.234404
H30   H     H_    0.235555 0.668005 0.280367 0.227848
C49   C     C_3   0.632541 0.749958 0.338207 -0.812187
H31   H     H_    0.619897 0.675620 0.326311 0.288146
H32   H     H_    0.631702 0.780045 0.240435 0.218869
H33   H     H_    0.700545 0.757873 0.373887 0.205488
C50   C     C_3   0.367459 0.250043 0.661794 -0.812153
H34   H     H_    0.380105 0.324381 0.673691 0.288140
H35   H     H_    0.299454 0.242129 0.626113 0.205495
H36   H     H_    0.368297 0.219955 0.759568 0.218882
C51   C     C_3   0.366363 0.748285 0.659998 -0.852045
H37   H     H_    0.379283 0.674067 0.673456 0.287273
H38   H     H_    0.365550 0.777995 0.757514 0.188350
H39   H     H_    0.298940 0.755819 0.622198 0.224941
C52   C     C_3   0.633635 0.251715 0.339998 -0.852049
H40   H     H_    0.620717 0.325934 0.326544 0.287280
H41   H     H_    0.701059 0.244178 0.377794 0.224941
H42   H     H_    0.634444 0.222007 0.242482 0.188349

loop_
_geom_bond_atom_site_label_1
_geom_bond_atom_site_label_2
_geom_bond_distance
_ccdc_geom_bond_type
C18   C20   1.407301 A    
C47   H25   1.110162 S    
C15   C17   1.411134 A    
C52   H41   1.110616 S    
C44   H16   1.113504 S    
C9    C11   1.547839 S    
C49   H31   1.085643 S    
C6    O10   1.411166 S    
O3    C2    1.294153 A    
C33   C39   1.411196 A    
C49   H33   1.110542 S    
C34   C40   1.411193 A    
O11   C45   1.408314 S    
C5    C9    1.543364 S    
C4    C11   1.415062 S    
C32   C34   1.429453 A    
C8    C12   1.532799 S    
C9    H1    1.110266 S    
C45   H20   1.112300 S    
C3    C12   1.415072 S    
C7    C10   1.544361 S    
C30   C36   1.429257 A    
C8    C9    1.544361 S    
O7    Zn1   1.988135 S    
C21   C23   1.408592 A    
Zn1   N1    2.036108 S    
Zn2   N2    2.036110 S    
C46   H22   1.112257 S    
C43   H13   1.111118 S    
C31   N1    1.386329 A    
C32   N2    1.386328 A    
C52   H40   1.085591 S    
C19   C21   1.420842 A    
C20   C26   1.407945 A    
C22   C24   1.408598 A    
O3    Zn1   2.010768 S    
C6    C10   1.543365 S    
C27   H7    1.084416 S    
C17   C19   1.407320 A    
C44   H17   1.111113 S    
O2    C2    1.294430 A    
O5    C3    1.284897 A    
C42   H12   1.080938 S    
O9    C43   1.407334 S    
C10   C12   1.547848 S    
O10   C44   1.407336 S    
O8    Zn2   1.988136 S    
C13   H3    1.086547 S    
C48   H28   1.105182 S    
C33   C37   1.405808 A    
C45   H19   1.111769 S    
C18   C48   1.520564 S    
C29   N1    1.386001 A    
C19   C25   1.407993 A    
C40   C41   1.393394 A    
C20   C22   1.420853 A    
C25   H5    1.081229 S    
C28   H8    1.084399 S    
C26   H6    1.081212 S    
C48   H29   1.110172 S    
C1    C16   1.426449 S    
C2    C15   1.426470 S    
C30   N2    1.386004 A    
O6    C4    1.284890 A    
C5    O9    1.411180 S    
C50   H36   1.110737 S    
C7    O11   1.410896 S    
C21   C22   1.400166 A    
C51   H38   1.109622 S    
C7    C11   1.532799 S    
C13   C23   1.377496 A    
C14   C24   1.377510 A    
C5    C12   1.535437 S    
C46   H23   1.111731 S    
C10   H2    1.110266 S    
C6    C11   1.535424 S    
C35   C37   1.405994 A    
C32   C52   1.510313 S    
C52   H42   1.109619 S    
O1    C1    1.294415 A    
O1    Zn1   2.010186 S    
C14   H4    1.086558 S    
C29   C35   1.429255 A    
C34   C38   1.405810 A    
C5    C7    1.527840 S    
C30   C50   1.510341 S    
C39   C42   1.393396 A    
O6    Zn2   1.992839 S    
C50   H35   1.110559 S    
C39   H9    1.080839 S    
C24   C27   1.395224 A    
O4    C1    1.294156 A    
C31   C51   1.510314 S    
C49   H32   1.110717 S    
C13   C15   1.388993 A    
C14   C16   1.389034 A    
C50   H34   1.085653 S    
C40   H10   1.080838 S    
C47   H26   1.105013 S    
C23   C28   1.395202 A    
C25   C27   1.384851 A    
C48   H30   1.110217 S    
C26   C28   1.384847 A    
C45   H21   1.109236 S    
C37   C38   1.436434 A    
C43   H15   1.109519 S    
C31   C33   1.429456 A    
C35   C41   1.410775 A    
C16   C18   1.411108 A    
C8    O12   1.410922 S    
C36   C38   1.405994 A    
C51   H39   1.110619 S    
C36   C42   1.410775 A    
O4    Zn2   2.010769 S    
O2    Zn2   2.010185 S    
O7    C4    1.288195 A    
C17   C47   1.520492 S    
O8    C3    1.288192 A    
C41   H11   1.080934 S    
O5    Zn1   1.992840 S    
C46   H24   1.109360 S    
C44   H18   1.109512 S    
C6    C8    1.527829 S    
O12   C46   1.408177 S    
C47   H27   1.110154 S    
C51   H37   1.085592 S    
C43   H14   1.113510 S    
C29   C49   1.510335 S    
