data_mof_unit_45959.cif
_audit_creation_date              2012-12-11T14:33:52-0500
_audit_creation_method            fapswitch 2.2
_symmetry_space_group_name_H-M    P1
_symmetry_Int_Tables_number       1
_space_group_crystal_system       triclinic
_cell_length_a                    13.846793
_cell_length_b                    13.981502
_cell_length_c                    27.365235
_cell_angle_alpha                 89.982438
_cell_angle_beta                  90.150983
_cell_angle_gamma                 119.674433
_cell_volume                      4603.05834255

loop_
_atom_site_label
_atom_site_type_symbol
_atom_type_description
_atom_site_fract_x
_atom_site_fract_y
_atom_site_fract_z
_atom_type_partial_charge
C1    C     C_R   0.234258 0.786865 0.568837 0.541511
C2    C     C_1   0.702293 0.858137 0.861198 -0.071973
C3    C     C_1   0.590995 0.971041 0.716015 0.174034
C4    C     C_1   0.018171 0.629291 0.716949 0.178776
C5    C     C_1   0.363499 0.377917 0.717098 0.178669
C6    C     C_1   0.670866 0.656617 0.710979 0.200823
C7    C     C_1   0.333765 0.019737 0.704972 0.206174
C8    C     C_1   0.978313 0.329020 0.705021 0.205043
C9    C     C_1   0.119740 0.874506 0.854304 -0.070379
C10   C     C_1   0.117775 0.243390 0.853962 -0.071395
C11   C     C_1   0.625597 0.811850 0.659397 -0.048522
C12   C     C_1   0.181702 0.814851 0.657460 -0.050148
C13   C     C_1   0.181661 0.368188 0.657702 -0.050064
C14   C     C_1   0.599427 0.795123 0.616976 0.011449
C15   C     C_1   0.201561 0.803793 0.615857 0.012629
C16   C     C_1   0.195202 0.398666 0.616043 0.012538
C17   C     C_R   0.064971 0.150529 0.095983 0.578462
C18   C     C_R   0.212923 0.447295 0.568898 0.544618
C19   C     C_R   0.777852 0.884214 0.088517 0.546867
C20   C     C_R   0.116469 0.893773 0.088229 0.560137
C21   C     C_R   0.070666 0.162816 0.943025 0.537650
C22   C     C_R   0.779074 0.886788 0.951036 0.542251
C23   C     C_R   0.091614 0.927950 0.943144 0.534098
C24   C     C_R   0.617006 0.894806 0.361246 -0.131842
C25   C     C_R   0.097628 0.731571 0.362514 -0.133414
C26   C     C_R   0.264687 0.358665 0.363593 -0.133654
C27   C     C_R   0.643855 0.910677 0.311745 0.013801
C28   C     C_R   0.081050 0.743164 0.312917 0.014057
C29   C     C_R   0.552551 0.765156 0.569065 0.540526
C30   C     C_R   0.241899 0.308130 0.317475 0.013983
C31   C     C_R   0.681543 0.929195 0.210484 0.017083
C32   C     C_R   0.060955 0.759749 0.211439 0.017088
C33   C     C_R   0.201433 0.227401 0.220840 0.017111
C34   C     C_R   0.232516 0.788176 0.431738 0.546550
C35   C     C_R   0.211695 0.444627 0.431319 0.548368
C36   C     C_R   0.555286 0.767066 0.431810 0.547351
C37   C     C_R   0.652927 0.000223 0.234450 -0.138106
C38   C     C_R   0.978228 0.669967 0.237279 -0.128392
C39   C     C_R   0.303936 0.258636 0.243453 -0.124183
C40   C     C_3   0.630395 0.719148 0.792722 -0.093680
C41   C     C_R   0.633918 0.990883 0.284810 -0.130816
C42   C     C_R   0.988822 0.661058 0.287675 -0.128859
C43   C     C_R   0.324149 0.298994 0.291383 -0.128282
C44   C     C_R   0.704650 0.939629 0.160308 -0.150516
C45   C     C_R   0.050986 0.771111 0.161148 -0.135669
C46   C     C_R   0.183578 0.196419 0.171446 -0.128776
C47   C     C_R   0.730320 0.865440 0.137400 -0.003057
C48   C     C_R   0.135304 0.861892 0.136410 -0.005061
C49   C     C_R   0.083207 0.173245 0.148561 -0.008815
C50   C     C_R   0.658638 0.744991 0.364077 -0.130025
C51   C     C_3   0.264618 0.930007 0.788768 -0.093063
C52   C     C_R   0.265867 0.910576 0.361933 -0.127229
C53   C     C_R   0.076337 0.328647 0.367697 -0.128614
C54   C     C_R   0.683477 0.758196 0.314673 0.012998
C55   C     C_R   0.254051 0.920471 0.312307 0.013371
C56   C     C_R   0.052987 0.279873 0.321626 0.011695
C57   C     C_R   0.673656 0.839660 0.288073 0.063855
C58   C     C_R   0.162410 0.835675 0.287380 0.063304
C59   C     C_R   0.136652 0.271592 0.295872 0.062613
C60   C     C_R   0.709914 0.685713 0.290838 -0.126566
C61   C     C_R   0.336935 0.010289 0.286776 -0.127195
C62   C     C_3   0.064969 0.338329 0.789137 -0.092409
C63   C     C_R   0.949393 0.245689 0.299692 -0.128633
C64   C     C_R   0.722833 0.691284 0.240490 -0.127027
C65   C     C_R   0.330993 0.014510 0.236274 -0.129473
C66   C     C_R   0.930445 0.208369 0.251574 -0.122665
C67   C     C_R   0.712487 0.771311 0.213879 0.010828
C68   C     C_R   0.240218 0.930918 0.211198 0.014279
C69   C     C_R   0.013766 0.202437 0.225164 0.016587
C70   C     C_3   0.572643 0.866332 0.737522 -0.104587
C71   C     C_3   0.121958 0.718612 0.738272 -0.105273
C72   C     C_3   0.276989 0.397666 0.738501 -0.105291
C73   C     C_3   0.612911 0.708459 0.735597 -0.077419
C74   C     C_R   0.689732 0.847185 0.237499 0.065409
C75   C     C_R   0.154291 0.842094 0.236671 0.064053
C76   C     C_R   0.116709 0.232037 0.247536 0.062225
C77   C     C_R   0.727585 0.778091 0.163987 -0.122944
C78   C     C_R   0.232264 0.937280 0.161112 -0.132572
C79   C     C_R   0.997534 0.172383 0.176048 -0.129244
C80   C     C_R   0.617853 0.807560 0.386551 -0.002006
C81   C     C_R   0.193549 0.812584 0.386241 -0.002485
C82   C     C_R   0.183394 0.373111 0.387933 -0.003839
C83   C     C_3   0.770028 0.904179 0.724312 -0.221171
C84   C     C_3   0.280062 0.914985 0.732850 -0.079031
C85   C     C_3   0.082941 0.872615 0.715468 -0.218514
C86   C     C_3   0.113909 0.211392 0.714942 -0.219256
C87   C     C_3   0.788552 0.916170 0.780254 -0.219088
C88   C     C_3   0.064202 0.884521 0.770127 -0.222050
C89   C     C_3   0.099192 0.179326 0.769379 -0.223644
C90   C     C_1   0.731530 0.871320 0.903276 -0.031663
C91   C     C_1   0.105964 0.896350 0.895270 -0.023214
C92   C     C_1   0.099480 0.207848 0.894950 -0.026540
C93   C     C_3   0.645880 0.823342 0.712670 0.038499
C94   C     C_3   0.166134 0.829627 0.709538 0.036041
C95   C     C_3   0.083122 0.371821 0.733410 -0.078863
C96   C     C_3   0.164431 0.337475 0.709664 0.037186
C97   C     C_3   0.594388 0.879430 0.793696 -0.230519
C98   C     C_3   0.104687 0.735506 0.793320 -0.228214
C99   C     C_3   0.258168 0.362673 0.793256 -0.228173
C100  C     C_3   0.679110 0.842497 0.808365 0.064894
C101  C     C_3   0.138865 0.857528 0.802993 0.062307
C102  C     C_3   0.133523 0.280336 0.802797 0.062417
C103  C     C_3   0.696660 0.665528 0.813284 -0.397179
C104  C     C_3   0.317998 0.051378 0.805525 -0.400520
C105  C     C_3   0.941525 0.271932 0.804611 -0.398581
Cr1   Cr    Cr6+3 0.164410 0.584450 0.499910 1.039561
Cr2   Cr    Cr6+3 0.415550 0.579960 0.499910 1.039963
Cr3   Cr    Cr6+3 0.420040 0.835590 0.499910 1.037902
Cr4   Cr    Cr6+3 0.155170 0.075460 0.019960 1.016098
Cr5   Cr    Cr6+3 0.924540 0.079710 0.019960 1.006638
Cr6   Cr    Cr6+3 0.920290 0.844830 0.019960 1.008322
H1    H     H_    0.626151 0.966180 0.805666 0.130250
H2    H     H_    0.705934 0.006377 0.139616 0.104598
H3    H     H_    0.976181 0.712920 0.141883 0.113662
H4    H     H_    0.248931 0.194497 0.150490 0.121576
H5    H     H_    0.586644 0.944330 0.378770 0.129435
H6    H     H_    0.040465 0.656611 0.381500 0.125533
H7    H     H_    0.347198 0.391906 0.379182 0.126667
H8    H     H_    0.645169 0.062791 0.214274 0.098619
H9    H     H_    0.906369 0.605961 0.218417 0.098429
H10   H     H_    0.369710 0.255280 0.223544 0.100470
H11   H     H_    0.610198 0.045409 0.302572 0.101072
H12   H     H_    0.016649 0.681496 0.804660 0.131795
H13   H     H_    0.925558 0.589659 0.306799 0.102162
H14   H     H_    0.405153 0.325988 0.307527 0.103405
H15   H     H_    0.745874 0.719237 0.146497 0.129562
H16   H     H_    0.298021 0.007033 0.141961 0.123321
H17   H     H_    0.919182 0.151839 0.158599 0.117989
H18   H     H_    0.740892 0.633102 0.222334 0.098912
H19   H     H_    0.396787 0.083513 0.216872 0.094537
H20   H     H_    0.852192 0.188102 0.234409 0.110687
H21   H     H_    0.717145 0.622665 0.310891 0.102948
H22   H     H_    0.408007 0.075374 0.305677 0.098561
H23   H     H_    0.309071 0.324609 0.804422 0.129559
H24   H     H_    0.884597 0.252009 0.319057 0.105006
H25   H     H_    0.661232 0.679013 0.383831 0.130781
H26   H     H_    0.338583 0.974919 0.380300 0.133539
H27   H     H_    0.012508 0.337777 0.386481 0.132797
H28   H     H_    0.823841 0.874392 0.707980 0.122091
H29   H     H_    0.114532 0.953558 0.697012 0.123244
H30   H     H_    0.032003 0.167138 0.696075 0.125369
H31   H     H_    0.796335 0.986316 0.707961 0.136937
H32   H     H_    0.002114 0.815154 0.697810 0.143126
H33   H     H_    0.168514 0.184002 0.697336 0.139369
H34   H     H_    0.483483 0.804906 0.731320 0.082499
H35   H     H_    0.820113 0.003409 0.790678 0.107907
H36   H     H_    0.975558 0.827275 0.778940 0.110579
H37   H     H_    0.153505 0.144747 0.778100 0.107738
H38   H     H_    0.853833 0.896100 0.790833 0.107017
H39   H     H_    0.079226 0.968155 0.777676 0.104645
H40   H     H_    0.012312 0.114292 0.776433 0.106357
H41   H     H_    0.522746 0.652392 0.728530 0.083723
H42   H     H_    0.337596 0.881089 0.729886 0.086167
H43   H     H_    0.122846 0.463145 0.731466 0.083311
H44   H     H_    0.546476 0.671959 0.809617 0.115066
H45   H     H_    0.184939 0.691349 0.735886 0.081709
H46   H     H_    0.311030 0.896590 0.809334 0.118362
H47   H     H_    0.100261 0.416046 0.810749 0.119610
H48   H     H_    0.782876 0.706762 0.799150 0.142840
H49   H     H_    0.699543 0.668724 0.853800 0.141900
H50   H     H_    0.655002 0.577154 0.802886 0.149289
H51   H     H_    0.280105 0.094286 0.786408 0.143530
H52   H     H_    0.309650 0.057638 0.845532 0.139313
H53   H     H_    0.408429 0.094935 0.797428 0.151019
H54   H     H_    0.897118 0.193466 0.784115 0.143946
H55   H     H_    0.933635 0.253786 0.844332 0.139924
H56   H     H_    0.309380 0.488038 0.736529 0.081623
H57   H     H_    0.899766 0.320919 0.797381 0.151378
H58   H     H_    0.514606 0.828773 0.813348 0.092838
H59   H     H_    0.155711 0.711616 0.816350 0.097421
H60   H     H_    0.286012 0.437062 0.816567 0.098352
N1    N     N_1   0.605417 0.053020 0.699191 -0.247974
N2    N     N_1   0.936889 0.559389 0.700256 -0.241016
N3    N     N_1   0.431339 0.362628 0.700361 -0.240919
N4    N     N_1   0.716080 0.616271 0.691722 -0.251496
N5    N     N_1   0.375555 0.101282 0.683155 -0.243944
N6    N     N_1   0.896644 0.295599 0.682823 -0.243259
O1    O     O_R   0.137150 0.468200 0.553200 -0.497991
O2    O     O_R   0.140110 0.470540 0.446010 -0.520359
O3    O     O_R   0.529460 0.669570 0.446010 -0.520175
O4    O     O_R   0.330430 0.859890 0.446010 -0.522553
O5    O     O_R   0.176710 0.690910 0.450560 -0.502651
O6    O     O_R   0.309090 0.485800 0.450560 -0.501324
O7    O     O_R   0.514200 0.823290 0.450560 -0.504401
O8    O     O_3   0.333333 0.666667 0.499990 -0.275394
O9    O     O_R   0.176750 0.985260 0.074180 -0.529630
O10   O     O_R   0.014740 0.191490 0.074180 -0.494501
O11   O     O_R   0.808510 0.823250 0.074180 -0.517574
O12   O     O_R   0.531800 0.668950 0.553200 -0.498337
O13   O     O_R   0.146100 0.172630 0.068980 -0.479243
O14   O     O_R   0.827370 0.973470 0.068980 -0.517888
O15   O     O_R   0.026530 0.853900 0.068980 -0.488899
O16   O     O_3   1.000000 0.000000 0.020040 -0.282584
O17   O     O_R   0.148270 0.170520 0.969620 -0.490008
O18   O     O_R   0.829480 0.977750 0.969620 -0.518402
O19   O     O_R   0.022250 0.851730 0.969620 -0.481651
O20   O     O_R   0.331050 0.862850 0.553200 -0.495540
O21   O     O_R   0.179100 0.982980 0.967000 -0.506254
O22   O     O_R   0.017020 0.196120 0.967000 -0.485412
O23   O     O_R   0.803880 0.820900 0.967000 -0.513067
O24   O     O_R   0.173970 0.688730 0.549930 -0.496050
O25   O     O_R   0.311270 0.485240 0.549930 -0.494849
O26   O     O_R   0.514760 0.826030 0.549930 -0.493039

loop_
_geom_bond_atom_site_label_1
_geom_bond_atom_site_label_2
_ccdc_geom_bond_type
C57   C74   A    
C89   H37   S    
C83   C87   S    
C79   H17   S    
C29   O26   A    
C87   H35   S    
C89   C102  S    
C32   C45   A    
C95   C96   S    
C36   O3    A    
C24   C27   A    
C73   C93   S    
C29   O12   A    
C1    O24   A    
C60   H21   S    
C32   C75   A    
C83   H28   S    
C88   C101  S    
C86   H33   S    
C62   C105  S    
C54   C60   A    
C105  H55   S    
C25   C28   A    
C23   O21   A    
Cr6   O11   S    
C33   C39   A    
Cr3   O4    S    
C34   O4    A    
C22   O23   A    
C43   H14   S    
C52   C55   A    
C21   O22   A    
C38   C42   A    
C5    C72   S    
C50   C80   A    
C51   C84   S    
C104  H51   S    
Cr2   O3    S    
C11   C14   T    
C19   C47   S    
C3    N1    T    
C45   C48   A    
C66   C69   A    
C99   H60   S    
C6    N4    T    
C35   O6    A    
C72   C99   S    
C83   C93   S    
Cr5   O14   S    
C98   H59   S    
C97   H58   S    
C40   C73   S    
C69   C76   A    
C5    N3    T    
C48   C78   A    
Cr3   O20   S    
C2    C90   T    
C56   C59   A    
Cr1   O5    S    
C45   H3    S    
C24   C80   A    
C19   O11   A    
C67   C77   A    
C23   O19   A    
C62   H47   S    
C40   H44   S    
Cr4   O16   S    
C36   O7    A    
C34   C81   S    
C32   C38   A    
C21   O17   A    
C44   C47   A    
Cr6   O19   S    
C38   H9    S    
C11   C93   S    
C85   C94   S    
C7    C84   S    
C63   C66   A    
C2    C100  S    
Cr6   O15   S    
C26   C82   A    
C62   C95   S    
C7    N5    T    
C25   C81   A    
C33   C46   A    
C12   C94   S    
Cr4   O21   S    
C8    C95   S    
C104  H52   S    
C78   H16   S    
C8    N6    T    
C35   C82   S    
C58   C75   A    
C65   H19   S    
C68   C78   A    
C98   H12   S    
C71   C98   S    
Cr5   O10   S    
C103  H50   S    
C31   C44   A    
Cr3   O7    S    
C13   C96   S    
C42   H13   S    
C53   H27   S    
C64   C67   A    
Cr3   O8    S    
C10   C102  S    
C70   C93   S    
Cr2   O25   S    
C61   H22   S    
C17   C49   S    
C71   C94   S    
C97   H1    S    
C31   C74   A    
C39   C43   A    
C51   C104  S    
C20   O9    A    
C51   H46   S    
C31   C37   A    
C99   H23   S    
Cr2   O6    S    
C53   C82   A    
C68   C75   A    
C63   H24   S    
C41   H11   S    
C104  H53   S    
C61   C65   A    
Cr6   O23   S    
Cr1   O24   S    
C84   H42   S    
C27   C41   A    
C33   C76   A    
C37   H8    S    
C12   C15   T    
Cr4   O13   S    
C21   C92   S    
C65   C68   A    
C30   C59   A    
C3    C70   S    
Cr5   O16   S    
C52   H26   S    
C22   C90   S    
C56   C63   A    
Cr4   O17   S    
C18   O25   A    
C67   C74   A    
C84   C94   S    
C64   H18   S    
C85   H29   S    
C20   C48   S    
C86   C96   S    
Cr6   O16   S    
C1    C15   S    
C46   H4    S    
C36   C80   S    
C16   C18   S    
C44   H2    S    
C24   H5    S    
C4    N2    T    
C73   H41   S    
C27   C57   A    
C17   O13   A    
C72   H56   S    
C46   C49   A    
C30   C43   A    
C69   C79   A    
C51   C101  S    
C103  H49   S    
C47   C77   A    
C14   C29   S    
Cr1   O2    S    
C97   C100  S    
C6    C73   S    
C66   H20   S    
C85   C88   S    
Cr5   O22   S    
C88   H39   S    
C70   H34   S    
C1    O20   A    
C26   H7    S    
Cr1   O8    S    
C86   C89   S    
C25   H6    S    
Cr2   O12   S    
C40   C100  S    
C83   H31   S    
C85   H32   S    
C70   C97   S    
C26   C30   A    
C28   C58   A    
Cr4   O9    S    
Cr3   O26   S    
C98   C101  S    
C20   O15   A    
Cr2   O8    S    
C39   H10   S    
C105  H57   S    
C60   C64   A    
C95   H43   S    
C13   C16   T    
C50   C54   A    
C50   H25   S    
C40   C103  S    
C35   O2    A    
C103  H48   S    
C17   O10   A    
C71   H45   S    
C55   C61   A    
C28   C42   A    
C88   H36   S    
C105  H54   S    
C34   O5    A    
C23   C91   S    
C37   C41   A    
C52   C81   A    
C22   O18   A    
C53   C56   A    
C10   C92   T    
C72   C96   S    
C49   C79   A    
C89   H40   S    
C99   C102  S    
C9    C91   T    
C18   O1    A    
C9    C101  S    
C87   H38   S    
C55   C58   A    
Cr5   O18   S    
C87   C100  S    
C59   C76   A    
Cr1   O1    S    
C4    C71   S    
C77   H15   S    
C86   H30   S    
C19   O14   A    
C62   C102  S    
C54   C57   A    
