data_mof_unit_34704.cif
_audit_creation_date              2013-03-05T15:52:55-0500
_audit_creation_method            fapswitch 2.2
_symmetry_space_group_name_H-M    P1
_symmetry_Int_Tables_number       1
_space_group_crystal_system       triclinic
_cell_length_a                    10.738728
_cell_length_b                    10.81175
_cell_length_c                    17.033724
_cell_angle_alpha                 99.963288
_cell_angle_beta                  100.2362
_cell_angle_gamma                 60.389352
_cell_volume                      1683.63071484

loop_
_atom_site_label
_atom_site_type_symbol
_atom_site_description
_atom_site_fract_x
_atom_site_fract_y
_atom_site_fract_z
_atom_type_partial_charge
O1    O     O_R   0.749810 0.499790 0.438040 -0.511698
O2    O     O_R   0.477660 0.726260 0.439290 -0.480403
C1    C     C_R   0.351891 0.778913 0.401768 0.596469
O3    O     O_R   0.260150 0.743000 0.412270 -0.432552
O4    O     O_R   0.297740 0.466550 0.394720 -0.512194
C2    C     C_R   0.365609 0.342971 0.358789 0.564636
O5    O     O_R   0.488080 0.253500 0.386430 -0.461517
O6    O     O_R   0.722670 0.303800 0.421940 -0.465004
C3    C     C_R   0.780174 0.373111 0.405185 0.567069
O7    O     O_R   0.751130 0.502220 0.613520 -0.481425
O8    O     O_R   0.478890 0.728510 0.601960 -0.462875
C4    C     C_R   0.381909 0.714686 0.631463 0.518248
O9    O     O_R   0.261470 0.745430 0.587750 -0.479144
O10   O     O_R   0.298970 0.468800 0.557390 -0.499011
C5    C     C_R   0.411316 0.376882 0.599998 0.518434
O11   O     O_R   0.489400 0.255930 0.561910 -0.438930
O12   O     O_R   0.723890 0.306050 0.584610 -0.528908
C6    C     C_R   0.773224 0.381010 0.629750 0.542744
Cr1   Cr    Cr6+3 0.608100 0.610860 0.522250 1.106576
Cr2   Cr    Cr6+3 0.288890 0.599990 0.488420 1.087306
Cr3   Cr    Cr6+3 0.603040 0.289190 0.489390 1.136629
O13   O     O_3   0.500010 0.500010 0.500020 -0.337379
C7    C     C_1   0.324431 0.316072 0.276923 -0.059240
C8    C     C_1   0.305243 0.290958 0.206170 -0.063753
H1    H     H_    0.936102 0.469648 0.353348 0.141650
C9    C     C_R   0.861860 0.322665 0.171003 0.013789
C10   C     C_R   0.814628 0.234536 0.194004 -0.074346
C11   C     C_R   0.832745 0.216165 0.276231 -0.015744
C12   C     C_R   0.908063 0.398802 0.310069 -0.145006
C13   C     C_R   0.916574 0.396067 0.230234 -0.157534
C14   C     C_R   0.758029 0.158565 0.137259 -0.106105
C15   C     C_R   0.739124 0.050702 0.159939 0.240388
C16   C     C_R   0.768974 0.025652 0.240202 -0.055172
C17   C     C_R   0.823129 0.100281 0.298131 0.214236
C18   C     C_R   0.855091 0.318102 0.333120 0.046016
H2    H     H_    0.728727 0.182430 0.075514 0.141080
H3    H     H_    0.966640 0.452185 0.214936 0.123228
H4    H     H_    0.758890 0.940420 0.256935 0.160091
C19   C     C_R   0.288195 0.929859 0.179606 -0.056376
C20   C     C_R   0.425598 0.872922 0.224283 -0.028536
C21   C     C_R   0.431919 0.875171 0.307947 -0.040593
C22   C     C_R   0.191364 0.898280 0.284035 0.270246
C23   C     C_R   0.168830 0.960231 0.215428 -0.146339
C24   C     C_R   0.555919 0.797568 0.189192 -0.064311
C25   C     C_R   0.686214 0.744058 0.237214 -0.183628
C26   C     C_R   0.690511 0.779194 0.319905 -0.097893
C27   C     C_R   0.561949 0.854569 0.355778 0.253387
C28   C     C_R   0.320055 0.864828 0.335516 0.031081
H5    H     H_    0.560799 0.767834 0.125632 0.171073
H6    H     H_    0.065121 0.994411 0.180258 0.151200
H7    H     H_    0.783429 0.682124 0.208886 0.119088
H8    H     H_    0.793520 0.749032 0.355375 0.169546
H9    H     H_    0.198388 0.562820 0.689298 0.168269
C29   C     C_R   0.301356 0.289149 0.801000 -0.019767
C30   C     C_R   0.423313 0.184127 0.762074 0.002972
C31   C     C_R   0.481967 0.227945 0.712856 0.026836
C32   C     C_R   0.265864 0.460244 0.713044 -0.127780
C33   C     C_R   0.222291 0.428609 0.775407 0.203919
C34   C     C_R   0.492021 0.036992 0.773175 -0.080163
C35   C     C_R   0.628296 0.942784 0.749339 -0.087893
C36   C     C_R   0.698051 0.993569 0.713408 -0.063805
C37   C     C_R   0.625675 0.134809 0.695043 -0.058579
C38   C     C_R   0.391445 0.359351 0.679222 -0.063468
H10   H     H_    0.441230 0.994566 0.800849 0.145600
H11   H     H_    0.680838 0.831506 0.760533 0.154833
H12   H     H_    0.806260 0.922643 0.697423 0.158145
H13   H     H_    0.682246 0.169360 0.665768 0.147789
C39   C     C_1   0.817300 0.342754 0.709142 -0.016744
C40   C     C_1   0.843823 0.314068 0.776833 -0.021411
C41   C     C_1   0.359493 0.763713 0.713930 -0.053124
C42   C     C_1   0.326281 0.810381 0.780900 -0.043271
O14   O     O_R   0.171100 0.914680 0.053100 -0.512417
O15   O     O_R   0.941680 0.184840 0.050710 -0.531732
C43   C     C_R   0.897545 0.308209 0.089956 0.521446
O16   O     O_R   0.922080 0.403420 0.072610 -0.545848
O17   O     O_R   0.196880 0.369150 0.083850 -0.512656
C44   C     C_R   0.291063 0.260741 0.121947 0.552028
O18   O     O_R   0.411730 0.181020 0.091530 -0.446446
O19   O     O_R   0.365010 0.944360 0.063320 -0.507980
C45   C     C_R   0.259816 0.955188 0.096040 0.543785
O20   O     O_R   0.159380 0.906670 0.876210 -0.446533
O21   O     O_R   0.930820 0.177420 0.886730 -0.499936
C46   C     C_R   0.885282 0.297739 0.859300 0.549708
O22   O     O_R   0.910360 0.395420 0.895720 -0.473847
O23   O     O_R   0.186010 0.361730 0.919870 -0.430404
C47   C     C_R   0.280436 0.257808 0.876769 0.551440
O24   O     O_R   0.400000 0.173010 0.914630 -0.525578
O25   O     O_R   0.354140 0.936940 0.899340 -0.545175
C48   C     C_R   0.281201 0.880461 0.857957 0.560185
Cr4   Cr    Cr6+3 0.053960 0.052250 0.967380 1.023204
Cr5   Cr    Cr6+3 0.059890 0.373160 0.992710 1.032945
Cr6   Cr    Cr6+3 0.373370 0.061690 0.991710 1.018828
O26   O     O_3   0.162410 0.162370 0.983930 -0.312623
N1    N     N_R   0.562769 0.913731 0.438355 0.106632
O27   O     O_R   0.682587 0.871228 0.485780 -0.317570
O28   O     O_R   0.444398 0.015817 0.465538 -0.303397
N2    N     N_R   0.094140 0.537582 0.808804 0.086804
O29   O     O_R   0.978809 0.523238 0.795671 -0.341903
O30   O     O_R   0.082453 0.663056 0.834318 -0.347235
O31   O     O_3   0.691199 0.967324 0.105888 -0.544764
C49   C     C_3   0.769067 0.911345 0.038096 -0.017495
H14   H     H_    0.885889 0.878467 0.054374 0.131083
H15   H     H_    0.722232 0.991593 0.993770 0.148672
C50   C     C_3   0.757032 0.779726 0.998588 -0.347260
H16   H     H_    0.642209 0.808569 0.980009 0.169214
H17   H     H_    0.816745 0.735142 0.944787 0.152404
H18   H     H_    0.803529 0.697009 0.041328 0.151421
N3    N     N_R   0.884156 0.045473 0.375341 0.127429
O32   O     O_R   0.838980 0.971899 0.403375 -0.321205
O33   O     O_R   0.990202 0.062368 0.416288 -0.305557
O34   O     O_3   0.105129 0.839026 0.288130 -0.509741
C51   C     C_3   0.155253 0.707768 0.238569 0.000731
H19   H     H_    0.252797 0.622580 0.269110 0.149449
H20   H     H_    0.181559 0.713753 0.179274 0.130006
C52   C     C_3   0.038484 0.665686 0.221484 -0.375068
H21   H     H_    0.944914 0.745480 0.186160 0.151186
H22   H     H_    0.077523 0.562087 0.184851 0.131147
H23   H     H_    0.007828 0.657824 0.278612 0.161676

loop_
_geom_bond_atom_site_label_1
_geom_bond_atom_site_label_2
_geom_bond_distance
_ccdc_geom_bond_type
C24   H5    1.077651 S    
C30   C31   1.394299 A    
C49   H14   1.116633 S    
C30   C34   1.416106 A    
O15   C43   1.276703 A    
O34   C51   1.417193 S    
C50   H17   1.110827 S    
N2    O29   1.298967 A    
O23   Cr5   1.941083 S    
O4    Cr2   1.938941 S    
C44   O18   1.292615 A    
O8    Cr1   1.927331 S    
C9    C10   1.412823 A    
O11   Cr3   2.065828 S    
C37   H13   1.074086 S    
C46   O22   1.252085 A    
O15   Cr4   1.928642 S    
O23   C47   1.297270 A    
O4    C2    1.266578 A    
C25   H7    1.071217 S    
C6    C39   1.412986 S    
C52   H21   1.106379 S    
C26   H8    1.081294 S    
C1    C28   1.471414 S    
N3    O32   1.300485 A    
Cr6   O26   1.959843 S    
C29   C30   1.422217 A    
C36   H12   1.082645 S    
C21   C28   1.423925 A    
O25   Cr6   1.939806 S    
C11   C18   1.421421 A    
C39   C40   1.194369 T    
C52   H22   1.098543 S    
C7    C8    1.192660 T    
C41   C42   1.204452 T    
O22   Cr5   2.044174 S    
O16   Cr5   2.057371 S    
O20   C48   1.279108 A    
C11   C17   1.422271 A    
C34   C35   1.392475 A    
C49   H15   1.111882 S    
Cr3   O13   1.971938 S    
H1    C12   1.083724 S    
N1    O27   1.301550 A    
C33   N2    1.431657 S    
C51   H20   1.116338 S    
C50   H16   1.110541 S    
N2    O30   1.300814 A    
C32   C38   1.394786 A    
C21   C27   1.419262 A    
C16   C17   1.395407 A    
O1    Cr1   2.046776 S    
C43   O16   1.271741 A    
C10   C14   1.410038 A    
O10   Cr2   1.945107 S    
Cr1   O13   1.997139 S    
O1    C3    1.285958 A    
O17   C44   1.294721 A    
C19   C20   1.414451 A    
C29   C47   1.469904 S    
H9    C32   1.084217 S    
C47   O24   1.285324 A    
O6    C3    1.272117 A    
C19   C23   1.384173 A    
O18   Cr6   2.059717 S    
O5    Cr3   2.053244 S    
O12   Cr3   1.931715 S    
C15   O31   1.388539 S    
C13   H3    1.073296 S    
C35   C36   1.386680 A    
C22   O34   1.377512 S    
C12   C13   1.373354 A    
C40   C46   1.410134 S    
Cr5   O26   1.972163 S    
O14   Cr4   2.043626 S    
C14   C15   1.402923 A    
C42   C48   1.431948 S    
O7    Cr1   2.038672 S    
C52   H23   1.110268 S    
O12   C6    1.261980 A    
C34   H10   1.069373 S    
C31   C38   1.417946 A    
C22   C28   1.412352 A    
C4    O9    1.286942 A    
N1    O28   1.301666 A    
O19   Cr6   1.947315 S    
O20   Cr4   2.046674 S    
C20   C21   1.411169 A    
Cr2   O13   1.959699 S    
C35   H11   1.082819 S    
C9    C13   1.402134 A    
C49   C50   1.521198 S    
C31   C37   1.418682 A    
C22   C23   1.372252 A    
C1    O3    1.272015 A    
C24   C25   1.385146 A    
Cr4   O26   1.997673 S    
C29   C33   1.419582 A    
C4    C41   1.431291 S    
C26   C27   1.399722 A    
O9    Cr2   2.054492 S    
O2    Cr1   1.922294 S    
C14   H2    1.080647 S    
O6    Cr3   1.945067 S    
O8    C4    1.313524 A    
C23   H6    1.080999 S    
C2    O5    1.251967 A    
C12   C18   1.388319 A    
C16   H4    1.068926 S    
O21   Cr4   1.922640 S    
C17   N3    1.445647 S    
C19   C45   1.446480 S    
O2    C1    1.271217 A    
O14   C45   1.299322 A    
C15   C16   1.389911 A    
C32   C33   1.387418 A    
O7    C6    1.282539 A    
C2    C7    1.411494 S    
O31   C49   1.414287 S    
C9    C43   1.459906 S    
C27   N1    1.441382 S    
N3    O33   1.302263 A    
C51   H19   1.111262 S    
C51   C52   1.500786 S    
C36   C37   1.392779 A    
O17   Cr5   1.929945 S    
O19   C45   1.292652 A    
O3    Cr2   2.061215 S    
C25   C26   1.392661 A    
C8    C44   1.413297 S    
C20   C24   1.407713 A    
O25   C48   1.269155 A    
O21   C46   1.284583 A    
C10   C11   1.414312 A    
C3    C18   1.460595 S    
C5    C38   1.460615 S    
O10   C5    1.312808 A    
O24   Cr6   2.067510 S    
C50   H18   1.110839 S    
C5    O11   1.284631 A    
