data_mof_unit_8192.cif
_audit_creation_date              2012-12-10T17:57:27-0500
_audit_creation_method            fapswitch 2.2
_symmetry_space_group_name_H-M    P1
_symmetry_Int_Tables_number       1
_space_group_crystal_system       triclinic
_cell_length_a                    9.513293
_cell_length_b                    10.812801
_cell_length_c                    13.456546
_cell_angle_alpha                 90.119063
_cell_angle_beta                  72.510306
_cell_angle_gamma                 90.027168
_cell_volume                      1320.21865362

loop_
_atom_site_label
_atom_site_type_symbol
_atom_type_description
_atom_site_fract_x
_atom_site_fract_y
_atom_site_fract_z
_atom_type_partial_charge
C1    C     C_R   0.498267 0.737835 0.504097 0.792361
C2    C     C_R   0.433670 0.482036 0.979530 0.084072
C3    C     C_R   0.471175 0.453634 0.871724 0.084065
C4    C     C_R   0.542414 0.466641 0.031683 0.074976
C5    C     C_R   0.680740 0.412787 0.978363 0.167044
C6    C     C_R   0.708008 0.371601 0.876295 -0.248742
C7    C     C_R   0.604038 0.389670 0.824324 -0.205095
C8    C     C_R   0.518534 0.504262 0.135158 -0.249549
C9    C     C_R   0.760333 0.431793 0.132763 -0.205266
C10   C     C_R   0.373511 0.488621 0.814871 -0.101589
C11   C     C_R   0.628722 0.935382 0.464949 -0.221188
C12   C     C_R   0.421365 0.493583 0.700129 0.775296
C13   C     C_R   0.630182 0.063226 0.462433 -0.181908
C14   C     C_R   0.498683 0.128634 0.502672 -0.108078
C15   C     C_R   0.366214 0.066279 0.548136 -0.172359
C16   C     C_R   0.364240 0.938359 0.555559 0.413614
C17   C     C_R   0.496300 0.871916 0.509688 -0.132998
C18   C     C_R   0.896310 0.571365 0.569129 -0.010123
C19   C     C_R   0.045116 0.571149 0.569233 -0.002661
C20   C     C_R   0.103649 0.428558 0.430903 -0.022571
C21   C     C_R   0.954771 0.428585 0.430934 -0.029636
C22   C     C_R   0.499904 0.262203 0.500076 0.804546
C23   C     C_R   0.578706 0.498285 0.299975 0.803975
C24   C     C_R   0.789266 0.397876 0.028664 -0.199897
C25   C     C_R   0.623232 0.482283 0.186860 -0.047842
C26   C     C_R   0.231357 0.530634 0.868541 -0.192882
C27   C     C_R   0.188421 0.544701 0.975906 -0.153447
C28   C     C_R   0.288481 0.523386 0.030938 -0.185096
Cu1   Cu    Cu3+1 0.359340 0.499980 0.500000 0.948420
Cu2   Cu    Cu3+1 0.640660 0.500020 0.500000 0.939123
H1    H     H_    0.842643 0.414195 0.171815 0.147442
H2    H     H_    0.733330 0.110844 0.427072 0.155311
H3    H     H_    0.264956 0.117229 0.582124 0.167411
H4    H     H_    0.816831 0.628671 0.624446 0.133488
H5    H     H_    0.077738 0.628074 0.624708 0.130070
H6    H     H_    0.183095 0.371147 0.375658 0.125814
H7    H     H_    0.921983 0.371315 0.375704 0.114358
H8    H     H_    0.810349 0.325041 0.836283 0.151096
H9    H     H_    0.895074 0.356978 0.988221 0.141933
H10   H     H_    0.418300 0.550146 0.178257 0.148979
H11   H     H_    0.153778 0.555466 0.827206 0.152322
H12   H     H_    0.247253 0.537439 0.113919 0.126214
H13   H     H_    0.077968 0.576133 0.016534 0.149647
H14   H     H_    0.628386 0.349528 0.747488 0.179441
H15   H     H_    0.730886 0.886081 0.430089 0.171412
N1    N     N_R   0.147940 0.499970 0.499970 -0.162015
N2    N     N_R   0.852060 0.500060 0.499990 -0.162753
O1    O     O_R   0.381250 0.680340 0.500010 -0.562767
O2    O     O_R   0.618820 0.680370 0.500010 -0.578770
O3    O     O_R   0.323240 0.499950 0.650980 -0.591056
O4    O     O_R   0.560810 0.499980 0.650980 -0.588186
O5    O     O_R   0.381180 0.319630 0.499990 -0.585802
O6    O     O_R   0.618750 0.319660 0.499990 -0.587893
O7    O     O_R   0.439190 0.500020 0.349020 -0.584402
O8    O     O_R   0.676760 0.500050 0.349020 -0.586206
O9    O     O_3   0.233147 0.882964 0.609972 -0.737847
H16   H     H_    0.255880 0.808170 0.644614 0.316192

loop_
_geom_bond_atom_site_label_1
_geom_bond_atom_site_label_2
_ccdc_geom_bond_type
C12   O3    A    
Cu2   O4    S    
C16   O9    S    
C9    C24   A    
C23   O8    A    
C6    C7    A    
C11   C13   A    
Cu2   O8    S    
C13   H2    S    
C1    C17   S    
Cu1   N1    S    
C4    C8    A    
C18   N2    A    
C14   C22   S    
C6    H8    S    
C2    C3    A    
C19   N1    A    
C9    C25   A    
C1    O1    A    
C3    C10   A    
C19   H5    S    
C13   C14   A    
C20   C21   A    
C8    C25   A    
C18   H4    S    
C10   C26   A    
C26   C27   A    
Cu1   Cu2   S    
C5    C24   A    
C10   C12   S    
C2    C4    A    
C28   H12   S    
Cu2   O2    S    
C22   O6    A    
C3    C7    A    
Cu1   O3    S    
C23   C25   S    
C5    C6    A    
Cu2   O6    S    
C11   H15   S    
Cu1   O7    S    
C9    H1    S    
Cu1   O1    S    
C15   C16   A    
C20   H6    S    
C27   H13   S    
Cu2   N2    S    
C4    C5    A    
C12   O4    A    
C21   H7    S    
O9    H16   S    
C23   O7    A    
C22   O5    A    
C18   C19   A    
C27   C28   A    
C14   C15   A    
C11   C17   A    
C2    C28   A    
C8    H10   S    
C7    H14   S    
C1    O2    A    
C24   H9    S    
C15   H3    S    
C20   N1    A    
C26   H11   S    
C16   C17   A    
C21   N2    A    
Cu1   O5    S    
