data_mof_unit_45144.cif
_audit_creation_date              2013-03-05T15:52:04-0500
_audit_creation_method            fapswitch 2.2
_symmetry_space_group_name_H-M    P1
_symmetry_Int_Tables_number       1
_space_group_crystal_system       triclinic
_cell_length_a                    12.092956
_cell_length_b                    12.858202
_cell_length_c                    27.592892
_cell_angle_alpha                 90.925058
_cell_angle_beta                  86.827586
_cell_angle_gamma                 93.58546
_cell_volume                      4275.21334712

loop_
_atom_site_label
_atom_site_type_symbol
_atom_site_description
_atom_site_fract_x
_atom_site_fract_y
_atom_site_fract_z
_atom_type_partial_charge
O1    O     O_R   0.421700 0.658820 0.502400 -0.632282
O2    O     O_R   0.578300 0.341180 0.497600 -0.616930
O3    O     O_R   0.609310 0.646410 0.496630 -0.583100
O4    O     O_R   0.390690 0.353590 0.503370 -0.569301
C1    C     C_R   0.522039 0.699871 0.496497 0.905930
C2    C     C_R   0.477353 0.299689 0.501275 0.902970
O5    O     O_R   0.406200 0.506190 0.574130 -0.572450
O6    O     O_R   0.593800 0.493810 0.425870 -0.556855
O7    O     O_R   0.593820 0.493770 0.568360 -0.646861
O8    O     O_R   0.406180 0.506230 0.431640 -0.630480
C3    C     C_R   0.501001 0.501637 0.593642 0.896033
C4    C     C_R   0.498868 0.499353 0.406421 0.909263
Zn1   Zn    Zn3+2 0.374730 0.508290 0.503850 1.006930
Zn2   Zn    Zn3+2 0.625270 0.491710 0.496150 1.003954
C5    C     C_R   0.412027 0.575967 0.823516 0.512329
C6    C     C_R   0.592368 0.515191 0.176284 0.517329
O9    O     O_2   0.318603 0.589686 0.800397 -0.559592
O10   O     O_2   0.686583 0.507627 0.199717 -0.554335
N1    N     N_R   0.508050 0.557233 0.797368 -0.343979
N2    N     N_R   0.492410 0.513415 0.201902 -0.344315
C7    C     C_R   0.605073 0.545889 0.819229 0.514786
C8    C     C_R   0.395296 0.521595 0.179675 0.512195
C9    C     C_R   0.455734 0.451715 0.727185 -0.131929
C10   C     C_R   0.471219 0.598276 0.280926 -0.120963
C11   C     C_R   0.456047 0.434253 0.676807 0.126636
C12   C     C_R   0.474425 0.597718 0.331516 0.153074
C13   C     C_R   0.554882 0.605741 0.665375 0.147936
C14   C     C_R   0.508868 0.410803 0.326335 0.134100
C15   C     C_R   0.556066 0.619338 0.715487 -0.162438
C16   C     C_R   0.508725 0.415398 0.275878 -0.171254
C17   C     C_R   0.505678 0.543305 0.746097 0.241678
C18   C     C_R   0.490217 0.508597 0.253487 0.241852
C19   C     C_R   0.508168 0.564410 0.897807 -0.051761
C20   C     C_R   0.498494 0.535349 0.101983 -0.051630
C21   C     C_R   0.410176 0.579711 0.874249 -0.026573
C22   C     C_R   0.597320 0.526087 0.125844 -0.027934
C23   C     C_R   0.312486 0.596899 0.901663 -0.137773
C24   C     C_R   0.698787 0.529524 0.099144 -0.136129
C25   C     C_R   0.607045 0.549526 0.869863 -0.027413
C26   C     C_R   0.396497 0.533039 0.129311 -0.027108
C27   C     C_R   0.504475 0.513362 0.646026 -0.135947
C28   C     C_R   0.495074 0.502915 0.354078 -0.122225
H1    H     H_    0.594769 0.689781 0.730780 0.150932
H2    H     H_    0.521558 0.346203 0.253872 0.147739
H3    H     H_    0.236836 0.611725 0.884361 0.189546
H4    H     H_    0.776076 0.524705 0.116831 0.190395
C29   C     C_R   0.401488 0.558697 0.027596 0.044918
C30   C     C_R   0.606663 0.547839 0.972367 0.044991
C31   C     C_R   0.604814 0.544914 0.023739 0.045548
C32   C     C_R   0.405079 0.571816 0.976640 0.045418
C33   C     C_R   0.501638 0.546607 0.050908 0.072477
C34   C     C_R   0.506790 0.561985 0.949162 0.072379
C35   C     C_R   0.300395 0.554435 0.056110 -0.212752
C36   C     C_R   0.704769 0.534507 0.943103 -0.212435
C37   C     C_R   0.298229 0.542018 0.105970 -0.135145
C38   C     C_R   0.704692 0.535412 0.892881 -0.136077
O11   O     O_2   0.298152 0.518852 0.206344 -0.555950
O12   O     O_2   0.698619 0.528956 0.792003 -0.557297
C39   C     C_R   0.309886 0.593595 0.951911 -0.213759
C40   C     C_R   0.702762 0.539172 0.049112 -0.212743
H5    H     H_    0.454515 0.668221 0.262111 0.151749
H6    H     H_    0.419534 0.394224 0.752507 0.150204
H7    H     H_    0.218679 0.539157 0.126168 0.191696
H8    H     H_    0.781637 0.523331 0.872120 0.191518
H9    H     H_    0.220559 0.557663 0.040955 0.141865
H10   H     H_    0.782953 0.519768 0.957656 0.142029
H11   H     H_    0.231753 0.609435 0.970298 0.141925
H12   H     H_    0.784623 0.543378 0.031570 0.140963
C41   C     C_R   0.461699 0.187819 0.501884 -0.190836
C42   C     C_R   0.534205 0.810991 0.490104 -0.190820
C43   C     C_R   0.630289 0.970556 0.461895 -0.263658
C44   C     C_R   0.359371 0.026900 0.523636 -0.257827
C45   C     C_R   0.625323 0.862073 0.463783 0.275312
C46   C     C_R   0.363737 0.134848 0.521800 0.300804
C47   C     C_R   0.447011 0.866957 0.509947 -0.292454
C48   C     C_R   0.548687 0.132532 0.481256 -0.284546
C49   C     C_R   0.449526 0.972993 0.505432 0.127059
C50   C     C_R   0.543279 0.025536 0.482765 0.116205
H13   H     H_    0.621356 0.172819 0.463976 0.176296
H14   H     H_    0.376333 0.827966 0.529472 0.171603
H15   H     H_    0.700120 0.011891 0.442845 0.181815
H16   H     H_    0.286295 0.985297 0.540063 0.171022
N3    N     N_R   0.207800 0.519340 0.508990 -0.120389
N4    N     N_R   0.792200 0.480660 0.491010 -0.136325
C51   C     C_R   0.952919 0.399068 0.456344 -0.339014
C52   C     C_R   0.047258 0.592336 0.547507 -0.333856
C53   C     C_R   0.837885 0.410592 0.459178 0.333668
C54   C     C_R   0.162166 0.582292 0.543909 0.319292
C55   C     C_R   0.860456 0.545498 0.518506 0.286377
C56   C     C_R   0.141991 0.460715 0.478624 0.315385
C57   C     C_R   0.977018 0.534367 0.516770 0.012377
C58   C     C_R   0.024212 0.463270 0.483829 -0.019104
H17   H     H_    0.985251 0.340506 0.431825 0.166084
H18   H     H_    0.014012 0.643809 0.575223 0.187279
N5    N     N_2   0.604442 0.685321 0.634565 -0.316011
H19   H     H_    0.676112 0.720716 0.647475 0.238770
C59   C     C_3   0.528604 0.760879 0.620895 -0.801970
H20   H     H_    0.495578 0.802927 0.653556 0.245832
H21   H     H_    0.458679 0.721990 0.601795 0.256551
H22   H     H_    0.573073 0.818421 0.596056 0.243718
N6    N     N_2   0.524518 0.313816 0.348633 -0.309046
H23   H     H_    0.568201 0.263534 0.326481 0.227711
C60   C     C_3   0.424936 0.261471 0.370290 -0.780623
H24   H     H_    0.362870 0.245231 0.342469 0.243425
H25   H     H_    0.388789 0.308976 0.400242 0.260586
H26   H     H_    0.445607 0.186357 0.385780 0.243088
N7    N     N_R   0.269003 0.187812 0.540464 0.209912
O13   O     O_R   0.170145 0.154294 0.528760 -0.400112
O14   O     O_R   0.278674 0.255770 0.575599 -0.393967
N8    N     N_R   0.709554 0.806617 0.437207 0.205232
O15   O     O_R   0.809507 0.849556 0.430672 -0.405098
O16   O     O_R   0.682716 0.723257 0.412097 -0.397867
N9    N     N_2   0.193571 0.401947 0.440642 -0.276325
H27   H     H_    0.170566 0.323406 0.441354 0.231911
C61   C     C_3   0.190035 0.446665 0.392831 -0.732614
H28   H     H_    0.243071 0.403725 0.366364 0.244007
H29   H     H_    0.221102 0.529844 0.393225 0.265260
H30   H     H_    0.104369 0.441636 0.380199 0.226298
N10   N     N_2   0.815718 0.625990 0.548301 -0.326708
H31   H     H_    0.736303 0.614545 0.562310 0.289158
C62   C     C_3   0.846330 0.732960 0.534862 -0.688589
H32   H     H_    0.771077 0.774203 0.528058 0.254274
H33   H     H_    0.903623 0.737766 0.501929 0.274015
H34   H     H_    0.887081 0.774014 0.565398 0.219434
N11   N     N_2   0.231494 0.640231 0.575773 -0.277258
H35   H     H_    0.227125 0.719532 0.572168 0.197537
C63   C     C_3   0.217065 0.609336 0.626096 -0.694947
H36   H     H_    0.283009 0.649597 0.647177 0.237841
H37   H     H_    0.223295 0.523872 0.629332 0.278395
H38   H     H_    0.135167 0.631058 0.642008 0.220393
N12   N     N_2   0.770351 0.352306 0.426811 -0.262604
H39   H     H_    0.775940 0.273227 0.430650 0.201074
C64   C     C_3   0.791196 0.382458 0.376567 -0.685653
H40   H     H_    0.737183 0.333592 0.353185 0.232282
H41   H     H_    0.878382 0.370482 0.363956 0.210184
H42   H     H_    0.774360 0.465569 0.371980 0.277560
N13   N     N_2   0.453160 0.690266 0.359464 -0.294055
H43   H     H_    0.456410 0.686053 0.396540 0.240091
C65   C     C_3   0.496919 0.789695 0.340284 -0.686811
H44   H     H_    0.488036 0.851437 0.368638 0.233371
H45   H     H_    0.449538 0.811864 0.309159 0.227271
H46   H     H_    0.586305 0.786440 0.329049 0.270272
N14   N     N_2   0.411216 0.338460 0.656340 -0.263651
H47   H     H_    0.453244 0.313687 0.625146 0.234582
C66   C     C_3   0.369529 0.254171 0.687832 -0.685435
H48   H     H_    0.337632 0.187301 0.665567 0.259251
H49   H     H_    0.299617 0.279394 0.712107 0.245478
H50   H     H_    0.437125 0.227707 0.709429 0.217263

loop_
_geom_bond_atom_site_label_1
_geom_bond_atom_site_label_2
_geom_bond_distance
_ccdc_geom_bond_type
C2    C41   1.439314 S    
C10   H5    1.081025 S    
C13   C15   1.391700 A    
C13   N5    1.422666 S    
N5    H19   1.031887 S    
N4    C53   1.367991 A    
Zn2   N4    2.029507 S    
C12   N13   1.436521 S    
N1    C17   1.424763 S    
C66   H50   1.111027 S    
C8    O11   1.350105 S    
C10   C18   1.393339 A    
C59   H20   1.111520 S    
C45   N8    1.440496 S    
C11   N14   1.434527 S    
C49   C50   1.404415 A    
C19   C34   1.417033 A    
C5    N1    1.365155 A    
N13   C65   1.449434 S    
C20   C33   1.417222 A    
N6    H23   1.031940 S    
C31   C40   1.415274 A    
O1    C1    1.295478 A    
C32   C39   1.415137 A    
C21   C23   1.394630 A    
C48   C50   1.374431 A    
C52   C57   1.405896 A    
C65   H46   1.111058 S    
C52   C54   1.401506 A    
C1    C42   1.439875 S    
N14   H47   1.031324 S    
C41   C48   1.396474 A    
N14   C66   1.448265 S    
C56   N9    1.421080 S    
C53   N12   1.417341 S    
O4    Zn1   2.010244 S    
N8    O15   1.301534 A    
C62   H34   1.109270 S    
C4    C28   1.449105 S    
C52   H18   1.080491 S    
C39   H11   1.076716 S    
C46   N7    1.436106 S    
C51   H17   1.081072 S    
C14   N6    1.427155 S    
C9    H6    1.081050 S    
C55   N10   1.425870 S    
C14   C16   1.394564 A    
C31   C33   1.420767 A    
C37   H7    1.083642 S    
C64   H42   1.110829 S    
C32   C34   1.420149 A    
N7    O13   1.301154 A    
C38   H8    1.083668 S    
C55   C57   1.423803 A    
C35   H9    1.076540 S    
C47   H14   1.084566 S    
C6    N2    1.365222 A    
C29   C35   1.415307 A    
C26   C37   1.394485 A    
C35   C37   1.386196 A    
N3    C54   1.363794 A    
N6    C60   1.446464 S    
C15   H1    1.083531 S    
N7    O14   1.299825 A    
C16   H2    1.083420 S    
O2    C2    1.300660 A    
C5    C21   1.398917 A    
C66   H49   1.110504 S    
C51   C58   1.401088 A    
C66   H48   1.110500 S    
C29   C32   1.416772 A    
N10   C62   1.450514 S    
C56   C58   1.425976 A    
C65   H44   1.111406 S    
C36   C38   1.386043 A    
C24   H4    1.083654 S    
C51   C53   1.405921 A    
C44   C46   1.387359 A    
C59   H21   1.109394 S    
C11   C27   1.413292 A    
C57   C58   1.403066 A    
C43   C45   1.394121 A    
C29   C33   1.420470 A    
C61   H29   1.111284 S    
C9    C17   1.396479 A    
C30   C36   1.415583 A    
O7    Zn2   2.007737 S    
C63   H37   1.111539 S    
C44   C49   1.394288 A    
O7    C3    1.296927 A    
C13   C27   1.411584 A    
O5    C3    1.298198 A    
C25   C38   1.394361 A    
C7    C25   1.398655 A    
O5    Zn1   1.997702 S    
O6    C4    1.300256 A    
C61   H30   1.108937 S    
C8    C26   1.399007 A    
C42   C45   1.417510 A    
C41   C46   1.417189 A    
C60   H25   1.106505 S    
C19   C25   1.408087 A    
C47   C49   1.369407 A    
C62   H32   1.107756 S    
C23   C39   1.386389 A    
O3    Zn2   2.010245 S    
O8    C4    1.293237 A    
C24   C40   1.386017 A    
O4    C2    1.290293 A    
C30   C31   1.417499 A    
N2    C8    1.365153 A    
N11   H35   1.031017 S    
C20   C26   1.408562 A    
O1    Zn1   1.983190 S    
N4    C55   1.383765 A    
C23   H3    1.083627 S    
C63   H36   1.110087 S    
O3    C1    1.295220 A    
C42   C47   1.395624 A    
C59   H22   1.110030 S    
C12   C28   1.419741 A    
N11   C63   1.448684 S    
N9    H27   1.030808 S    
N2    C18   1.424443 S    
C5    O9    1.350095 S    
N3    C56   1.371857 A    
O6    Zn2   1.997708 S    
N1    C7    1.365398 A    
C10   C12   1.398752 A    
N12   C64   1.449949 S    
O8    Zn1   2.007742 S    
N10   H31   1.018057 S    
N5    C59   1.445266 S    
C36   H10   1.076090 S    
N13   H43   1.028400 S    
Zn1   N3    2.029507 S    
C22   C24   1.394471 A    
C63   H38   1.110927 S    
C7    O12   1.350168 S    
C15   C17   1.391276 A    
C6    C22   1.398671 A    
C16   C18   1.393080 A    
C65   H45   1.109014 S    
C61   H28   1.108585 S    
C64   H40   1.104482 S    
C14   C28   1.413474 A    
C19   C21   1.408556 A    
C3    C27   1.453490 S    
C60   H26   1.110548 S    
C20   C22   1.408323 A    
C9    C11   1.404341 A    
O2    Zn2   1.983190 S    
N8    O16   1.300646 A    
C62   H33   1.111938 S    
C54   N11   1.418884 S    
C30   C34   1.420766 A    
C48   H13   1.082860 S    
C40   H12   1.076237 S    
C6    O10   1.350207 S    
C60   H24   1.111434 S    
C64   H41   1.111021 S    
N9    C61   1.451439 S    
C43   C50   1.396916 A    
C44   H16   1.084849 S    
N12   H39   1.030796 S    
C43   H15   1.084279 S    
