data_mof_unit_57543.cif
_audit_creation_date              2012-12-10T17:35:52-0500
_audit_creation_method            fapswitch 2.2
_symmetry_space_group_name_H-M    P1
_symmetry_Int_Tables_number       1
_space_group_crystal_system       triclinic
_cell_length_a                    10.465747
_cell_length_b                    12.244084
_cell_length_c                    12.864651
_cell_angle_alpha                 93.274899
_cell_angle_beta                  93.29705
_cell_angle_gamma                 87.158619
_cell_volume                      1641.33223216

loop_
_atom_site_label
_atom_site_type_symbol
_atom_type_description
_atom_site_fract_x
_atom_site_fract_y
_atom_site_fract_z
_atom_type_partial_charge
C1    C     C_R   0.497655 0.521512 0.699846 0.858468
C2    C     C_R   0.610076 0.160833 0.590657 0.278869
C3    C     C_R   0.564298 0.860800 0.532866 0.231605
C4    C     C_R   0.437804 0.141257 0.462202 0.231696
C5    C     C_R   0.541834 0.977205 0.535850 -0.025291
C6    C     C_R   0.447038 0.024414 0.469734 0.019630
C7    C     C_R   0.741873 0.500497 0.499011 0.852456
C8    C     C_R   0.258037 0.499731 0.500590 0.853903
C9    C     C_3   0.960955 0.539806 0.592873 -0.188119
C10   C     C_3   0.038685 0.462388 0.406000 -0.200265
C11   C     C_3   0.036837 0.603961 0.519179 -0.144816
C12   C     C_R   0.502233 0.478352 0.300218 0.863536
C13   C     C_3   0.962877 0.398220 0.479560 -0.140000
C14   C     C_3   0.122592 0.500372 0.500745 0.046590
C15   C     C_3   0.877091 0.501336 0.498212 0.047331
C16   C     C_3   0.049321 0.436565 0.574477 -0.170929
C17   C     C_3   0.950122 0.565455 0.424438 -0.178890
C18   C     C_R   0.503030 0.465136 0.188749 -0.039135
C19   C     C_R   0.497443 0.533997 0.811492 -0.045337
C20   C     C_R   0.531807 0.642598 0.971511 -0.225435
C21   C     C_R   0.468324 0.356250 0.028934 -0.227670
C22   C     C_R   0.521862 0.634947 0.863691 -0.211311
C23   C     C_R   0.477774 0.441771 0.866496 -0.290533
C24   C     C_R   0.475779 0.364582 0.136834 -0.212617
C25   C     C_3   0.333059 0.190592 0.390531 -0.375374
C26   C     C_3   0.201270 0.189478 0.436436 -0.879036
C27   C     C_3   0.700881 0.819731 0.561741 -0.340916
C28   C     C_3   0.719498 0.777117 0.671064 -0.848875
C29   C     C_3   0.701012 0.225886 0.662857 -0.359978
C30   C     C_3   0.841212 0.192335 0.645038 -0.918801
C31   C     C_3   0.293830 0.772621 0.341402 -0.366839
C32   C     C_3   0.313088 0.793039 0.227089 -0.916426
C33   C     C_R   0.526151 0.556288 0.133665 -0.285096
C34   C     C_R   0.486838 0.448728 0.973738 0.187691
C35   C     C_R   0.515524 0.549621 0.026520 0.186837
C36   C     C_R   0.367394 0.953071 0.410142 -0.314425
C37   C     C_R   0.615946 0.047413 0.601267 -0.320350
C38   C     C_R   0.381931 0.838827 0.415486 0.267323
H1    H     H_    0.070914 0.687996 0.535528 0.140589
H2    H     H_    0.680190 0.014285 0.661743 0.176872
H3    H     H_    0.094125 0.384252 0.635535 0.131948
H4    H     H_    0.904921 0.617890 0.363627 0.131248
H5    H     H_    0.551116 0.633040 0.174059 0.159730
H6    H     H_    0.456476 0.364008 0.826093 0.159419
H7    H     H_    0.201606 0.234351 0.513753 0.280940
H8    H     H_    0.128576 0.228962 0.382827 0.241449
H9    H     H_    0.171843 0.105401 0.447033 0.245095
H10   H     H_    0.350654 0.274463 0.373853 0.262105
H11   H     H_    0.331927 0.147403 0.312281 0.159432
H12   H     H_    0.928650 0.314940 0.460453 0.146200
H13   H     H_    0.662189 0.828338 0.727037 0.236832
H14   H     H_    0.693952 0.690987 0.671758 0.282831
H15   H     H_    0.822126 0.780186 0.697838 0.224983
H16   H     H_    0.739062 0.763901 0.500100 0.220295
H17   H     H_    0.768492 0.886254 0.557830 0.165071
H18   H     H_    0.868046 0.112492 0.678936 0.251261
H19   H     H_    0.857557 0.184964 0.560494 0.264695
H20   H     H_    0.904495 0.254652 0.683359 0.252315
H21   H     H_    0.689315 0.313825 0.654883 0.267186
H22   H     H_    0.681293 0.212262 0.745010 0.177265
H23   H     H_    0.924413 0.571323 0.668716 0.128894
H24   H     H_    0.271001 0.874421 0.206381 0.250227
H25   H     H_    0.416599 0.788906 0.212035 0.263245
H26   H     H_    0.264819 0.729868 0.175581 0.257177
H27   H     H_    0.307853 0.684873 0.348333 0.270898
H28   H     H_    0.192600 0.794161 0.358927 0.175876
H29   H     H_    0.075340 0.430841 0.330190 0.128915
H30   H     H_    0.457939 0.293490 0.179324 0.152389
H31   H     H_    0.535626 0.707002 0.821533 0.163642
H32   H     H_    0.552408 0.720527 0.011684 0.137150
H33   H     H_    0.446517 0.278541 0.988869 0.136724
H34   H     H_    0.293070 0.984164 0.356827 0.176240
N1    N     N_R   0.523490 0.207800 0.519350 -0.143627
N2    N     N_R   0.476510 0.792200 0.480650 -0.132515
O1    O     O_R   0.506270 0.421700 0.658830 -0.647594
O2    O     O_R   0.493730 0.578300 0.341170 -0.631367
O3    O     O_R   0.491200 0.609310 0.646410 -0.613238
O4    O     O_R   0.508800 0.390690 0.353590 -0.646747
O5    O     O_R   0.693580 0.406210 0.506230 -0.629013
O6    O     O_R   0.306420 0.593790 0.493770 -0.650255
O7    O     O_R   0.678510 0.593830 0.493810 -0.631407
O8    O     O_R   0.321490 0.406170 0.506190 -0.625523
Zn1   Zn    Zn3+2 0.510060 0.374730 0.508290 0.911644
Zn2   Zn    Zn3+2 0.489940 0.625270 0.491710 0.921033

loop_
_geom_bond_atom_site_label_1
_geom_bond_atom_site_label_2
_ccdc_geom_bond_type
C31   H28   S    
C5    C37   A    
C1    O3    A    
O6    Zn2   S    
O2    Zn2   S    
C4    C25   S    
C27   H16   S    
C10   H29   S    
C21   H33   S    
C2    C29   S    
C18   C24   A    
C9    C16   S    
C37   H2    S    
C5    C6    A    
C28   H13   S    
C27   H17   S    
C10   C17   S    
C30   H19   S    
C31   H27   S    
C34   C35   A    
C3    N2    A    
C17   H4    S    
C26   H7    S    
C20   C35   A    
O4    Zn1   S    
C29   H21   S    
C12   O4    A    
C22   H31   S    
C7    C15   S    
C20   H32   S    
C1    C19   S    
C33   H5    S    
C19   C22   A    
C32   H26   S    
C4    C6    A    
C10   C14   S    
C11   C14   S    
C24   H30   S    
C21   C34   A    
O3    Zn2   S    
C25   C26   S    
C30   H18   S    
C23   H6    S    
C1    O1    A    
C19   C23   A    
C29   C30   S    
C31   C32   S    
C29   H22   S    
C23   C34   A    
C11   H1    S    
C9    C11   S    
C25   H10   S    
C4    N1    A    
C2    N1    A    
C26   H9    S    
C7    O7    A    
C20   C22   A    
C13   C15   S    
C12   O2    A    
C9    H23   S    
C21   C24   A    
O7    Zn2   S    
C7    O5    A    
C38   N2    A    
C15   C17   S    
C11   C17   S    
C8    C14   S    
C32   H25   S    
N2    Zn2   S    
C3    C5    A    
C10   C13   S    
C28   H15   S    
C31   C38   S    
C36   C38   A    
C9    C15   S    
C32   H24   S    
O5    Zn1   S    
C28   H14   S    
C2    C37   A    
O1    Zn1   S    
C30   H20   S    
C3    C27   S    
C33   C35   A    
C6    C36   A    
C14   C16   S    
C18   C33   A    
C25   H11   S    
C26   H8    S    
C13   H12   S    
C8    O8    A    
O8    Zn1   S    
C13   C16   S    
C12   C18   S    
C27   C28   S    
C8    O6    A    
C16   H3    S    
N1    Zn1   S    
C36   H34   S    
