data_mof_unit_14395.cif
_audit_creation_date              2012-12-11T16:53:49-0500
_audit_creation_method            fapswitch 2.2
_symmetry_space_group_name_H-M    P1
_symmetry_Int_Tables_number       1
_space_group_crystal_system       triclinic
_cell_length_a                    14.942905
_cell_length_b                    14.763938
_cell_length_c                    17.046019
_cell_angle_alpha                 108.785536
_cell_angle_beta                  106.678694
_cell_angle_gamma                 108.2557
_cell_volume                      3050.26460094

loop_
_atom_site_label
_atom_site_type_symbol
_atom_type_description
_atom_site_fract_x
_atom_site_fract_y
_atom_site_fract_z
_atom_type_partial_charge
C1    C     C_R   0.087985 0.282255 0.069907 -0.130652
C2    C     C_R   0.063794 0.493129 0.258252 -0.136374
C3    C     C_R   0.225818 0.799472 0.187933 -0.132935
C4    C     C_R   0.937793 0.524573 0.748903 0.036061
C5    C     C_R   0.742737 0.470073 0.051976 -0.126490
C6    C     C_R   0.243948 0.805420 0.274602 0.059556
C7    C     C_R   0.718960 0.549160 0.038767 0.069873
C8    C     C_R   0.971970 0.449721 0.266831 0.067719
C9    C     C_R   0.999753 0.815395 0.962494 0.061619
C10   C     C_R   0.509327 0.629509 0.019939 0.084030
C11   C     C_R   0.464943 0.583370 0.067722 0.047417
C12   C     C_R   0.030422 0.592455 0.751470 0.023469
C13   C     C_R   0.527166 0.563557 0.133046 -0.201930
C14   C     C_R   0.622606 0.568199 0.134695 -0.199795
C15   C     C_R   0.654716 0.592748 0.071077 0.066866
C16   C     C_R   0.721278 0.213349 0.823690 -0.128103
C17   C     C_R   0.604947 0.638489 0.024338 0.095287
C18   C     C_3   0.573968 0.623904 0.927305 -0.565352
C19   C     C_3   0.467696 0.611692 0.921819 0.083115
C20   C     C_R   0.964762 0.467975 0.354662 0.058578
C21   C     C_R   0.043995 0.636083 0.685872 0.071918
C22   C     C_R   0.146880 0.650277 0.599676 -0.272996
C23   C     C_R   0.663900 0.216109 0.745609 0.050495
C24   C     C_R   0.142475 0.679722 0.684557 0.346535
C25   C     C_R   0.955256 0.601100 0.606545 -0.324804
C26   C     C_R   0.957700 0.560383 0.522377 0.175047
C27   C     C_R   0.054530 0.582381 0.519018 0.135909
C28   C     C_R   0.298083 0.589736 0.998389 -0.138100
C29   C     C_R   0.057540 0.538075 0.435563 -0.263663
C30   C     C_R   0.867566 0.436696 0.360528 0.018148
C31   C     C_R   0.864975 0.488620 0.443634 -0.263274
C32   C     C_R   0.554688 0.142718 0.679297 0.130031
C33   C     C_R   0.285000 0.901381 0.361242 0.138345
C34   C     C_R   0.355353 0.551159 0.044502 0.083343
C35   C     C_R   0.386578 0.093271 0.449356 -0.229380
C36   C     C_R   0.321295 0.003409 0.365159 -0.184476
C37   C     C_R   0.301292 0.891879 0.442986 -0.277448
C38   C     C_R   0.373224 0.979885 0.526552 0.187390
C39   C     C_R   0.419537 0.080484 0.528951 0.193621
C40   C     C_R   0.725090 0.310024 0.748046 -0.128038
C41   C     C_R   0.506995 0.162785 0.607123 -0.284138
C42   C     C_R   0.501838 0.046366 0.680578 -0.171830
C43   C     C_R   0.409759 0.965897 0.605034 -0.224030
C44   C     C_R   0.081561 0.116871 0.142078 0.145563
C45   C     C_R   0.221101 0.702922 0.265079 -0.123743
C46   C     C_R   0.996780 0.101392 0.067816 0.039652
C47   C     C_R   0.903987 0.005268 0.027508 -0.210386
C48   C     C_R   0.893080 0.936423 0.069074 -0.189808
C49   C     C_R   0.974649 0.961686 0.150642 0.033086
C50   C     C_R   0.070641 0.047862 0.181971 0.156703
C51   C     C_3   0.139968 0.136282 0.276589 -0.481502
C52   C     C_R   0.293468 0.491548 0.073872 -0.131377
C53   C     C_3   0.151937 0.212301 0.233610 -0.528297
C54   C     C_R   0.109905 0.608072 0.827801 -0.156811
C55   C     C_R   0.914753 0.197645 0.992554 -0.121246
C56   C     C_R   0.755548 0.569748 0.978052 -0.144114
C57   C     C_R   0.000841 0.186153 0.038157 0.057937
C58   C     C_R   0.831369 0.471490 0.675190 0.097485
C59   C     C_R   0.762089 0.516885 0.679150 -0.202833
C60   C     C_R   0.663194 0.468290 0.605950 -0.126791
C61   C     C_R   0.633049 0.374390 0.528586 -0.126059
C62   C     C_R   0.701441 0.328471 0.524469 -0.123679
C63   C     C_R   0.800534 0.376994 0.597360 -0.138194
C64   C     C_3   0.380942 0.499047 0.850448 -0.914938
C65   C     C_R   0.769026 0.345747 0.284963 0.123198
C66   C     C_R   0.764411 0.243945 0.244968 -0.159136
C67   C     C_R   0.890898 0.412228 0.182023 -0.145344
C68   C     C_R   0.671337 0.157903 0.173559 -0.120315
C69   C     C_R   0.582246 0.172633 0.142064 -0.094062
C70   C     C_R   0.585932 0.273363 0.182105 -0.117936
C71   C     C_R   0.678753 0.359624 0.253598 -0.185984
C72   C     C_3   0.241116 0.762323 0.769112 -1.084016
C73   C     C_R   0.084585 0.802122 0.006587 -0.133388
C74   C     C_R   0.913812 0.719194 0.930626 -0.136796
H1    H     H_    0.166511 0.307323 0.118097 0.096781
H2    H     H_    0.663621 0.540006 0.177132 0.126182
H3    H     H_    0.618940 0.697958 0.924711 0.162369
H4    H     H_    0.571723 0.550202 0.879595 0.213914
H5    H     H_    0.451458 0.677582 0.913918 0.119029
H6    H     H_    0.133239 0.561155 0.434786 0.118586
H7    H     H_    0.221831 0.676991 0.596952 0.136203
H8    H     H_    0.791020 0.467084 0.448393 0.149623
H9    H     H_    0.881550 0.590753 0.608120 0.164776
H10   H     H_    0.543250 0.237769 0.605970 0.132627
H11   H     H_    0.692912 0.160016 0.851387 0.086247
H12   H     H_    0.753060 0.628721 0.954924 0.109436
H13   H     H_    0.534674 0.029770 0.736569 0.114236
H14   H     H_    0.419745 0.170669 0.450742 0.123380
H15   H     H_    0.373677 0.889410 0.604515 0.125017
H16   H     H_    0.306184 0.013797 0.303510 0.112478
H17   H     H_    0.268705 0.814728 0.441889 0.117811
H18   H     H_    0.837556 0.986348 0.967437 0.124914
H19   H     H_    0.819349 0.866723 0.040865 0.125904
H20   H     H_    0.097891 0.147207 0.320478 0.198552
H21   H     H_    0.213561 0.131575 0.307877 0.191245
H22   H     H_    0.116716 0.267344 0.252536 0.202783
H23   H     H_    0.809283 0.363164 0.157966 0.118863
H24   H     H_    0.326347 0.652614 0.979552 0.090503
H25   H     H_    0.232623 0.251405 0.240781 0.185408
H26   H     H_    0.698013 0.347374 0.708576 0.129472
H27   H     H_    0.317715 0.461613 0.122192 0.085192
H28   H     H_    0.191823 0.660477 0.857364 0.125507
H29   H     H_    0.833805 0.145897 0.971257 0.089508
H30   H     H_    0.229167 0.677482 0.318028 0.090415
H31   H     H_    0.785442 0.590876 0.737148 0.114890
H32   H     H_    0.610278 0.503941 0.608855 0.115093
H33   H     H_    0.556859 0.337464 0.471713 0.105221
H34   H     H_    0.165204 0.856264 0.029595 0.088193
H35   H     H_    0.678074 0.255924 0.464418 0.125174
H36   H     H_    0.853559 0.341690 0.592896 0.119986
H37   H     H_    0.392753 0.436847 0.869254 0.258068
H38   H     H_    0.303043 0.493086 0.843353 0.244391
H39   H     H_    0.381037 0.482532 0.782142 0.244980
H40   H     H_    0.832925 0.231535 0.268780 0.116533
H41   H     H_    0.668293 0.079804 0.142596 0.110700
H42   H     H_    0.510315 0.105955 0.086700 0.101270
H43   H     H_    0.516889 0.284660 0.157662 0.108657
H44   H     H_    0.680704 0.437383 0.283673 0.112358
H45   H     H_    0.835630 0.698182 0.884945 0.081228
H46   H     H_    0.223836 0.799835 0.827045 0.251545
H47   H     H_    0.293293 0.725862 0.788139 0.250056
H48   H     H_    0.282965 0.827971 0.755424 0.260000
H49   H     H_    0.142284 0.516906 0.305349 0.081202
H50   H     H_    0.236770 0.864468 0.170065 0.092236
H51   H     H_    0.721945 0.432467 0.092910 0.100214
H52   H     H_    0.498291 0.534209 0.175752 0.121998
N1    N     N_R   0.055640 0.348550 0.045600 -0.040117
N2    N     N_R   0.811290 0.303400 0.871650 -0.040199
N3    N     N_R   0.205180 0.552990 0.997660 -0.040595
N4    N     N_R   0.814810 0.361830 0.823710 -0.043546
N5    N     N_R   0.201660 0.494570 0.045600 -0.039661
N6    N     N_R   0.068420 0.560530 0.871650 -0.048833
N7    N     N_R   0.948050 0.295860 0.997660 -0.040372
N8    N     N_R   0.185190 0.638170 0.176290 -0.041012
N9    N     N_R   0.798340 0.505430 0.954400 -0.040463
N10   N     N_R   0.931580 0.439470 0.128350 -0.038774
N11   N     N_R   0.051950 0.704140 0.002340 -0.036686
N12   N     N_R   0.944360 0.651450 0.954400 -0.039141
N13   N     N_R   0.039170 0.492150 0.176290 -0.036277
N14   N     N_R   0.188710 0.696600 0.128350 -0.039911
N15   N     N_R   0.794820 0.447010 0.002340 -0.040628
N16   N     N_R   0.960830 0.507850 0.823710 -0.058176
Ni1   Ni    Ni4+2 0.119330 0.493420 0.109950 0.207088
Ni2   Ni    Ni4+2 0.880670 0.506580 0.890050 0.212461
Ni3   Ni    Ni4+2 0.872590 0.372590 0.000000 0.212894
Ni4   Ni    Ni4+2 0.127410 0.627410 0.000000 0.203557

loop_
_geom_bond_atom_site_label_1
_geom_bond_atom_site_label_2
_ccdc_geom_bond_type
C66   C68   A    
C69   H42   S    
C6    C45   A    
C72   H47   S    
C27   C29   A    
C47   H18   S    
C35   C36   A    
C3    C6    A    
N5    Ni1   S    
C39   C41   A    
C20   C30   A    
C2    H49   S    
C53   H25   S    
C74   H45   S    
C74   N12   A    
C26   C27   A    
C62   C63   A    
C31   H8    S    
C21   C25   A    
C2    N13   A    
C62   H35   S    
C18   C19   S    
C4    N16   A    
C30   C31   A    
N2    Ni3   S    
C64   H38   S    
C70   H43   S    
C28   H24   S    
C23   C40   A    
C55   H29   S    
C33   C36   A    
C28   N3    A    
C44   C50   A    
N8    Ni1   S    
N13   Ni1   S    
C44   C53   S    
C68   C69   A    
C32   C41   A    
C70   C71   A    
C4    C12   A    
N4    Ni2   S    
C10   C19   S    
N10   Ni3   S    
N15   Ni3   S    
C7    C15   S    
C28   C34   A    
C59   C60   A    
C13   C14   A    
C53   H22   S    
C61   C62   A    
C9    C73   A    
C7    C56   A    
N10   N13   A    
C44   C46   A    
C50   C51   S    
C20   C29   A    
N6    N16   A    
C52   H27   S    
C48   H19   S    
C37   H17   S    
C1    H1    S    
C22   H7    S    
N1    N7    A    
N11   Ni4   S    
N14   Ni4   S    
C5    C7    A    
C64   H37   S    
N1    Ni1   S    
C68   H41   S    
C25   C26   A    
C65   C71   A    
C41   H10   S    
C12   C21   S    
C33   C37   A    
C60   C61   A    
C51   C53   S    
C14   H2    S    
C35   C39   A    
C37   C38   A    
C45   H30   S    
C1    C57   A    
C35   H14   S    
C56   H12   S    
C47   C48   A    
N9    N15   A    
C19   C64   S    
C18   H4    S    
C72   H46   S    
C17   C18   S    
C45   N8    A    
C59   H31   S    
C8    C20   S    
C19   H5    S    
C16   N2    A    
N3    Ni4   S    
C13   H52   S    
C48   C49   A    
C49   C50   A    
C16   C23   A    
C22   C27   A    
C55   C57   A    
C46   C57   S    
C16   H11   S    
N16   Ni2   S    
N7    Ni3   S    
C9    C74   A    
C4    C58   S    
C56   N9    A    
C60   H32   S    
C3    H50   S    
C24   C72   S    
C36   H16   S    
C58   C63   A    
C15   C17   A    
C40   N4    A    
C46   C47   A    
N9    Ni2   S    
C64   H39   S    
C66   H40   S    
C71   H44   S    
C72   H48   S    
C52   N5    A    
C54   H28   S    
C11   C34   S    
C2    C8    A    
C5    N15   A    
C1    N1    A    
C73   H34   S    
N2    N4    A    
C40   H26   S    
C42   H13   S    
C54   N6    A    
N11   N12   A    
C34   C52   A    
C6    C33   S    
N6    Ni4   S    
C23   C32   S    
C63   H36   S    
C67   N10   A    
C58   C59   A    
C38   C43   A    
C55   N7    A    
N8    N14   A    
C11   C13   A    
C38   C39   A    
C29   H6    S    
C73   N11   A    
C18   H3    S    
C22   C24   A    
C43   H15   S    
C69   C70   A    
C61   H33   S    
C30   C65   S    
C10   C11   A    
C67   H23   S    
C51   H20   S    
C26   C31   A    
C8    C67   A    
C65   C66   A    
C42   C43   A    
C21   C24   A    
C5    H51   S    
C25   H9    S    
C32   C42   A    
C14   C15   A    
N12   Ni2   S    
C3    N14   A    
C10   C17   A    
C12   C54   A    
C51   H21   S    
N3    N5    A    
