data_mof_unit_61806.cif
_audit_creation_date              2013-03-05T16:15:54-0500
_audit_creation_method            fapswitch 2.2
_symmetry_space_group_name_H-M    P1
_symmetry_Int_Tables_number       1
_space_group_crystal_system       triclinic
_cell_length_a                    30.254816
_cell_length_b                    30.252965
_cell_length_c                    35.495977
_cell_angle_alpha                 90.000636
_cell_angle_beta                  89.887378
_cell_angle_gamma                 90.000172
_cell_volume                      32489.3300684

loop_
_atom_site_label
_atom_site_type_symbol
_atom_site_description
_atom_site_fract_x
_atom_site_fract_y
_atom_site_fract_z
_atom_type_partial_charge
O1    O     O_R   0.065400 0.463120 0.500070 -0.587372
O2    O     O_R   0.463120 0.934600 0.500070 -0.587446
O3    O     O_R   0.934600 0.536880 0.500070 -0.587396
O4    O     O_R   0.536880 0.065400 0.500070 -0.587481
O5    O     O_R   0.065400 0.536880 0.499930 -0.587399
O6    O     O_R   0.463120 0.065400 0.499930 -0.587481
O7    O     O_R   0.934600 0.463120 0.499930 -0.587374
O8    O     O_R   0.536880 0.934600 0.499930 -0.587445
O9    O     O_R   0.565400 0.963120 0.000070 -0.577078
O10   O     O_R   0.963120 0.434600 0.000070 -0.576352
O11   O     O_R   0.434600 0.036880 0.000070 -0.577204
O12   O     O_R   0.036880 0.565400 0.000070 -0.586291
O13   O     O_R   0.565400 0.036880 0.999930 -0.577207
O14   O     O_R   0.963120 0.565400 0.999930 -0.586299
O15   O     O_R   0.434600 0.963120 0.999930 -0.577075
O16   O     O_R   0.036880 0.434600 0.999930 -0.576353
C1    C     C_R   0.086230 0.500000 0.500007 0.962529
C2    C     C_R   0.500000 0.913769 0.500000 0.960158
C3    C     C_R   0.913770 0.500000 0.499992 0.962505
C4    C     C_R   0.500000 0.086229 0.500000 0.960593
C5    C     C_R   0.586072 0.999999 0.999981 0.952463
C6    C     C_R   1.000000 0.413920 0.000002 0.931113
C7    C     C_R   0.413928 0.999999 0.000019 0.952425
C8    C     C_R   0.000000 0.586229 1.000000 0.966918
O17   O     O_R   0.999940 0.463120 0.444630 -0.595152
O18   O     O_R   0.463120 0.000060 0.444630 -0.592505
O19   O     O_R   0.000060 0.536880 0.444630 -0.594903
O20   O     O_R   0.536880 0.999940 0.444630 -0.592824
O21   O     O_R   0.999940 0.536880 0.555370 -0.594985
O22   O     O_R   0.463120 0.999940 0.555370 -0.592827
O23   O     O_R   0.000060 0.463120 0.555370 -0.595228
O24   O     O_R   0.536880 0.000060 0.555370 -0.592504
O25   O     O_R   0.499940 0.963120 0.944630 -0.599749
O26   O     O_R   0.963120 0.500060 0.944630 -0.622898
O27   O     O_R   0.500060 0.036880 0.944630 -0.599902
O28   O     O_R   0.036880 0.499940 0.944630 -0.570558
O29   O     O_R   0.499940 0.036880 0.055370 -0.599905
O30   O     O_R   0.963120 0.499940 0.055370 -0.570646
O31   O     O_R   0.500060 0.963120 0.055370 -0.599747
O32   O     O_R   0.036880 0.500060 0.055370 -0.622957
C9    C     C_R   0.000012 0.500001 0.426843 0.949658
C10   C     C_R   0.500039 0.000003 0.426890 0.946901
C11   C     C_R   0.999987 0.500001 0.573158 0.949754
C12   C     C_R   0.499960 0.000003 0.573110 0.946902
C13   C     C_R   0.500005 1.000000 0.926751 0.940826
C14   C     C_R   0.000041 0.499993 0.926811 0.936774
C15   C     C_R   0.499995 0.000000 0.073248 0.940829
C16   C     C_R   0.999958 0.499992 0.073190 0.936918
Zn1   Zn    Zn3+2 0.000000 0.450720 0.500000 1.156297
Zn2   Zn    Zn3+2 0.450720 0.000000 0.500000 1.156936
Zn3   Zn    Zn3+2 0.000000 0.549280 0.500000 1.156087
Zn4   Zn    Zn3+2 0.549280 0.000000 0.500000 1.156937
Zn5   Zn    Zn3+2 0.500000 0.950720 0.000000 1.153534
Zn6   Zn    Zn3+2 0.950720 0.500000 0.000000 1.155741
Zn7   Zn    Zn3+2 0.500000 0.049280 0.000000 1.152700
Zn8   Zn    Zn3+2 0.049280 0.500000 0.000000 1.155770
C17   C     C_R   0.028675 0.528740 0.173016 0.299958
C18   C     C_R   0.523553 0.966966 0.173272 0.294679
C19   C     C_R   0.970978 0.471729 0.173150 0.294830
C20   C     C_R   0.476638 0.033097 0.173372 0.294441
C21   C     C_R   0.028887 0.471604 0.826853 0.294869
C22   C     C_R   0.523362 0.033093 0.826628 0.294436
C23   C     C_R   0.971458 0.528885 0.826992 0.299949
C24   C     C_R   0.476442 0.966964 0.826729 0.294686
C25   C     C_R   0.520405 0.035021 0.672719 0.300437
C26   C     C_R   0.031010 0.473914 0.672905 0.299955
C27   C     C_R   0.479182 0.965118 0.672774 0.300536
C28   C     C_R   0.969062 0.526297 0.672992 0.299898
C29   C     C_R   0.520813 0.965119 0.327225 0.300537
C30   C     C_R   0.031067 0.526134 0.327012 0.299911
C31   C     C_R   0.479596 0.035025 0.327283 0.300436
C32   C     C_R   0.968855 0.474062 0.327102 0.299971
C33   C     C_R   0.029341 0.527252 0.133677 -0.183895
C34   C     C_R   0.521937 0.966504 0.133949 -0.166382
C35   C     C_R   0.970306 0.473164 0.133822 -0.168973
C36   C     C_R   0.478142 0.033515 0.134040 -0.166922
C37   C     C_R   0.029569 0.473036 0.866181 -0.169270
C38   C     C_R   0.521858 0.033512 0.865960 -0.166907
C39   C     C_R   0.970785 0.527394 0.866332 -0.183698
C40   C     C_R   0.478059 0.966504 0.866051 -0.166399
C41   C     C_R   0.521451 0.033766 0.633386 -0.177213
C42   C     C_R   0.029595 0.473071 0.633572 -0.178396
C43   C     C_R   0.478230 0.966338 0.633440 -0.177561
C44   C     C_R   0.970409 0.527016 0.633652 -0.178948
C45   C     C_R   0.521766 0.966338 0.366558 -0.177566
C46   C     C_R   0.029723 0.526864 0.366352 -0.178902
C47   C     C_R   0.478552 0.033770 0.366616 -0.177209
C48   C     C_R   0.970268 0.473216 0.366435 -0.178367
C49   C     C_R   0.999864 0.500136 0.114181 -0.135454
C50   C     C_R   0.500019 0.000003 0.114347 -0.156929
C51   C     C_R   0.000136 0.500141 0.885823 -0.135413
C52   C     C_R   0.499980 0.000002 0.885653 -0.156929
C53   C     C_R   0.499872 0.000038 0.613949 -0.114883
C54   C     C_R   0.999987 0.500016 0.614088 -0.113507
C55   C     C_R   0.500128 0.000040 0.386051 -0.114885
C56   C     C_R   0.000011 0.500014 0.385916 -0.113513
C57   C     C_R   0.999840 0.500235 0.192860 -0.145906
C58   C     C_R   0.500127 0.000044 0.193088 -0.146172
C59   C     C_R   0.000158 0.500246 0.807145 -0.145947
C60   C     C_R   0.499871 0.000040 0.806912 -0.146173
C61   C     C_R   0.499780 0.000073 0.692521 -0.147107
C62   C     C_R   0.000055 0.500137 0.692726 -0.145186
C63   C     C_R   0.500218 0.000076 0.307478 -0.147109
C64   C     C_R   0.999942 0.500128 0.307279 -0.145249
C65   C     C_1   0.999877 0.500220 0.233193 0.190414
C66   C     C_1   0.500179 0.000060 0.233410 0.191198
C67   C     C_1   0.000120 0.500233 0.766813 0.190392
C68   C     C_1   0.499819 0.000056 0.766590 0.191196
C69   C     C_1   0.499788 0.000064 0.732842 0.190973
C70   C     C_1   0.000091 0.500198 0.733059 0.191026
C71   C     C_1   0.500209 0.000068 0.267158 0.190974
C72   C     C_1   0.999906 0.500186 0.266947 0.191037
C73   C     C_R   0.203509 0.531324 0.521439 -0.091624
C74   C     C_R   0.531322 0.796407 0.521260 -0.091472
C75   C     C_R   0.796332 0.468657 0.521164 -0.091795
C76   C     C_R   0.468684 0.203591 0.521371 -0.091537
C77   C     C_R   0.203667 0.468661 0.478829 -0.091773
C78   C     C_R   0.531316 0.203590 0.478628 -0.091541
C79   C     C_R   0.796491 0.531328 0.478565 -0.091599
C80   C     C_R   0.468678 0.796406 0.478741 -0.091476
C81   C     C_R   0.702824 0.985995 0.032099 -0.085469
C82   C     C_R   0.982787 0.297054 0.030898 -0.083539
C83   C     C_R   0.296929 0.013878 0.031956 -0.086159
C84   C     C_R   0.968758 0.703591 0.021449 -0.092715
C85   C     C_R   0.703071 0.013870 0.968041 -0.086159
C86   C     C_R   0.031242 0.703590 0.978548 -0.092700
C87   C     C_R   0.297177 0.985986 0.967903 -0.085465
C88   C     C_R   0.017206 0.297051 0.969114 -0.083491
C89   C     C_R   0.157538 0.530808 0.522685 0.273572
C90   C     C_R   0.530804 0.842375 0.522559 0.273732
C91   C     C_R   0.842295 0.469177 0.522514 0.273595
C92   C     C_R   0.469193 0.157621 0.522659 0.273709
C93   C     C_R   0.157704 0.469182 0.477480 0.273583
C94   C     C_R   0.530807 0.157620 0.477341 0.273709
C95   C     C_R   0.842463 0.530812 0.477318 0.273568
C96   C     C_R   0.469196 0.842374 0.477442 0.273733
C97   C     C_R   0.656857 0.985879 0.032496 0.273738
C98   C     C_R   0.982526 0.343001 0.031262 0.276988
C99   C     C_R   0.342898 0.014063 0.032448 0.273327
C100  C     C_R   0.969265 0.657619 0.022730 0.273555
C101  C     C_R   0.657102 0.014054 0.967550 0.273324
C102  C     C_R   0.030735 0.657618 0.977268 0.273543
C103  C     C_R   0.343143 0.985870 0.967507 0.273742
C104  C     C_R   0.017473 0.342997 0.968750 0.277006
C105  C     C_R   0.134330 0.500000 0.500054 -0.283712
C106  C     C_R   0.500000 0.865668 0.500000 -0.283694
C107  C     C_R   0.865670 0.499999 0.499945 -0.283720
C108  C     C_R   0.500000 0.134329 0.500000 -0.283543
C109  C     C_R   0.633859 0.999990 0.000008 -0.270016
C110  C     C_R   1.000000 0.366125 0.000005 -0.270653
C111  C     C_R   0.366141 0.999990 0.999993 -0.270019
C112  C     C_R   1.000000 0.634328 0.999999 -0.284734
C113  C     C_R   0.226180 0.499994 0.500157 0.059086
C114  C     C_R   0.500000 0.773816 0.500001 0.058523
C115  C     C_R   0.773820 0.499995 0.499842 0.059080
C116  C     C_R   0.500000 0.226182 0.499999 0.058583
C117  C     C_R   0.725737 0.999914 0.000092 0.048281
C118  C     C_R   0.999994 0.274281 0.000005 0.046902
C119  C     C_R   0.274263 0.999914 0.999908 0.048276
C120  C     C_R   1.000000 0.726184 0.999999 0.060672
C121  C     C_R   0.297115 0.472742 0.525942 0.305471
C122  C     C_R   0.472691 0.702848 0.525825 0.305477
C123  C     C_R   0.702815 0.527336 0.525636 0.305387
C124  C     C_R   0.527431 0.297153 0.525636 0.305505
C125  C     C_R   0.297186 0.527345 0.474371 0.305384
C126  C     C_R   0.472568 0.297152 0.474363 0.305503
C127  C     C_R   0.702885 0.472754 0.474049 0.305461
C128  C     C_R   0.527310 0.702848 0.474176 0.305473
C129  C     C_R   0.797165 0.974102 0.973301 0.297343
C130  C     C_R   0.976618 0.202984 0.971678 0.297730
C131  C     C_R   0.202955 0.025592 0.973027 0.298065
C132  C     C_R   0.027602 0.797161 0.025503 0.304076
C133  C     C_R   0.797045 0.025601 0.026967 0.298069
C134  C     C_R   0.972399 0.797161 0.974494 0.304067
C135  C     C_R   0.202835 0.974111 0.026704 0.297343
C136  C     C_R   0.023370 0.202984 0.028331 0.297735
C137  C     C_R   0.343148 0.473397 0.525628 -0.218745
C138  C     C_R   0.473343 0.656816 0.525540 -0.218483
C139  C     C_R   0.656786 0.526686 0.525382 -0.218615
C140  C     C_R   0.526782 0.343185 0.525355 -0.218533
C141  C     C_R   0.343214 0.526695 0.474626 -0.218605
C142  C     C_R   0.473218 0.343185 0.474644 -0.218531
C143  C     C_R   0.656852 0.473408 0.474363 -0.218731
C144  C     C_R   0.526658 0.656816 0.474462 -0.218481
C145  C     C_R   0.843146 0.975578 0.972958 -0.213219
C146  C     C_R   0.978028 0.157006 0.971473 -0.213927
C147  C     C_R   0.156973 0.024154 0.972713 -0.214643
C148  C     C_R   0.026952 0.843195 0.025224 -0.221101
C149  C     C_R   0.843027 0.024163 0.027282 -0.214649
C150  C     C_R   0.973048 0.843195 0.974774 -0.221095
C151  C     C_R   0.156854 0.975587 0.027047 -0.213219
C152  C     C_R   0.021965 0.157006 0.028532 -0.213924
C153  C     C_R   0.365891 0.500038 0.500104 -0.142998
C154  C     C_R   0.500000 0.634107 0.500000 -0.143007
C155  C     C_R   0.634110 0.500038 0.499896 -0.143011
C156  C     C_R   0.500000 0.365893 0.499999 -0.142810
C157  C     C_R   0.865835 0.999901 0.000099 -0.147770
C158  C     C_R   0.999998 0.134227 0.000001 -0.150658
C159  C     C_R   0.134165 0.999901 0.999901 -0.147781
C160  C     C_R   0.000000 0.865900 0.999999 -0.141332
C161  C     C_R   0.274078 0.500033 0.500164 -0.142874
C162  C     C_R   0.500001 0.725919 0.500001 -0.142848
C163  C     C_R   0.725922 0.500035 0.499835 -0.142872
C164  C     C_R   0.500000 0.274081 0.499999 -0.142835
C165  C     C_R   0.773900 0.999862 0.000128 -0.125787
C166  C     C_R   0.999993 0.226160 0.000005 -0.125113
C167  C     C_R   0.226101 0.999862 0.999872 -0.125783
C168  C     C_R   0.000000 0.774088 0.999998 -0.143550
O33   O     O_R   0.499910 0.565560 0.468780 -0.610464
O34   O     O_R   0.565560 0.500090 0.468780 -0.610571
O35   O     O_R   0.500090 0.434440 0.468780 -0.610380
O36   O     O_R   0.434440 0.499910 0.468780 -0.610414
O37   O     O_R   0.499910 0.434440 0.531220 -0.610384
O38   O     O_R   0.565560 0.499910 0.531220 -0.610425
O39   O     O_R   0.500090 0.565560 0.531220 -0.610468
O40   O     O_R   0.434440 0.500090 0.531220 -0.610571
O41   O     O_R   0.999910 0.065560 0.968780 -0.611407
O42   O     O_R   0.065560 0.000090 0.968780 -0.608052
O43   O     O_R   0.000090 0.934440 0.968780 -0.610258
O44   O     O_R   0.934440 0.999910 0.968780 -0.612887
O45   O     O_R   0.999910 0.934440 0.031220 -0.610262
O46   O     O_R   0.065560 0.999910 0.031220 -0.612894
O47   O     O_R   0.000090 0.065560 0.031220 -0.611415
O48   O     O_R   0.934440 0.000090 0.031220 -0.608052
C169  C     C_R   0.500000 0.586373 0.500000 0.908583
C170  C     C_R   0.586375 0.500006 0.499967 0.908551
C171  C     C_R   0.500000 0.413627 0.500000 0.908518
C172  C     C_R   0.413626 0.500006 0.500033 0.908545
C173  C     C_R   1.000000 0.086416 0.000000 0.909463
C174  C     C_R   0.086395 0.999977 0.999967 0.908191
C175  C     C_R   0.000000 0.913629 1.000000 0.907497
C176  C     C_R   0.913605 0.999977 0.000032 0.908184
Zn9   Zn    Zn3+2 0.500000 0.500000 0.458280 1.066369
Zn10  Zn    Zn3+2 0.500000 0.500000 0.541720 1.066349
Zn11  Zn    Zn3+2 0.000000 0.000000 0.958280 1.067913
Zn12  Zn    Zn3+2 0.000000 0.000000 0.041720 1.067895
N1    N     N_R   0.056795 0.559730 0.192206 0.244577
O49   O     O_R   0.095240 0.569863 0.178146 -0.281551
O50   O     O_R   0.041490 0.582931 0.220205 -0.288264
N2    N     N_R   0.549609 0.934225 0.192471 0.248621
O51   O     O_R   0.553345 0.894617 0.178518 -0.273492
O52   O     O_R   0.575075 0.945633 0.220321 -0.285312
N3    N     N_R   0.942880 0.440736 0.192456 0.249299
O53   O     O_R   0.904460 0.430533 0.178511 -0.263422
O54   O     O_R   0.958233 0.417522 0.220375 -0.286085
N4    N     N_R   0.450635 0.065857 0.192687 0.248595
O55   O     O_R   0.446857 0.105450 0.178724 -0.273481
O56   O     O_R   0.425251 0.054480 0.220685 -0.284726
N5    N     N_R   0.056834 0.440477 0.807546 0.249316
O57   O     O_R   0.095204 0.430087 0.821490 -0.263265
O58   O     O_R   0.041366 0.417336 0.779628 -0.286103
N6    N     N_R   0.549366 0.065851 0.807312 0.248595
O59   O     O_R   0.553146 0.105444 0.821275 -0.273486
O60   O     O_R   0.574751 0.054471 0.779315 -0.284725
N7    N     N_R   0.943487 0.560011 0.807805 0.244588
O61   O     O_R   0.905094 0.570331 0.821869 -0.281524
O62   O     O_R   0.958901 0.583137 0.779806 -0.288221
N8    N     N_R   0.450384 0.934224 0.807529 0.248620
O63   O     O_R   0.446646 0.894617 0.821482 -0.273489
O64   O     O_R   0.424919 0.945633 0.779679 -0.285308
N9    N     N_R   0.539661 0.072163 0.691940 0.245659
O65   O     O_R   0.574190 0.091847 0.677860 -0.276754
O66   O     O_R   0.518948 0.090636 0.719976 -0.289706
N10   N     N_R   0.064396 0.448711 0.692107 0.244975
O67   O     O_R   0.077914 0.411298 0.678132 -0.277707
O68   O     O_R   0.086177 0.466100 0.719988 -0.289342
N11   N     N_R   0.459882 0.927992 0.692048 0.245555
O69   O     O_R   0.425365 0.908319 0.678050 -0.277350
O70   O     O_R   0.480551 0.909513 0.720034 -0.289423
N12   N     N_R   0.935722 0.551576 0.692293 0.244971
O71   O     O_R   0.922171 0.588935 0.678282 -0.278107
O72   O     O_R   0.914018 0.534305 0.720342 -0.289633
N13   N     N_R   0.540110 0.927991 0.307949 0.245557
O73   O     O_R   0.574625 0.908316 0.321945 -0.277349
O74   O     O_R   0.519438 0.909514 0.279963 -0.289424
N14   N     N_R   0.064535 0.551242 0.307710 0.244996
O75   O     O_R   0.078281 0.588530 0.321722 -0.278077
O76   O     O_R   0.086148 0.533862 0.279658 -0.289620
N15   N     N_R   0.460343 0.072169 0.308063 0.245658
O77   O     O_R   0.425817 0.091856 0.322145 -0.276754
O78   O     O_R   0.481057 0.090640 0.280027 -0.289702
N16   N     N_R   0.935342 0.449025 0.307903 0.244995
O79   O     O_R   0.921628 0.411687 0.321885 -0.277685
O80   O     O_R   0.913655 0.466516 0.280015 -0.289331
H1    H     H_    0.051543 0.548706 0.118150 0.204776
H2    H     H_    0.539385 0.940961 0.118567 0.235678
H3    H     H_    0.948030 0.451765 0.118438 0.234333
H4    H     H_    0.460645 0.059037 0.118729 0.235377
H5    H     H_    0.051746 0.451534 0.881565 0.234392
H6    H     H_    0.539356 0.059034 0.881271 0.235380
H7    H     H_    0.948683 0.548949 0.881862 0.204713
H8    H     H_    0.460610 0.940962 0.881433 0.235675
H9    H     H_    0.537461 0.060118 0.617802 0.201918
H10   H     H_    0.052936 0.452873 0.618029 0.201787
H11   H     H_    0.462263 0.939968 0.617899 0.201859
H12   H     H_    0.947053 0.547181 0.618172 0.201793
H13   H     H_    0.537731 0.939967 0.382099 0.201860
H14   H     H_    0.053179 0.546913 0.381833 0.201766
H15   H     H_    0.462544 0.060123 0.382200 0.201920
H16   H     H_    0.946828 0.453135 0.381981 0.201756
H17   H     H_    0.221819 0.554839 0.538361 0.194148
H18   H     H_    0.554826 0.778033 0.538135 0.194369
H19   H     H_    0.777895 0.445149 0.538054 0.194152
H20   H     H_    0.445184 0.221966 0.538327 0.194321
H21   H     H_    0.222104 0.445156 0.461936 0.194155
H22   H     H_    0.554815 0.221965 0.461672 0.194321
H23   H     H_    0.778182 0.554847 0.461646 0.194155
H24   H     H_    0.445175 0.778031 0.461867 0.194371
H25   H     H_    0.720878 0.974968 0.056718 0.193355
H26   H     H_    0.969327 0.278937 0.054642 0.193476
H27   H     H_    0.278675 0.024868 0.056541 0.193904
H28   H     H_    0.945316 0.721966 0.038463 0.192539
H29   H     H_    0.721325 0.024852 0.943455 0.193905
H30   H     H_    0.054684 0.721965 0.961534 0.192543
H31   H     H_    0.279122 0.974952 0.943287 0.193354
H32   H     H_    0.030667 0.278933 0.945370 0.193480
N17   N     N_R   0.135208 0.560230 0.548227 0.235251
O81   O     O_R   0.104369 0.545266 0.570429 -0.367857
O82   O     O_R   0.150612 0.599829 0.553921 -0.300630
N18   N     N_R   0.560216 0.864608 0.548084 0.235859
O83   O     O_R   0.545245 0.895362 0.570344 -0.370546
O84   O     O_R   0.599810 0.849183 0.553702 -0.299677
N19   N     N_R   0.864434 0.439754 0.548102 0.235262
O85   O     O_R   0.895148 0.454703 0.570336 -0.367336
O86   O     O_R   0.848967 0.400169 0.553787 -0.300359
N20   N     N_R   0.439762 0.135384 0.548264 0.235759
O87   O     O_R   0.454698 0.104575 0.570435 -0.371058
O88   O     O_R   0.400183 0.150841 0.554034 -0.299767
N21   N     N_R   0.135564 0.439763 0.451887 0.235271
O89   O     O_R   0.104848 0.454716 0.429658 -0.367437
O90   O     O_R   0.151032 0.400180 0.446194 -0.300342
N22   N     N_R   0.560238 0.135382 0.451736 0.235759
O91   O     O_R   0.545302 0.104573 0.429565 -0.371064
O92   O     O_R   0.599817 0.150839 0.445966 -0.299768
N23   N     N_R   0.864793 0.560237 0.451779 0.235265
O93   O     O_R   0.895630 0.545275 0.429573 -0.367923
O94   O     O_R   0.849391 0.599837 0.446091 -0.300622
N24   N     N_R   0.439784 0.864606 0.451917 0.235859
O95   O     O_R   0.454754 0.895358 0.429657 -0.370543
O96   O     O_R   0.400189 0.849180 0.446300 -0.299675
N25   N     N_R   0.634301 0.972539 0.066310 0.200351
O97   O     O_R   0.604315 0.941790 0.065147 -0.359239
O98   O     O_R   0.649176 0.985211 0.098944 -0.310130
N26   N     N_R   0.965760 0.365452 0.063946 0.195347
O99   O     O_R   0.932724 0.392692 0.060833 -0.342819
O100  O     O_R   0.977359 0.352139 0.097352 -0.313853
N27   N     N_R   0.365185 0.027349 0.066340 0.201232
O101  O     O_R   0.395529 0.057754 0.065255 -0.359736
O102  O     O_R   0.349861 0.014901 0.098936 -0.308196
N28   N     N_R   0.939908 0.635376 0.048395 0.234716
O103  O     O_R   0.954893 0.604521 0.070495 -0.364975
O104  O     O_R   0.900360 0.650854 0.054276 -0.302723
N29   N     N_R   0.634815 0.027333 0.933655 0.201238
O105  O     O_R   0.604468 0.057735 0.934737 -0.359770
O106  O     O_R   0.650140 0.014881 0.901061 -0.308193
N30   N     N_R   0.060091 0.635374 0.951604 0.234725
O107  O     O_R   0.045105 0.604518 0.929504 -0.365033
O108  O     O_R   0.099639 0.650852 0.945722 -0.302712
N31   N     N_R   0.365699 0.972522 0.933695 0.200342
O109  O     O_R   0.395679 0.941767 0.934862 -0.359201
O110  O     O_R   0.350828 0.985191 0.901060 -0.310133
N32   N     N_R   0.034256 0.365446 0.936072 0.195248
O111  O     O_R   0.067318 0.392653 0.939193 -0.342724
O112  O     O_R   0.022648 0.352149 0.902663 -0.313913
N33   N     N_R   0.274658 0.444008 0.552169 0.231520
O113  O     O_R   0.293544 0.407669 0.563372 -0.309540
O114  O     O_R   0.237691 0.455843 0.568001 -0.328381
N34   N     N_R   0.443948 0.725270 0.552076 0.231577
O115  O     O_R   0.407579 0.706389 0.563305 -0.309602
O116  O     O_R   0.455800 0.762187 0.567906 -0.327224
N35   N     N_R   0.725196 0.556066 0.551839 0.231447
O117  O     O_R   0.706303 0.592436 0.563025 -0.309567
O118  O     O_R   0.762077 0.544198 0.567674 -0.328611
N36   N     N_R   0.556286 0.274725 0.551694 0.231532
O119  O     O_R   0.592739 0.293572 0.562644 -0.309456
O120  O     O_R   0.544468 0.237842 0.567639 -0.327086
N37   N     N_R   0.274804 0.556084 0.448178 0.231448
O121  O     O_R   0.293693 0.592463 0.437007 -0.309549
O122  O     O_R   0.237927 0.544218 0.432334 -0.328561
N38   N     N_R   0.443714 0.274725 0.448303 0.231536
O123  O     O_R   0.407263 0.293574 0.437350 -0.309448
O124  O     O_R   0.455529 0.237838 0.432362 -0.327083
N39   N     N_R   0.725342 0.444030 0.447814 0.231522
O125  O     O_R   0.706459 0.407690 0.436606 -0.309521
O126  O     O_R   0.762305 0.455873 0.431980 -0.328337
N40   N     N_R   0.556053 0.725269 0.447925 0.231581
O127  O     O_R   0.592419 0.706385 0.436692 -0.309602
O128  O     O_R   0.544204 0.762189 0.432099 -0.327224
N41   N     N_R   0.774820 0.945508 0.947081 0.222311
O129  O     O_R   0.791701 0.938361 0.913885 -0.302239
O130  O     O_R   0.741119 0.921934 0.957885 -0.320400
N42   N     N_R   0.950484 0.225419 0.943713 0.221352
O131  O     O_R   0.946252 0.208572 0.910177 -0.307673
O132  O     O_R   0.926163 0.259221 0.952949 -0.323145
N43   N     N_R   0.225418 0.054147 0.946777 0.220747
O133  O     O_R   0.208721 0.061187 0.913552 -0.309049
O134  O     O_R   0.259022 0.077795 0.957569 -0.323171
N44   N     N_R   0.056621 0.774735 0.051430 0.230945
O135  O     O_R   0.093130 0.793594 0.062229 -0.304878
O136  O     O_R   0.044912 0.737840 0.067413 -0.328999
N45   N     N_R   0.774582 0.054165 0.053211 0.220748
O137  O     O_R   0.791281 0.061217 0.086433 -0.309060
O138  O     O_R   0.740978 0.077809 0.042413 -0.323174
N46   N     N_R   0.943379 0.774735 0.948567 0.230952
O139  O     O_R   0.906872 0.793594 0.937766 -0.304857
O140  O     O_R   0.955087 0.737839 0.932585 -0.328958
N47   N     N_R   0.225180 0.945526 0.052930 0.222309
O141  O     O_R   0.208299 0.938391 0.086129 -0.302250
O142  O     O_R   0.258880 0.921947 0.042132 -0.320398
N48   N     N_R   0.049503 0.225419 0.056297 0.221346
O143  O     O_R   0.053733 0.208571 0.089832 -0.307695
O144  O     O_R   0.073825 0.259221 0.047062 -0.323135
H33   H     H_    0.361413 0.452885 0.545207 0.202630
H34   H     H_    0.452824 0.638526 0.545162 0.202597
H35   H     H_    0.638472 0.547189 0.544997 0.202639
H36   H     H_    0.547395 0.361475 0.544837 0.202429
H37   H     H_    0.361528 0.547206 0.455017 0.202627
H38   H     H_    0.452605 0.361475 0.455162 0.202433
H39   H     H_    0.638588 0.452902 0.454778 0.202639
H40   H     H_    0.547176 0.638525 0.454839 0.202601
H41   H     H_    0.861385 0.956146 0.952515 0.203324
H42   H     H_    0.960338 0.138861 0.949918 0.205919
H43   H     H_    0.138827 0.043591 0.952276 0.203710
H44   H     H_    0.047696 0.861491 0.044603 0.200923
H45   H     H_    0.861173 0.043606 0.047714 0.203700
H46   H     H_    0.952305 0.861490 0.955395 0.200926
H47   H     H_    0.138616 0.956161 0.047495 0.203330
H48   H     H_    0.039657 0.138861 0.050086 0.205917

loop_
_geom_bond_atom_site_label_1
_geom_bond_atom_site_label_2
_geom_bond_distance
_ccdc_geom_bond_type
N7    O62   1.301136 A    
C42   C54   1.395589 A    
C90   C106  1.417497 A    
O25   C13   1.283587 A    
C135  C167  1.416654 A    
C77   C93   1.391605 A    
C6    C110  1.445947 S    
C139  C155  1.393350 A    
O46   Zn12  2.017497 S    
N16   O79   1.301407 A    
C137  C153  1.393355 A    
C132  N44   1.442660 S    
C20   C58   1.413048 A    
O18   Zn2   2.000174 S    
C129  C165  1.416652 A    
C34   H2    1.082958 S    
O10   Zn6   2.013804 S    
C43   C53   1.394657 A    
C99   N27   1.437610 S    
C74   H18   1.084017 S    
C68   C69   1.197896 T    
C136  C166  1.416179 A    
O24   Zn4   2.000170 S    
C124  C164  1.416687 A    
N45   O138  1.301444 A    
O19   Zn3   2.000886 S    
O3    C3    1.281419 A    
N20   O87   1.301409 A    
C152  C158  1.394567 A    
C100  C112  1.417455 A    
C89   C105  1.417490 A    
O30   C16   1.282609 A    
C140  C156  1.393352 A    
C57   C65   1.431644 S    
C22   N6    1.438451 S    
C142  H38   1.083987 S    
C134  C168  1.416745 A    
C74   C90   1.391522 A    
C98   N26   1.436079 S    
O14   C8    1.281441 A    
N34   O115  1.301592 A    
N29   O106  1.301302 A    
C38   H6    1.083020 S    
C113  C161  1.449164 S    
C19   C57   1.413550 A    
N19   O85   1.301445 A    
C117  C165  1.457167 S    
N42   O132  1.301442 A    
C42   H10   1.083958 S    
O17   C9    1.282010 A    
N23   O94   1.301352 A    
C136  N48   1.440239 S    
C14   C51   1.454931 S    
C20   C36   1.396838 A    
C40   C52   1.397415 A    
N40   O128  1.300930 A    
C26   C42   1.397126 A    
C137  H33   1.083971 S    
C82   C118  1.394942 A    
O13   C5    1.279111 A    
C87   C103  1.390756 A    
N22   O91   1.301409 A    
C88   C104  1.390098 A    
C65   C72   1.198127 T    
O26   Zn6   2.000174 S    
O7    C3    1.281419 A    
O45   Zn12  2.018098 S    
C77   C113  1.391968 A    
N41   O129  1.301442 A    
C67   C70   1.198130 T    
N12   O72   1.301135 A    
C93   C105  1.417466 A    
C121  C137  1.392881 A    
N39   O125  1.301591 A    
O27   C13   1.283586 A    
C86   H30   1.084005 S    
O6    C4    1.281447 A    
O31   C15   1.283585 A    
C157  C176  1.445296 S    
C149  C157  1.394011 A    
O32   C16   1.282634 A    
C37   C51   1.396068 A    
C29   C63   1.414107 A    
C125  C141  1.392770 A    
C119  C167  1.457167 S    
O8    C2    1.281458 A    
C29   N13   1.438402 S    
C58   C66   1.431273 S    
C97   N25   1.437350 S    
C34   C50   1.397414 A    
N33   O113  1.301588 A    
C101  N29   1.437613 S    
O9    C5    1.279035 A    
C148  H44   1.084023 S    
C83   C119  1.394948 A    
C84   C120  1.391953 A    
O11   C7    1.279111 A    
C128  C162  1.416730 A    
C85   C117  1.394949 A    
N15   O78   1.301133 A    
N35   O118  1.300925 A    
N28   O103  1.301430 A    
C126  N38   1.442663 S    
C76   C116  1.391916 A    
C145  H41   1.084002 S    
N23   O93   1.301420 A    
O4    C4    1.281448 A    
N21   O90   1.301352 A    
C95   N23   1.438142 S    
N31   O109  1.300096 A    
O5    Zn3   2.013910 S    
C91   C107  1.417463 A    
C145  C157  1.394049 A    
C74   C114  1.391902 A    
C134  N46   1.442662 S    
N35   O117  1.301590 A    
N38   O123  1.301607 A    
C87   H31   1.084050 S    
C131  N43   1.440104 S    
C126  C142  1.392794 A    
C25   C61   1.414072 A    
O41   Zn11  2.018093 S    
N45   O137  1.301435 A    
C28   N12   1.438393 S    
N5    O57   1.301414 A    
O40   C172  1.274662 A    
O23   C11   1.282036 A    
C122  C162  1.416732 A    
C154  C169  1.444089 S    
O42   Zn11  2.018937 S    
C81   H25   1.084053 S    
C93   N21   1.438185 S    
N9    O65   1.301402 A    
C150  H46   1.084022 S    
C9    C56   1.452762 S    
N32   O111  1.300299 A    
C148  C160  1.393317 A    
C83   C99   1.390923 A    
C11   C54   1.452854 S    
C41   C53   1.394661 A    
O34   Zn9   2.018937 S    
C17   C33   1.397229 A    
C13   C52   1.458837 S    
O19   C9    1.281950 A    
N36   O119  1.301608 A    
C104  C110  1.413339 A    
O2    Zn2   2.013804 S    
C103  N31   1.437345 S    
C45   H13   1.084047 S    
C85   C101  1.390923 A    
N10   O67   1.301400 A    
O17   Zn1   2.000901 S    
C47   C55   1.394664 A    
C152  H48   1.083900 S    
C4    C108  1.455159 S    
O28   C14   1.282585 A    
O26   C14   1.282610 A    
C5    C109  1.445774 S    
O29   C15   1.283588 A    
C122  N34   1.442724 S    
O8    Zn4   2.013802 S    
C39   C51   1.396235 A    
C78   C94   1.391562 A    
C92   N20   1.438167 S    
N1    O49   1.301405 A    
O34   C170  1.274664 A    
C115  C163  1.449161 S    
N30   O108  1.301358 A    
C135  N47   1.440149 S    
N36   O120  1.300943 A    
C66   C71   1.197892 T    
N25   O98   1.301284 A    
O24   C12   1.281176 A    
C60   C68   1.431273 S    
C30   N14   1.438401 S    
O43   Zn11  2.018106 S    
N46   O139  1.301615 A    
C64   C72   1.431642 S    
C128  N40   1.442730 S    
C40   H8    1.082961 S    
C38   C52   1.397414 A    
C31   N15   1.438417 S    
O35   Zn9   2.018106 S    
N19   O86   1.301353 A    
N18   O84   1.301351 A    
O16   Zn8   2.013802 S    
C96   C106  1.417499 A    
C120  C168  1.449226 S    
C124  N36   1.442660 S    
C76   C92   1.391564 A    
C141  H37   1.083977 S    
C80   C114  1.391901 A    
C143  H39   1.083972 S    
O6    Zn2   2.013797 S    
C100  N28   1.438203 S    
N48   O143  1.301438 A    
C139  H35   1.083974 S    
C95   C107  1.417490 A    
C123  C139  1.392770 A    
C15   C50   1.458840 S    
N44   O136  1.300943 A    
C131  C167  1.416656 A    
C29   C45   1.397022 A    
C27   C61   1.414104 A    
O21   Zn3   2.000891 S    
C31   C63   1.414075 A    
N4    O55   1.301399 A    
C133  C149  1.391933 A    
C22   C38   1.396834 A    
C25   N9    1.438421 S    
O43   C175  1.274545 A    
C75   H19   1.084010 S    
N11   O69   1.301406 A    
O12   C8    1.281442 A    
N16   O80   1.301136 A    
N8    O63   1.301401 A    
C45   C55   1.394657 A    
C144  C154  1.393335 A    
C103  C111  1.414023 A    
N2    O51   1.301401 A    
N13   O74   1.301128 A    
N47   O142  1.301442 A    
C17   N1    1.438409 S    
C122  C138  1.392774 A    
O47   Zn12  2.018101 S    
C35   C49   1.396107 A    
C123  C163  1.416745 A    
O29   Zn7   2.000891 S    
C127  N39   1.442730 S    
N14   O75   1.301408 A    
O46   C174  1.274844 A    
C21   N5    1.438434 S    
C35   H3    1.083054 S    
N6    O59   1.301400 A    
C83   H27   1.084046 S    
C116  C164  1.449105 S    
C48   C56   1.395563 A    
C94   N22   1.438166 S    
C19   C35   1.396845 A    
O40   Zn10  2.018940 S    
O44   Zn11  2.017500 S    
N34   O116  1.300929 A    
N29   O105  1.300094 A    
C158  C173  1.446431 S    
C150  C160  1.393318 A    
O10   C6    1.279220 A    
C102  N30   1.438202 S    
C138  C154  1.393337 A    
C18   C34   1.396798 A    
O15   Zn5   2.013923 S    
C28   C62   1.413812 A    
C130  C166  1.416183 A    
C30   C64   1.413832 A    
O5    C1    1.281417 A    
C61   C69   1.431230 S    
N3    O53   1.301421 A    
C63   C71   1.431230 S    
C102  C112  1.417454 A    
N17   O82   1.301351 A    
C125  C161  1.416742 A    
O42   C174  1.274992 A    
C8    C112  1.455156 S    
O32   Zn8   2.000170 S    
C18   C58   1.413010 A    
C143  C155  1.393354 A    
N15   O77   1.301402 A    
C48   H16   1.083964 S    
C127  C163  1.416768 A    
C141  C153  1.393347 A    
C124  C140  1.392791 A    
O22   Zn2   2.001619 S    
C156  C171  1.444068 S    
O21   C11   1.281969 A    
C24   C40   1.396799 A    
O22   C12   1.281254 A    
O38   Zn10  2.017497 S    
O39   Zn10  2.018101 S    
O33   C169  1.274587 A    
O23   Zn1   2.000890 S    
C26   N10   1.438368 S    
C114  C162  1.449032 S    
C149  H45   1.083968 S    
C88   C118  1.394936 A    
C118  C166  1.455785 S    
C147  H43   1.083968 S    
C82   C98   1.390112 A    
C73   C113  1.391913 A    
N27   O101  1.300097 A    
O3    Zn3   2.013911 S    
C23   C39   1.397238 A    
C32   C64   1.413857 A    
C46   H14   1.083961 S    
C86   C102  1.391625 A    
C3    C107  1.455246 S    
C10   C55   1.449643 S    
C147  C159  1.394012 A    
O39   C169  1.274590 A    
C28   C44   1.397107 A    
C1    C105  1.455243 S    
O28   Zn8   2.001622 S    
C25   C41   1.396982 A    
O30   Zn6   2.001619 S    
N10   O68   1.301134 A    
C130  C146  1.391629 A    
C44   C54   1.395620 A    
N28   O104  1.301356 A    
C79   H23   1.084014 S    
C134  C150  1.392824 A    
C31   C47   1.396983 A    
C90   N18   1.438141 S    
C62   C70   1.431645 S    
O9    Zn5   2.013917 S    
O37   Zn10  2.018098 S    
O11   Zn7   2.013911 S    
N38   O124  1.300943 A    
O16   C6    1.279219 A    
O1    C1    1.281421 A    
C84   C100  1.391624 A    
C151  C159  1.394053 A    
N42   O131  1.301437 A    
C140  H36   1.083985 S    
N43   O133  1.301434 A    
C44   H12   1.083961 S    
C86   C120  1.391957 A    
C59   C67   1.431644 S    
O48   C176  1.274991 A    
N40   O127  1.301589 A    
O48   Zn12  2.018940 S    
C33   C49   1.396269 A    
C138  H34   1.083977 S    
C37   H5    1.083039 S    
N11   O70   1.301125 A    
O31   Zn5   2.000890 S    
N32   O112  1.301175 A    
C133  N45   1.440108 S    
C84   H28   1.084007 S    
O18   C10   1.281176 A    
C79   C95   1.391561 A    
O36   C172  1.274569 A    
C33   H1    1.083892 S    
C24   C60   1.413011 A    
C73   H17   1.084014 S    
N41   O130  1.301444 A    
C76   H20   1.084011 S    
N12   O71   1.301400 A    
C146  C158  1.394564 A    
C133  C165  1.416656 A    
C80   C96   1.391524 A    
C91   N19   1.438184 S    
O47   C173  1.275223 A    
C39   H7    1.083894 S    
O13   Zn7   2.013910 S    
C89   N17   1.438144 S    
C20   N4    1.438451 S    
O2    C2    1.281459 A    
O20   Zn4   2.001622 S    
N21   O89   1.301446 A    
C26   C62   1.413841 A    
C96   N24   1.438141 S    
O36   Zn9   2.017500 S    
C101  C109  1.414137 A    
C75   C91   1.391605 A    
N25   O97   1.300099 A    
C98   C110  1.413354 A    
C73   C89   1.391560 A    
O4    Zn4   2.013799 S    
O37   C171  1.274576 A    
N24   O96   1.301352 A    
C121  C161  1.416771 A    
C159  C174  1.445296 S    
N46   O140  1.300942 A    
N33   O114  1.300927 A    
C135  C151  1.391889 A    
C136  C152  1.391623 A    
C81   C97   1.390756 A    
C82   H26   1.084097 S    
C19   N3    1.438440 S    
C99   C111  1.414137 A    
C41   H9    1.084049 S    
C12   C53   1.449646 S    
O41   C173  1.275226 A    
C43   H11   1.084046 S    
C23   N7    1.438402 S    
N3    O54   1.301125 A    
C23   C59   1.413688 A    
N47   O141  1.301441 A    
C160  C175  1.443944 S    
N48   O144  1.301445 A    
O15   C7    1.279035 A    
C17   C57   1.413674 A    
O35   C171  1.274579 A    
C97   C109  1.414027 A    
C21   C59   1.413550 A    
C18   N2    1.438456 S    
C32   C48   1.397130 A    
C24   N8    1.438452 S    
O25   Zn5   2.000901 S    
N4    O56   1.301138 A    
N5    O58   1.301127 A    
N37   O122  1.300928 A    
O44   C176  1.274842 A    
O27   Zn7   2.000886 S    
C92   C108  1.417474 A    
C132  C168  1.416747 A    
O7    Zn1   2.013923 S    
C85   H29   1.084047 S    
C21   C37   1.396846 A    
N9    O66   1.301128 A    
C128  C144  1.392778 A    
C88   H32   1.084097 S    
C32   N16   1.438375 S    
N8    O64   1.301138 A    
N39   O126  1.300926 A    
C123  N35   1.442733 S    
N27   O102  1.301304 A    
C27   N11   1.438402 S    
C144  H40   1.083976 S    
N6    O60   1.301137 A    
C104  N32   1.436059 S    
O45   C175  1.274542 A    
N2    O52   1.301139 A    
N13   O73   1.301401 A    
C80   H24   1.084016 S    
N31   O110  1.301287 A    
C126  C164  1.416689 A    
C27   C43   1.397023 A    
N26   O99   1.300295 A    
C78   C116  1.391918 A    
N37   O121  1.301589 A    
O12   Zn8   2.013799 S    
C46   C56   1.395592 A    
C130  N42   1.440244 S    
O14   Zn6   2.013797 S    
N14   O76   1.301134 A    
C16   C49   1.455030 S    
N1    O50   1.301135 A    
C146  H42   1.083900 S    
C22   C60   1.413046 A    
C142  C156  1.393353 A    
N7    O61   1.301400 A    
C30   C46   1.397113 A    
C87   C119  1.394852 A    
C36   C50   1.397412 A    
C7    C111  1.445771 S    
C127  C143  1.392874 A    
C155  C170  1.444211 S    
C75   C115  1.391964 A    
C151  H47   1.084006 S    
C36   H4    1.083019 S    
C153  C172  1.444208 S    
C77   H21   1.084010 S    
C2    C106  1.455210 S    
N20   O88   1.301354 A    
C94   C108  1.417475 A    
C131  C147  1.391930 A    
C47   H15   1.084046 S    
N18   O83   1.301408 A    
C129  N41   1.440153 S    
C129  C145  1.391892 A    
N43   O134  1.301446 A    
C132  C148  1.392824 A    
C125  N37   1.442728 S    
C78   H22   1.084013 S    
O20   C10   1.281254 A    
N30   O107  1.301433 A    
C79   C115  1.391913 A    
N17   O81   1.301423 A    
O38   C170  1.274571 A    
O33   Zn9   2.018093 S    
C121  N33   1.442736 S    
N22   O92   1.301354 A    
N24   O95   1.301409 A    
N26   O100  1.301178 A    
N44   O135  1.301615 A    
C81   C117  1.394849 A    
O1    Zn1   2.013917 S    
