data_mof_unit_18235.cif
_audit_creation_date              2013-03-05T16:09:23-0500
_audit_creation_method            fapswitch 2.2
_symmetry_space_group_name_H-M    P1
_symmetry_Int_Tables_number       1
_space_group_crystal_system       triclinic
_cell_length_a                    10.621401
_cell_length_b                    9.920587
_cell_length_c                    10.686787
_cell_angle_alpha                 91.088705
_cell_angle_beta                  90.759587
_cell_angle_gamma                 89.156692
_cell_volume                      1125.65235646

loop_
_atom_site_label
_atom_site_type_symbol
_atom_site_description
_atom_site_fract_x
_atom_site_fract_y
_atom_site_fract_z
_atom_type_partial_charge
O1    O     O_R   0.316770 0.614620 0.499990 -0.577443
O2    O     O_R   0.683230 0.614620 0.500010 -0.622630
O3    O     O_R   0.316800 0.385290 0.500000 -0.593397
O4    O     O_R   0.683200 0.385290 0.500000 -0.545118
C1    C     C_R   0.260624 0.501184 0.499190 1.006161
C2    C     C_R   0.739302 0.498898 0.500881 1.014584
O5    O     O_R   0.500000 0.614630 0.319080 -0.616390
O6    O     O_R   0.500000 0.614630 0.680920 -0.609111
O7    O     O_R   0.500030 0.385300 0.319080 -0.583691
O8    O     O_R   0.499970 0.385300 0.680920 -0.604805
C3    C     C_R   0.501045 0.498767 0.262657 0.992004
C4    C     C_R   0.493251 0.501519 0.737111 1.000797
Zn1   Zn    Zn3+2 0.500000 0.653120 0.500000 1.050636
Zn2   Zn    Zn3+2 0.500000 0.346880 0.500000 1.107974
C5    C     C_2   0.445833 0.397149 0.930927 -0.048908
C6    C     C_2   0.440028 0.403340 0.065781 -0.023092
C7    C     C_2   0.472360 0.507618 0.868127 -0.219542
C8    C     C_2   0.505412 0.495596 0.130378 -0.226983
C9    C     C_R   0.063156 0.485710 0.384680 0.228110
C10   C     C_R   0.932868 0.478693 0.386477 0.191491
C11   C     C_R   0.871783 0.495714 0.501343 -0.333020
C12   C     C_R   0.128029 0.505469 0.498682 -0.334398
C13   C     C_R   0.936439 0.520594 0.614592 0.219022
C14   C     C_R   0.066794 0.524162 0.613283 0.196378
C15   C     C_R   0.556554 0.071567 0.595630 0.290942
C16   C     C_R   0.444693 0.069106 0.403779 0.323516
C17   C     C_R   0.554908 0.928458 0.595528 -0.089441
C18   C     C_R   0.445592 0.926105 0.404378 -0.087493
H1    H     H_    0.600164 0.874336 0.671166 0.196810
H2    H     H_    0.401121 0.870219 0.328347 0.202825
N1    N     N_R   0.500000 0.857200 0.500000 -0.136025
N2    N     N_R   0.500000 0.142810 0.500000 -0.195702
H3    H     H_    0.429666 0.300903 0.883810 0.217147
H4    H     H_    0.383870 0.329654 0.112366 0.244162
H5    H     H_    0.474566 0.606917 0.912506 0.172975
H6    H     H_    0.564478 0.569536 0.087460 0.170984
N3    N     N_R   0.129290 0.473099 0.268252 0.245838
O9    O     O_R   0.100705 0.378420 0.187291 -0.230745
O10   O     O_R   0.210653 0.563329 0.238270 -0.380739
N4    N     N_R   0.862111 0.463029 0.271667 0.224875
O11   O     O_R   0.874613 0.548742 0.182172 -0.273757
O12   O     O_R   0.789048 0.360067 0.254402 -0.331060
N5    N     N_R   0.870066 0.547683 0.729088 0.238308
O13   O     O_R   0.897795 0.652607 0.798424 -0.265850
O14   O     O_R   0.785058 0.465254 0.766795 -0.322503
N6    N     N_R   0.136967 0.542089 0.728190 0.221134
O15   O     O_R   0.118222 0.463191 0.821821 -0.270863
O16   O     O_R   0.211212 0.644396 0.743221 -0.349750
N7    N     N_R   0.621907 0.139476 0.695308 0.231534
O17   O     O_R   0.726913 0.198924 0.671846 -0.285587
O18   O     O_R   0.597925 0.109133 0.810379 -0.349104
N8    N     N_R   0.385349 0.134150 0.300287 0.215996
O19   O     O_R   0.283155 0.204852 0.318605 -0.331648
O20   O     O_R   0.409922 0.090728 0.187402 -0.365405

loop_
_geom_bond_atom_site_label_1
_geom_bond_atom_site_label_2
_geom_bond_distance
_ccdc_geom_bond_type
C4    C7    1.420533 S    
O7    Zn2   1.977761 S    
C3    C8    1.414745 S    
C16   N2    1.380276 A    
O6    Zn1   1.977902 S    
C16   N8    1.426023 S    
C17   H1    1.082281 S    
O7    C3    1.287302 A    
C9    N3    1.439398 S    
C16   C18   1.418685 A    
C9    C10   1.387028 A    
O6    C4    1.286088 A    
C13   C14   1.385785 A    
C14   N6    1.437513 S    
N8    O20   1.301670 A    
C15   N2    1.379661 A    
N4    O12   1.300764 A    
C13   N5    1.439161 S    
N3    O10   1.300671 A    
C6    C8    1.333595 D    
C10   C11   1.402266 A    
O5    C3    1.287774 A    
N5    O14   1.300088 A    
O2    C2    1.285651 A    
O3    Zn2   1.977288 S    
O8    C4    1.291285 A    
O1    C1    1.281161 A    
C18   H2    1.082173 S    
N4    O11   1.301147 A    
N3    O9    1.301363 A    
Zn1   N1    2.024593 S    
N6    O16   1.300692 A    
C11   C13   1.403165 A    
N5    O13   1.301235 A    
O4    Zn2   1.988296 S    
C10   N4    1.437393 S    
C12   C14   1.402246 A    
C15   C17   1.420070 A    
C17   N1    1.360513 A    
C5    C6    1.443400 S    
O5    Zn1   1.963668 S    
C9    C12   1.403618 A    
O1    Zn1   1.988791 S    
N8    O19   1.298647 A    
O4    C2    1.282432 A    
N7    O17   1.298844 A    
O8    Zn2   1.963548 S    
N7    O18   1.300922 A    
C5    C7    1.331493 D    
O2    Zn1   1.977758 S    
N6    O15   1.301206 A    
C7    H5    1.085610 S    
C6    H4    1.082843 S    
C2    C11   1.406973 S    
C8    H6    1.084428 S    
C5    H3    1.085802 S    
C18   N1    1.358219 A    
C1    C12   1.408294 S    
Zn2   N2    2.024495 S    
O3    C1    1.287650 A    
C15   N7    1.427337 S    
