data_mof_unit_18998.cif
_audit_creation_date              2012-12-11T15:46:44-0500
_audit_creation_method            fapswitch 2.2
_symmetry_space_group_name_H-M    P1
_symmetry_Int_Tables_number       1
_space_group_crystal_system       triclinic
_cell_length_a                    11.527114
_cell_length_b                    11.513088
_cell_length_c                    19.518142
_cell_angle_alpha                 90.162083
_cell_angle_beta                  89.714246
_cell_angle_gamma                 59.862574
_cell_volume                      2240.08646767

loop_
_atom_site_label
_atom_site_type_symbol
_atom_type_description
_atom_site_fract_x
_atom_site_fract_y
_atom_site_fract_z
_atom_type_partial_charge
C1    C     C_R   0.640553 0.117627 0.599159 0.559155
C2    C     C_1   0.651558 0.682486 0.663942 0.001721
C3    C     C_1   0.063629 0.234882 0.850973 -0.000654
C4    C     C_1   0.133705 0.190294 0.721676 -0.028324
C5    C     C_1   0.094322 0.213582 0.791230 -0.028012
C6    C     C_1   0.175100 0.170637 0.663531 -0.000354
C7    C     C_1   0.678845 0.191602 0.860704 0.004287
C8    C     C_1   0.658758 0.167893 0.728858 -0.030040
C9    C     C_1   0.665978 0.181472 0.800213 -0.029397
C10   C     C_1   0.653081 0.150242 0.668460 0.003295
C11   C     C_R   0.664299 0.654009 0.195664 0.016930
C12   C     C_R   0.613780 0.743105 0.597871 0.545905
C13   C     C_R   0.585426 0.621428 0.236914 0.084472
C14   C     C_R   0.583336 0.633460 0.306452 0.066131
C15   C     C_R   0.739904 0.713385 0.296824 -0.175215
C16   C     C_R   0.741263 0.702312 0.225858 -0.174080
C17   C     C_3   0.585291 0.492151 0.241123 -0.247624
C18   C     C_3   0.583545 0.505555 0.318081 -0.289519
C19   C     C_R   0.661907 0.676887 0.337475 -0.006616
C20   C     C_R   0.166940 0.187428 0.184542 -0.013659
C21   C     C_R   0.188898 0.276076 0.222881 0.017164
C22   C     C_R   0.226936 0.249009 0.289717 -0.012386
C23   C     C_R   0.238156 0.146552 0.597468 0.553103
C24   C     C_R   0.243897 0.030332 0.280007 0.012682
C25   C     C_R   0.204943 0.061068 0.211122 -0.161037
C26   C     C_3   0.098049 0.422648 0.236905 -0.248364
C27   C     C_3   0.139329 0.392668 0.310920 -0.258863
C28   C     C_R   0.248584 0.131535 0.321843 -0.017793
C29   C     C_R   0.667411 0.165921 0.187894 0.000204
C30   C     C_R   0.764806 0.048787 0.220764 -0.012156
C31   C     C_R   0.746930 0.019346 0.286567 0.049925
C32   C     C_R   0.524885 0.213434 0.287732 -0.164072
C33   C     C_R   0.541563 0.241154 0.219507 -0.163953
C34   C     C_R   0.619983 0.080543 0.394896 0.545097
C35   C     C_3   0.911630 0.996505 0.232012 -0.193799
C36   C     C_3   0.891084 0.965397 0.305004 0.162790
C37   C     C_R   0.631173 0.106081 0.322953 -0.020087
C38   C     C_R   0.025119 0.263460 0.921709 0.535072
C39   C     C_R   0.709482 0.546131 0.922701 0.537275
C40   C     C_R   0.708383 0.206681 0.930118 0.536626
C41   C     C_R   0.086136 0.234654 0.123794 0.554400
C42   C     C_R   0.683146 0.609811 0.125999 0.555641
C43   C     C_R   0.707127 0.208295 0.125943 0.538802
C44   C     C_R   0.619931 0.735585 0.403974 0.532718
C45   C     C_R   0.292637 0.117616 0.393333 0.539803
C46   C     C_1   0.699859 0.580394 0.851734 -0.004135
C47   C     C_1   0.673450 0.643575 0.722146 -0.028224
C48   C     C_1   0.690161 0.607717 0.791806 -0.029745
Cr1   Cr    Cr6+3 0.404720 0.198220 0.499960 1.013748
Cr2   Cr    Cr6+3 0.698290 0.897110 0.500380 0.992080
Cr3   Cr    Cr6+3 0.396970 0.904720 0.499610 1.066094
Cr4   Cr    Cr6+3 0.926290 0.152010 0.028150 1.026770
Cr5   Cr    Cr6+3 0.921440 0.451830 0.027490 1.027453
Cr6   Cr    Cr6+3 0.626370 0.446880 0.028730 1.029041
H1    H     H_    0.794620 0.755754 0.319868 0.211600
H2    H     H_    0.133839 0.485633 0.211830 0.149727
H3    H     H_    0.197764 0.439647 0.328794 0.135752
H4    H     H_    0.055773 0.407279 0.345341 0.148278
H5    H     H_    0.432941 0.281107 0.314292 0.141103
H6    H     H_    0.460821 0.326742 0.194057 0.125660
H7    H     H_    0.938400 0.076699 0.229077 0.103212
H8    H     H_    0.975928 0.905767 0.200343 0.177207
H9    H     H_    0.903597 0.029733 0.343663 0.114448
H10   H     H_    0.804459 0.727145 0.195306 0.149963
H11   H     H_    0.680056 0.405747 0.221364 0.136712
H12   H     H_    0.490926 0.503445 0.220208 0.152388
H13   H     H_    0.488671 0.522404 0.342154 0.145547
H14   H     H_    0.676945 0.427236 0.342797 0.131309
H15   H     H_    0.190981 0.991355 0.179677 0.179179
H16   H     H_    0.990460 0.455737 0.228916 0.156615
O1    O     O_R   0.267750 0.231960 0.575440 -0.502810
O2    O     O_R   0.685950 0.784660 0.430010 -0.543127
O3    O     O_R   0.502510 0.767000 0.423980 -0.474387
O4    O     O_R   0.288320 0.026340 0.429250 -0.440474
O5    O     O_3   0.499990 0.000020 0.499980 -0.285810
O6    O     O_R   0.821590 0.119350 0.952850 -0.506380
O7    O     O_R   0.037230 0.162540 0.957390 -0.481646
O8    O     O_R   0.056530 0.344750 0.951370 -0.497449
O9    O     O_R   0.798000 0.560370 0.957490 -0.496222
O10   O     O_R   0.596230 0.579400 0.952760 -0.486964
O11   O     O_R   0.639160 0.321170 0.958690 -0.508997
O12   O     O_R   0.527290 0.186640 0.570530 -0.486651
O13   O     O_R   0.821370 0.124220 0.104400 -0.514901
O14   O     O_R   0.037020 0.167050 0.097880 -0.505104
O15   O     O_R   0.056310 0.349620 0.102920 -0.508790
O16   O     O_R   0.797790 0.564880 0.097980 -0.505059
O17   O     O_R   0.596000 0.584270 0.104310 -0.498178
O18   O     O_R   0.638950 0.325690 0.099180 -0.505512
O19   O     O_3   0.824700 0.350240 0.028120 -0.296207
O20   O     O_R   0.728110 0.003450 0.576380 -0.505453
O21   O     O_R   0.682980 0.789190 0.570500 -0.498463
O22   O     O_R   0.499300 0.771880 0.575540 -0.502754
O23   O     O_R   0.285350 0.030870 0.569740 -0.486037
O24   O     O_R   0.270960 0.227070 0.423890 -0.531342
O25   O     O_R   0.530270 0.182120 0.430040 -0.513155
O26   O     O_R   0.731320 0.998570 0.424830 -0.516826
O27   O     O_3   0.955516 0.825235 0.316732 -0.580893
C49   C     C_3   0.042969 0.784172 0.373594 0.019137
H17   H     H_    0.039501 0.866902 0.404821 0.163397
H18   H     H_    0.146762 0.720438 0.354125 0.164827
C50   C     C_3   0.013123 0.697904 0.421321 -0.370983
H19   H     H_    0.996941 0.625208 0.391645 0.147929
H20   H     H_    0.098610 0.641789 0.456643 0.093225
H21   H     H_    0.922434 0.761796 0.452533 0.194575
C51   C     C_2   0.264113 0.897658 0.302663 0.564898
O28   O     O_2   0.245152 0.877387 0.361704 -0.522599
O29   O     O_R   0.293270 0.797809 0.253449 -0.723789
H22   H     H_    0.297850 0.714434 0.273268 0.320000

loop_
_geom_bond_atom_site_label_1
_geom_bond_atom_site_label_2
_ccdc_geom_bond_type
C21   C26   S    
C1    O20   A    
C34   C37   S    
C43   O13   A    
C14   C18   S    
C12   O21   A    
C35   C36   S    
Cr3   O4    S    
C2    C12   S    
C20   C41   S    
C15   C19   A    
C51   O29   S    
C26   C27   S    
C50   H19   S    
C30   C35   S    
C43   O18   A    
Cr5   O9    S    
Cr3   O5    S    
Cr6   O17   S    
C20   C25   A    
C18   H14   S    
C15   C16   A    
C29   C33   A    
C11   C42   S    
Cr4   O14   S    
Cr2   O2    S    
Cr2   O20   S    
C3    C38   S    
C8    C9    S    
O29   H22   S    
Cr1   O5    S    
Cr5   O16   S    
C42   O16   A    
Cr1   O24   S    
C36   H9    S    
C24   C28   A    
C50   H20   S    
C22   C28   A    
C21   C22   A    
C29   C43   S    
Cr4   O19   S    
C45   O24   A    
C40   O11   A    
O27   C49   S    
Cr6   O10   S    
C46   C48   T    
C28   C45   S    
C23   O1    A    
C24   C25   A    
Cr6   O19   S    
C4    C6    T    
C27   H3    S    
C38   O8    A    
Cr4   O6    S    
C18   H13   S    
C41   O14   A    
Cr1   O25   S    
C23   O23   A    
C31   C37   A    
C45   O4    A    
C15   H1    S    
Cr1   O12   S    
Cr4   O13   S    
C29   C30   A    
Cr3   O22   S    
C11   C16   A    
C47   C48   S    
C7    C40   S    
C17   C18   S    
C17   H12   S    
C35   H7    S    
C32   C37   A    
C34   O25   A    
C36   O27   S    
Cr3   O23   S    
C39   C46   S    
C33   H6    S    
C49   H18   S    
C22   C27   S    
Cr5   O19   S    
C26   H16   S    
C25   H15   S    
Cr4   O7    S    
C19   C44   S    
C7    C9    T    
C14   C19   A    
C12   O22   A    
C1    C10   S    
Cr3   O3    S    
C34   O26   A    
C4    C5    S    
C3    C5    T    
C27   H4    S    
C26   H2    S    
C42   O17   A    
C38   O7    A    
C2    C47   T    
C50   H21   S    
C49   C50   S    
C41   O15   A    
C51   O28   D    
C17   H11   S    
C13   C17   S    
C32   C33   A    
Cr5   O8    S    
C1    O12   A    
Cr2   O5    S    
C39   O10   A    
Cr6   O18   S    
C11   C13   A    
Cr2   O26   S    
C30   C31   A    
C6    C23   S    
C44   O2    A    
C35   H8    S    
C44   O3    A    
C40   O6    A    
Cr2   O21   S    
C20   C21   A    
C8    C10   T    
C49   H17   S    
Cr1   O1    S    
C31   C36   S    
Cr5   O15   S    
C24   C51   S    
C16   H10   S    
C32   H5    S    
C13   C14   A    
Cr6   O11   S    
C39   O9    A    
