data_mof_unit_52783.cif
_audit_creation_date              2012-12-11T15:29:58-0500
_audit_creation_method            fapswitch 2.2
_symmetry_space_group_name_H-M    P1
_symmetry_Int_Tables_number       1
_space_group_crystal_system       triclinic
_cell_length_a                    8.589481
_cell_length_b                    15.069916
_cell_length_c                    19.035233
_cell_angle_alpha                 97.151273
_cell_angle_beta                  94.405142
_cell_angle_gamma                 98.166973
_cell_volume                      2408.78484487

loop_
_atom_site_label
_atom_site_type_symbol
_atom_type_description
_atom_site_fract_x
_atom_site_fract_y
_atom_site_fract_z
_atom_type_partial_charge
Ba1   Ba    Ba6+2 0.161760 0.544680 0.467770 1.641477
Ba2   Ba    Ba6+2 0.648420 0.455310 0.532170 1.636642
C1    C     C_3   0.327376 0.786967 0.217958 -0.128487
C2    C     C_R   0.098833 0.075680 0.530278 -0.050042
C3    C     C_R   0.960542 0.890563 0.527820 -0.038781
C4    C     C_3   0.900041 0.787103 0.313708 0.375435
C5    C     C_R   0.114294 0.923245 0.559423 -0.062082
C6    C     C_R   0.183099 0.012798 0.558974 -0.072858
C7    C     C_R   0.890499 0.798184 0.525577 -0.013985
C8    C     C_R   0.734017 0.771902 0.496229 -0.288616
C9    C     C_R   0.920204 0.202463 0.476415 0.038488
C10   C     C_R   0.851164 0.109438 0.474037 -0.087351
C11   C     C_R   0.941273 0.046023 0.500463 0.000783
C12   C     C_3   0.367995 0.750633 0.287790 0.331873
C13   C     C_R   0.693026 0.078111 0.448694 -0.031468
C14   C     C_R   0.625619 0.988007 0.446221 -0.081090
C15   C     C_R   0.712981 0.923894 0.470215 -0.046981
C16   C     C_3   0.953248 0.886161 0.305902 -0.004396
C17   C     C_R   0.872099 0.953159 0.498915 0.010134
C18   C     C_R   0.644870 0.831998 0.467647 0.013965
C19   C     C_R   0.072553 0.230413 0.509996 -0.105130
C20   C     C_R   0.611118 0.551292 0.305378 -0.046927
C21   C     C_R   0.458538 0.501789 0.281836 0.103482
C22   C     C_R   0.405702 0.493961 0.209040 -0.163851
C23   C     C_3   0.421246 0.744834 0.670513 0.396881
C24   C     C_R   0.503945 0.529837 0.159732 -0.007709
C25   C     C_R   0.661857 0.566203 0.183238 -0.182577
C26   C     C_R   0.715535 0.575930 0.255179 0.004556
C27   C     C_R   0.473317 0.598414 0.043841 0.160857
C28   C     C_3   0.674198 0.243992 0.302241 0.568374
C29   C     C_R   0.425024 0.587099 0.969993 0.167030
C30   C     C_R   0.342725 0.502826 0.933912 -0.013011
C31   C     C_R   0.311226 0.429791 0.974332 0.170590
C32   C     C_R   0.363115 0.442204 0.047544 -0.134117
C33   C     C_R   0.445837 0.524253 0.082751 -0.010403
C34   C     C_3   0.416447 0.828945 0.724534 0.023364
C35   C     C_R   0.136453 0.454343 0.826505 -0.120138
C36   C     C_R   0.086173 0.453049 0.754240 0.019941
C37   C     C_R   0.344313 0.530131 0.735970 0.041621
C38   C     C_R   0.397345 0.526715 0.807172 -0.186250
C39   C     C_R   0.291855 0.493030 0.854845 0.011824
C40   C     C_3   0.704489 0.152724 0.261349 0.079011
C41   C     C_R   0.185047 0.499548 0.711523 -0.102705
C42   C     C_3   0.907149 0.738709 0.692416 0.500759
C43   C     C_3   0.926581 0.840937 0.716800 -0.085997
C44   C     C_3   0.254283 0.249587 0.337905 0.342053
C45   C     C_3   0.826755 0.209400 0.701647 0.579409
C46   C     C_3   0.232772 0.152678 0.293083 0.188561
C47   C     C_3   0.040573 0.699201 0.802916 -0.264139
C48   C     C_3   0.281582 0.067387 0.179632 -0.272112
C49   C     C_3   0.428128 0.884136 0.851311 -0.260184
C50   C     C_3   0.809579 0.869702 0.185865 -0.209592
C51   C     C_3   0.651466 0.010852 0.640870 -0.182420
C52   C     C_3   0.197267 0.051460 0.804513 -0.257663
C53   C     C_3   0.610325 0.700629 0.924099 -0.213360
C54   C     C_3   0.269637 0.263399 0.965087 -0.263919
C55   C     C_3   0.751314 0.363820 0.226685 -0.177110
C56   C     C_3   0.763745 0.128819 0.741195 0.034966
C57   C     C_3   0.359453 0.242211 0.717422 0.471492
C58   C     C_3   0.341353 0.196533 0.784733 -0.029079
C59   C     C_R   0.163569 0.168634 0.535131 -0.004772
H1    H     H_    0.262546 0.706523 0.300707 0.125097
H2    H     H_    0.302351 0.704139 0.663725 0.078557
H3    H     H_    0.512366 0.883044 0.717197 0.099213
H4    H     H_    0.302208 0.853799 0.714616 0.022724
H5    H     H_    0.249862 0.839559 0.227392 0.154685
H6    H     H_    0.857148 0.087422 0.752821 0.044157
H7    H     H_    0.730819 0.156226 0.794106 0.054586
H8    H     H_    0.249489 0.267896 0.702581 -0.005237
H9    H     H_    0.348996 0.249528 0.831288 0.052666
H10   H     H_    0.925854 0.780440 0.370759 -0.007684
H11   H     H_    0.442015 0.159087 0.793533 0.087709
H12   H     H_    0.590713 0.118192 0.232495 0.082305
H13   H     H_    0.183512 0.880603 0.585850 0.105387
H14   H     H_    0.302767 0.032133 0.582982 0.123980
H15   H     H_    0.502821 0.970139 0.425946 0.127384
H16   H     H_    0.619533 0.122171 0.427852 0.112379
H17   H     H_    0.678673 0.703335 0.497589 0.054866
H18   H     H_    0.520305 0.550160 0.825197 0.104068
H19   H     H_    0.770267 0.770022 0.299158 -0.071644
H20   H     H_    0.287828 0.459021 0.190764 0.089744
H21   H     H_    0.340112 0.386821 0.078127 0.081692
H22   H     H_    0.051095 0.428409 0.860448 0.084251
H23   H     H_    0.793844 0.718513 0.658505 0.038613
H24   H     H_    0.743251 0.587121 0.145547 0.095300
H25   H     H_    0.875695 0.928467 0.334175 0.027390
H26   H     H_    0.075151 0.907109 0.332476 0.100753
H27   H     H_    0.574909 0.230012 0.334552 0.011924
H28   H     H_    0.874502 0.113499 0.327508 0.189527
H29   H     H_    0.740140 0.028148 0.283884 0.178318
H30   H     H_    0.761845 0.180979 0.163122 0.154740
H31   H     H_    0.857259 0.103406 0.193301 0.167275
H32   H     H_    0.854303 0.622372 0.740653 0.223853
H33   H     H_    0.080911 0.770907 0.825248 0.106608
H34   H     H_    0.045397 0.865867 0.744990 0.069789
H35   H     H_    0.013759 0.661202 0.848026 0.101523
H36   H     H_    0.135061 0.670255 0.775840 0.101759
H37   H     H_    0.812123 0.932839 0.772062 0.159710
H38   H     H_    0.830719 0.842517 0.812399 0.198223
H39   H     H_    0.052586 0.286274 0.300096 0.223023
H40   H     H_    0.107685 0.324896 0.386720 0.191073
H41   H     H_    0.283646 0.653443 0.169820 0.184342
H42   H     H_    0.127320 0.708612 0.163950 0.234636
H43   H     H_    0.414288 0.104170 0.345808 0.171497
H44   H     H_    0.241167 0.088630 0.382543 0.146196
H45   H     H_    0.917569 0.876235 0.669473 0.027915
H46   H     H_    0.273295 0.203241 0.197713 0.211109
H47   H     H_    0.355960 0.073841 0.134800 0.094342
H48   H     H_    0.156325 0.049014 0.157186 0.099159
H49   H     H_    0.317726 0.012751 0.208386 0.151384
H50   H     H_    0.576931 0.808018 0.610193 0.124138
H51   H     H_    0.461182 0.715574 0.566920 0.197702
H52   H     H_    0.372819 0.749876 0.805377 0.183407
H53   H     H_    0.507648 0.945800 0.842469 0.104993
H54   H     H_    0.465180 0.866401 0.904215 0.119696
H55   H     H_    0.304670 0.897845 0.851419 0.088297
H56   H     H_    0.321860 0.250333 0.390344 0.025121
H57   H     H_    0.998411 0.967939 0.228061 0.191535
H58   H     H_    0.819540 0.895906 0.134127 0.093816
H59   H     H_    0.706459 0.892776 0.210085 0.082054
H60   H     H_    0.791067 0.794776 0.175111 0.144057
H61   H     H_    0.768183 0.215140 0.593493 0.165241
H62   H     H_    0.655154 0.267039 0.648639 0.266654
H63   H     H_    0.014431 0.244245 0.645987 0.115691
H64   H     H_    0.966652 0.132143 0.646185 0.148922
H65   H     H_    0.555368 0.037666 0.736542 0.180198
H66   H     H_    0.705869 0.049384 0.601093 0.134704
H67   H     H_    0.104861 0.127961 0.279003 0.084426
H68   H     H_    0.536807 0.972628 0.615664 0.104406
H69   H     H_    0.728999 0.962418 0.655483 0.079755
H70   H     H_    0.441716 0.369330 0.765961 0.130864
H71   H     H_    0.577008 0.302125 0.764471 0.192214
H72   H     H_    0.104412 0.170745 0.800771 0.214564
H73   H     H_    0.075650 0.015512 0.804775 0.096972
H74   H     H_    0.256276 0.060944 0.859527 0.088962
H75   H     H_    0.262159 0.009859 0.768214 0.124695
H76   H     H_    0.153159 0.343372 0.578353 0.144618
H77   H     H_    0.229081 0.340287 0.496322 0.197500
H78   H     H_    0.466661 0.710841 0.281058 -0.044650
H79   H     H_    0.361945 0.671660 0.895817 0.185730
H80   H     H_    0.623331 0.702471 0.866707 0.130500
H81   H     H_    0.695919 0.659016 0.944818 0.115020
H82   H     H_    0.640577 0.770610 0.952442 0.118114
H83   H     H_    0.471110 0.733572 0.064917 0.205969
H84   H     H_    0.548549 0.692628 0.132983 0.166314
H85   H     H_    0.103152 0.344032 0.942301 0.191401
H86   H     H_    0.208555 0.203660 0.928410 0.113556
H87   H     H_    0.232556 0.254619 0.018707 0.094510
H88   H     H_    0.399354 0.264964 0.964922 0.115216
H89   H     H_    0.437532 0.820081 0.199451 0.086911
H90   H     H_    0.016081 0.553387 0.658529 0.197987
H91   H     H_    0.089669 0.472772 0.608413 0.210951
H92   H     H_    0.698322 0.650260 0.382282 0.104192
H93   H     H_    0.578935 0.578205 0.412573 0.227329
H94   H     H_    0.543682 0.270687 0.210638 0.178155
H95   H     H_    0.701043 0.395155 0.182332 0.072868
H96   H     H_    0.847900 0.329430 0.206879 0.116611
H97   H     H_    0.803382 0.416702 0.271183 0.139709
N1    N     N_3   0.754744 0.093870 0.310656 -0.538538
N2    N     N_2   0.437294 0.809604 0.796935 -0.392741
N3    N     N_2   0.953520 0.901951 0.232158 -0.408509
N4    N     N_3   0.714168 0.212115 0.640490 -0.418504
N5    N     N_3   0.979359 0.195001 0.677739 -0.510503
N6    N     N_2   0.625669 0.070350 0.703259 -0.394174
N7    N     N_3   0.484508 0.319902 0.733198 -0.457389
N8    N     N_2   0.191331 0.137802 0.779930 -0.403248
N9    N     N_3   0.130028 0.324987 0.523577 -0.463653
N10   N     N_2   0.448742 0.664814 0.934177 -0.434343
N11   N     N_3   0.545126 0.687420 0.077878 -0.505064
N12   N     N_3   0.820217 0.165382 0.209227 -0.508516
N13   N     N_2   0.223244 0.344900 0.942084 -0.423690
N14   N     N_3   0.119591 0.527740 0.647921 -0.462167
N15   N     N_3   0.665801 0.580398 0.378781 -0.439328
N16   N     N_2   0.627880 0.301945 0.250885 -0.433749
N17   N     N_2   0.900229 0.689376 0.753726 -0.411752
N18   N     N_3   0.804621 0.862579 0.762748 -0.481842
N19   N     N_3   0.098100 0.268844 0.348251 -0.526729
N20   N     N_3   0.249441 0.715508 0.161912 -0.522030
N21   N     N_3   0.292577 0.086799 0.334386 -0.505528
N22   N     N_2   0.303568 0.153032 0.225943 -0.418591
N23   N     N_3   0.461103 0.773665 0.603053 -0.482238
O1    O     O_2   0.165020 0.721890 0.541560 -0.437906
O2    O     O_2   0.766408 0.447551 0.748408 -0.478004
O3    O     O_3   0.845677 0.289652 0.751663 -0.633101
O4    O     O_3   0.893030 0.608480 0.539180 -0.464093
O5    O     O_3   0.426670 0.454500 0.415370 -0.495354
O6    O     O_2   0.638230 0.542350 0.670940 -0.448781
O7    O     O_3   0.536381 0.695950 0.694948 -0.640213
O8    O     O_2   0.481794 0.171336 0.533260 -0.498181
O9    O     O_3   0.397308 0.179009 0.662494 -0.575006
O10   O     O_3   0.389120 0.667500 0.413900 -0.517617
O11   O     O_2   0.316950 0.826697 0.466607 -0.466708
O12   O     O_3   0.332894 0.315506 0.301254 -0.646167
O13   O     O_3   0.034796 0.718047 0.654667 -0.670832
O14   O     O_3   0.413290 0.824356 0.341601 -0.627682
O15   O     O_2   0.172060 0.457600 0.329040 -0.471700
O16   O     O_3   0.964390 0.622060 0.377370 -0.438648
O17   O     O_2   0.041630 0.563820 0.249006 -0.509091
O18   O     O_3   0.981812 0.731091 0.270094 -0.618139
O19   O     O_2   0.645270 0.278050 0.458420 -0.495351
O20   O     O_3   0.917270 0.391510 0.460760 -0.423801
O21   O     O_3   0.421180 0.332490 0.586040 -0.470974
O22   O     O_3   0.810167 0.289739 0.344639 -0.622711
O23   O     O_3   0.383630 0.545490 0.584580 -0.459557
O24   O     O_3   0.845910 0.377930 0.622570 -0.505481
P1    P     P_3+3 0.990700 0.707490 0.561920 0.972507
P2    P     P_3+3 0.340130 0.430100 0.338870 0.985312
P3    P     P_3+3 0.925532 0.619960 0.285797 0.941213
P4    P     P_3+3 0.819590 0.292500 0.438020 1.012574
P5    P     P_3+3 0.888952 0.392626 0.716397 0.905990
P6    P     P_3+3 0.442129 0.785779 0.424182 0.920415
P7    P     P_3+3 0.474544 0.579225 0.673084 0.962530
P8    P     P_3+3 0.363692 0.214446 0.578617 0.930659

loop_
_geom_bond_atom_site_label_1
_geom_bond_atom_site_label_2
_ccdc_geom_bond_type
H79   N10   S    
C12   O14   S    
H57   N3    S    
O12   P2    S    
H46   N22   S    
C40   N1    S    
Ba2   O21   S    
C42   N17   S    
C48   H49   S    
C2    C6    A    
C56   N6    S    
C55   H97   S    
C8    H17   S    
C5    C6    A    
Ba1   O5    S    
C42   C43   S    
O2    P5    D    
C3    C7    A    
C28   O22   S    
C24   C25   A    
C2    C11   A    
O5    P2    S    
Ba2   O19   S    
C1    N20   S    
C52   N8    S    
C32   C33   A    
C7    P1    S    
C4    O18   S    
H91   N14   S    
C16   N3    S    
H43   N21   S    
C58   H11   S    
C13   C14   A    
C52   H73   S    
H92   N15   S    
C49   N2    S    
H50   N23   S    
C15   C18   A    
Ba1   Ba2   S    
C23   H2    S    
C18   P6    S    
H29   N1    S    
C25   H24   S    
Ba2   O6    S    
C40   N12   S    
C45   N4    S    
H38   N18   S    
C8    C18   A    
C14   C15   A    
C40   H12   S    
O16   P3    S    
C21   C22   A    
C47   H33   S    
C51   H66   S    
C7    C8    A    
C19   C59   A    
H30   N12   S    
C50   N3    S    
H63   N5    S    
C45   N5    S    
Ba1   O20   S    
C57   C58   S    
H52   N2    S    
C53   H81   S    
C20   C26   A    
H85   N13   S    
C48   H47   S    
C44   N19   S    
H64   N5    S    
Ba2   O20   S    
C59   P8    S    
C53   N10   S    
H44   N21   S    
H65   N6    S    
H39   N19   S    
O4    P1    S    
O20   P4    S    
C23   N23   S    
H28   N1    S    
C5    H13   S    
C44   C46   S    
C4    H10   S    
O13   P1    S    
C55   H95   S    
H84   N11   S    
C4    C16   S    
C49   H53   S    
C53   H82   S    
C11   C17   A    
O17   P3    D    
Ba1   O15   S    
Ba2   O23   S    
H71   N7    S    
C43   N18   S    
H31   N12   S    
C37   C38   A    
C3    C5    A    
H62   N4    S    
C34   H4    S    
C45   O3    S    
C37   C41   A    
C2    C59   A    
C9    C19   A    
C6    H14   S    
C49   H54   S    
H90   N14   S    
O19   P4    D    
C44   H56   S    
H77   N9    S    
O1    P1    D    
C54   H87   S    
C48   N22   S    
C22   H20   S    
Ba2   O5    S    
O11   P6    D    
O14   P6    S    
C35   C36   A    
C23   O7    S    
C46   H67   S    
H37   N18   S    
C50   H60   S    
C24   C33   S    
C4    H19   S    
C29   C30   A    
C10   C13   A    
C58   H9    S    
C41   N14   S    
C52   H75   S    
O23   P7    S    
C46   N22   S    
C31   C32   A    
C38   H18   S    
Ba2   O24   S    
C16   H25   S    
C36   P5    S    
Ba1   P1    S    
C1    C12   S    
O8    P8    D    
C57   H8    S    
C47   H35   S    
Ba1   O10   S    
H94   N16   S    
C56   H7    S    
C38   C39   A    
C54   N13   S    
C26   P3    S    
Ba2   P4    S    
C1    H5    S    
C51   H68   S    
C30   C39   S    
C28   H27   S    
C43   H34   S    
C50   H59   S    
H76   N9    S    
C20   N15   S    
C43   H45   S    
C44   O12   S    
C31   N13   S    
C55   H96   S    
C1    H89   S    
H93   N15   S    
C21   P2    S    
C14   H15   S    
C53   H80   S    
Ba1   O16   S    
C49   H55   S    
C22   C24   A    
O6    P7    D    
C42   H23   S    
C57   N7    S    
Ba1   O1    S    
C51   N6    S    
O3    P5    S    
H51   N23   S    
C3    C17   A    
Ba1   O4    S    
C27   C33   A    
C42   O13   S    
C16   H26   S    
H61   N4    S    
H42   N20   S    
C27   N11   S    
C30   C31   A    
O15   P2    D    
Ba2   O4    S    
C35   H22   S    
C36   C41   A    
C27   C29   A    
H72   N8    S    
C9    P4    S    
C45   C56   S    
O7    P7    S    
C13   H16   S    
O24   P5    S    
C54   H86   S    
H41   N20   S    
C52   H74   S    
H83   N11   S    
O18   P3    S    
C15   C17   A    
H32   N17   S    
C37   P7    S    
C28   C40   S    
C19   N9    S    
C48   H48   S    
O21   P8    S    
C35   C39   A    
Ba1   P2    S    
O9    P8    S    
C58   N8    S    
C12   H78   S    
H40   N19   S    
C34   N2    S    
C23   C34   S    
C47   H36   S    
C55   N16   S    
C50   H58   S    
C56   H6    S    
C29   N10   S    
H70   N7    S    
C25   C26   A    
C20   C21   A    
O22   P4    S    
C57   O9    S    
C51   H69   S    
C32   H21   S    
C10   C11   A    
C54   H88   S    
C34   H3    S    
Ba1   O23   S    
C28   N16   S    
C46   N21   S    
C9    C10   A    
O10   P6    S    
C47   N17   S    
C12   H1    S    
