data_mof_unit_20369.cif
_audit_creation_date              2012-12-10T18:09:53-0500
_audit_creation_method            fapswitch 2.2
_symmetry_space_group_name_H-M    P1
_symmetry_Int_Tables_number       1
_space_group_crystal_system       triclinic
_cell_length_a                    10.646181
_cell_length_b                    12.768166
_cell_length_c                    13.152119
_cell_angle_alpha                 81.584548
_cell_angle_beta                  93.465083
_cell_angle_gamma                 102.246937
_cell_volume                      1727.5001633

loop_
_atom_site_label
_atom_site_type_symbol
_atom_type_description
_atom_site_fract_x
_atom_site_fract_y
_atom_site_fract_z
_atom_type_partial_charge
C1    C     C_R   0.483452 0.439248 0.691265 0.875100
C2    C     C_R   0.567970 0.485536 0.956986 0.036026
C3    C     C_R   0.487895 0.482033 0.867773 0.005574
C4    C     C_R   0.741246 0.501745 0.497993 0.834402
C5    C     C_R   0.552678 0.556592 0.026812 0.067332
C6    C     C_R   0.492621 0.645425 0.990578 0.089851
C7    C     C_R   0.424693 0.646913 0.896175 -0.222650
C8    C     C_R   0.412052 0.560587 0.841355 -0.138336
C9    C     C_R   0.572323 0.531271 0.134175 -0.053323
C10   C     C_R   0.514210 0.700038 0.159474 -0.212941
C11   C     C_R   0.491672 0.404544 0.802521 -0.156489
C12   C     C_3   0.120440 0.499042 0.498377 0.029019
C13   C     C_R   0.294600 0.090186 0.360822 0.391495
C14   C     C_R   0.652974 0.795995 0.632842 -0.033567
C15   C     C_R   0.677829 0.895229 0.668739 -0.079850
C16   C     C_R   0.520891 0.560690 0.309434 0.880163
C17   C     C_R   0.615772 0.976042 0.621380 -0.122200
C18   C     C_R   0.530212 0.959720 0.535481 -0.022910
C19   C     C_R   0.501744 0.854705 0.505719 0.164501
C20   C     C_R   0.468228 0.041653 0.480633 -0.068576
C21   C     C_R   0.363282 0.012678 0.410830 -0.067968
C22   C     C_R   0.329261 0.907436 0.391021 -0.343161
C23   C     C_3   0.053182 0.459148 0.397675 -0.253098
C24   C     C_R   0.404413 0.832902 0.427919 0.429903
C25   C     C_R   0.505247 0.151818 0.491359 0.517895
C26   C     C_R   0.329326 0.194328 0.383349 -0.074415
C27   C     C_R   0.258381 0.499437 0.499338 0.908468
C28   C     C_3   0.913802 0.431629 0.595048 -0.503238
C29   C     C_3   0.057491 0.424111 0.595655 0.383574
C30   C     C_3   0.908013 0.456432 0.400112 -0.406535
C31   C     C_3   0.958907 0.620832 0.496361 -0.171237
C32   C     C_3   0.878145 0.503640 0.496495 0.051223
C33   C     C_1   0.109127 0.526452 0.303463 0.203912
C34   C     C_3   0.101270 0.616866 0.502147 -0.383565
C35   C     C_1   0.447133 0.823416 0.017586 0.158789
C36   C     C_1   0.604305 0.428375 0.178374 0.287251
C37   C     C_1   0.521639 0.217729 0.795150 0.232932
C38   C     C_1   0.763988 0.913152 0.756136 0.181876
C39   C     C_1   0.067125 0.309637 0.595590 0.155798
C40   C     C_1   0.929552 0.695722 0.405090 0.204378
C41   C     C_R   0.488648 0.723527 0.054868 0.006331
C42   C     C_R   0.540562 0.599097 0.199994 -0.145342
C43   C     C_R   0.550913 0.317206 0.839332 -0.054992
C44   C     C_R   0.642269 0.328352 0.919476 -0.308984
C45   C     C_R   0.661132 0.419522 0.970969 0.432271
H1    H     H_    0.849880 0.349730 0.600677 0.187787
H2    H     H_    0.246856 0.882385 0.341445 0.171753
H3    H     H_    0.699017 0.731650 0.669352 0.146655
H4    H     H_    0.632128 0.048148 0.657250 0.212696
H5    H     H_    0.855429 0.370827 0.402939 0.218205
H6    H     H_    0.066100 0.375712 0.393419 0.162939
H7    H     H_    0.937391 0.654061 0.565607 0.158642
H8    H     H_    0.144362 0.646160 0.574761 0.217558
H9    H     H_    0.826789 0.394981 0.029050 0.340830
H10   H     H_    0.220304 0.024059 0.242399 0.339350
H11   H     H_    0.600424 0.245014 0.581822 0.366096
H12   H     H_    0.152611 0.673631 0.438671 0.190181
H13   H     H_    0.323498 0.743227 0.323624 0.309410
H14   H     H_    0.079687 0.413049 0.745912 0.339410
H15   H     H_    0.872394 0.501304 0.328863 0.185901
H16   H     H_    0.500680 0.756237 0.209993 0.189530
H17   H     H_    0.370695 0.709060 0.869126 0.165766
H18   H     H_    0.701855 0.268770 0.939057 0.159512
H19   H     H_    0.894339 0.466797 0.663744 0.182393
H20   H     H_    0.345938 0.557912 0.775464 0.203724
H21   H     H_    0.276510 0.255081 0.349267 0.174789
N1    N     N_R   0.433240 0.222190 0.444680 -0.186117
N2    N     N_R   0.566070 0.776970 0.554790 -0.118268
N3    N     N_1   0.152906 0.578891 0.229679 -0.199294
N4    N     N_1   0.414026 0.903389 0.987778 -0.180485
N5    N     N_1   0.629197 0.346533 0.214157 -0.176968
N6    N     N_1   0.496038 0.137014 0.761178 -0.214637
N7    N     N_1   0.833108 0.927521 0.826394 -0.171533
N8    N     N_1   0.074588 0.220512 0.595584 -0.172110
N9    N     N_1   0.906551 0.754114 0.333834 -0.169043
O1    O     O_R   0.468120 0.366740 0.627160 -0.625768
O2    O     O_3   0.194359 0.067692 0.290698 -0.747616
O3    O     O_3   0.618150 0.190746 0.541555 -0.790251
O4    O     O_3   0.382740 0.740044 0.384735 -0.733120
O5    O     O_3   0.121418 0.460305 0.685134 -0.814243
O6    O     O_R   0.510770 0.544830 0.662520 -0.618823
O7    O     O_R   0.663880 0.410950 0.482330 -0.609776
O8    O     O_R   0.706530 0.589040 0.517700 -0.633070
O9    O     O_R   0.489230 0.455170 0.337480 -0.620885
O10   O     O_R   0.531880 0.633260 0.372840 -0.536485
O11   O     O_R   0.293470 0.410960 0.482300 -0.639826
O12   O     O_R   0.336120 0.589050 0.517670 -0.557859
O13   O     O_3   0.771783 0.448581 0.029747 -0.766591
Zn1   Zn    Zn3+2 0.471520 0.381090 0.476390 0.964215
Zn2   Zn    Zn3+2 0.528480 0.618910 0.523610 0.990740

loop_
_geom_bond_atom_site_label_1
_geom_bond_atom_site_label_2
_ccdc_geom_bond_type
C30   C32   S    
C12   C29   S    
C10   C42   A    
C25   N1    A    
N1    Zn1   S    
C31   H7    S    
C7    C8    A    
C15   C38   S    
C29   O5    S    
C12   C23   S    
C28   H1    S    
C9    C42   A    
O7    Zn1   S    
C26   N1    A    
C28   C29   S    
C5    C6    A    
H10   O2    S    
C20   C25   A    
C1    O6    A    
C16   O9    A    
H11   O3    S    
C31   C40   S    
C18   C19   A    
C39   N8    T    
C35   N4    T    
C23   C33   S    
C6    C41   A    
C30   H15   S    
C34   H12   S    
N2    Zn2   S    
C11   C43   A    
C36   N5    T    
C33   N3    T    
O1    Zn1   S    
C22   H2    S    
C30   H5    S    
C8    H20   S    
C44   H18   S    
C21   C22   A    
C10   C41   A    
C2    C45   A    
C13   O2    S    
C12   C27   S    
C25   O3    S    
C26   H21   S    
C23   C30   S    
C28   C32   S    
C45   O13   S    
C3    C8    A    
C17   H4    S    
C14   H3    S    
C37   C43   S    
C27   O11   A    
C43   C44   A    
C7    H17   S    
C5    C9    A    
C9    C36   S    
C24   O4    S    
C23   H6    S    
C31   C32   S    
C29   C39   S    
C17   C18   A    
C31   C34   S    
C13   C21   A    
C19   N2    A    
C27   O12   A    
C4    C32   S    
H13   O4    S    
O6    Zn2   S    
C28   H19   S    
C16   O10   A    
C22   C24   A    
C13   C26   A    
C37   N6    T    
C10   H16   S    
O9    Zn1   S    
C12   C34   S    
C16   C42   S    
C44   C45   A    
C15   C17   A    
O8    Zn2   S    
C1    O1    A    
O11   Zn1   S    
H14   O5    S    
O10   Zn2   S    
C6    C7    A    
C40   N9    T    
C2    C3    A    
H9    O13   S    
C4    O8    A    
C19   C24   A    
C18   C20   A    
C35   C41   S    
C3    C11   A    
C2    C5    A    
C4    O7    A    
C20   C21   A    
C34   H8    S    
O12   Zn2   S    
C14   N2    A    
C14   C15   A    
C1    C11   S    
C38   N7    T    
