data_mof_unit_5317.cif
_audit_creation_date              2012-10-26T20:07:47-0400
_audit_creation_method            fapswitch 2.2
_symmetry_space_group_name_H-M    P1
_symmetry_Int_Tables_number       1
_space_group_crystal_system       triclinic
_cell_length_a                    9.540902
_cell_length_b                    10.751609
_cell_length_c                    17.097186
_cell_angle_alpha                 88.984356
_cell_angle_beta                  93.491497
_cell_angle_gamma                 90.228289
_cell_volume                      1750.29233802

loop_
_atom_site_label
_atom_site_type_symbol
_atom_type_description
_atom_site_fract_x
_atom_site_fract_y
_atom_site_fract_z
_atom_type_partial_charge
C1    C     C_R   0.499806 0.262652 0.499779 0.617759
C2    C     C_R   0.070510 0.580659 0.453012 -0.010494
C3    C     C_R   0.517124 0.499336 0.650803 0.549720
C4    C     C_R   0.482887 0.501401 0.349183 0.557239
C5    C     C_R   0.526658 0.500814 0.736527 0.007683
C6    C     C_R   0.473507 0.502649 0.263419 0.012291
C7    C     C_R   0.409542 0.534335 0.776946 -0.166309
C8    C     C_R   0.590981 0.471227 0.222701 -0.162950
C9    C     C_R   0.416824 0.533215 0.858366 -0.094356
C10   C     C_R   0.583987 0.474845 0.141309 -0.096237
C11   C     C_R   0.542527 0.498589 0.900834 0.227226
C12   C     C_R   0.500031 0.737388 0.500339 0.549908
C13   C     C_R   0.458216 0.509996 0.099084 0.226802
C14   C     C_R   0.659948 0.467560 0.860243 -0.116862
C15   C     C_R   0.340618 0.539625 0.139939 -0.117306
C16   C     C_R   0.652564 0.468814 0.778639 -0.166439
C17   C     C_R   0.347742 0.535886 0.221564 -0.166478
C18   C     C_R   0.521284 0.067150 0.430185 0.107329
C19   C     C_R   0.474446 0.933432 0.570105 0.098385
C20   C     C_3   0.693104 0.151594 0.345944 -0.282616
C21   C     C_3   0.311669 0.839087 0.657340 -0.305432
C22   C     C_3   0.401264 0.845496 0.315145 -0.314675
C23   C     C_R   0.517405 0.937190 0.429682 0.095666
C24   C     C_3   0.590533 0.158221 0.683999 -0.294877
C25   C     C_3   0.131478 0.334871 0.679064 -0.309382
C26   C     C_3   0.872227 0.663153 0.320047 -0.322348
C27   C     C_R   0.476416 0.063681 0.569950 0.108280
C28   C     C_R   0.499152 0.871274 0.500313 -0.014294
C29   C     C_R   0.499864 0.128849 0.500060 0.007209
C30   C     C_R   0.078852 0.419355 0.547853 0.238477
C31   C     C_R   0.921317 0.580218 0.451896 0.246199
C32   C     C_R   0.929612 0.419286 0.547030 -0.013644
Cu1   Cu    Cu3+1 0.640660 0.500020 0.500000 0.947443
Cu2   Cu    Cu3+1 0.359340 0.499980 0.500000 0.955596
H1    H     H_    0.688065 0.442723 0.253718 0.119543
H2    H     H_    0.124430 0.645582 0.416185 0.110056
H3    H     H_    0.487396 0.108058 0.311694 0.267609
H4    H     H_    0.703397 0.213085 0.293772 0.131600
H5    H     H_    0.740490 0.059921 0.334508 0.150375
H6    H     H_    0.751431 0.194703 0.396768 0.168148
H7    H     H_    0.520835 0.790284 0.650839 0.253580
H8    H     H_    0.268453 0.765372 0.618143 0.173213
H9    H     H_    0.244965 0.923236 0.649008 0.135583
H10   H     H_    0.306983 0.805748 0.718939 0.136514
H11   H     H_    0.598643 0.798583 0.362916 0.271440
H12   H     H_    0.312569 0.562537 0.745660 0.115604
H13   H     H_    0.423165 0.807035 0.257318 0.147154
H14   H     H_    0.336606 0.930594 0.305085 0.143868
H15   H     H_    0.341008 0.775330 0.347881 0.150320
H16   H     H_    0.385919 0.093618 0.675619 0.265358
H17   H     H_    0.568446 0.213413 0.736075 0.141490
H18   H     H_    0.660896 0.213694 0.647393 0.152360
H19   H     H_    0.644296 0.070865 0.704190 0.152948
H20   H     H_    0.154502 0.244286 0.574579 0.239023
H21   H     H_    0.218589 0.286599 0.713085 0.158014
H22   H     H_    0.031612 0.286024 0.690138 0.095569
H23   H     H_    0.676911 0.449960 0.111872 0.130730
H24   H     H_    0.126128 0.431994 0.699669 0.144435
H25   H     H_    0.844375 0.754165 0.423877 0.234278
H26   H     H_    0.785345 0.709476 0.284724 0.151188
H27   H     H_    0.880774 0.565959 0.299973 0.146817
H28   H     H_    0.971382 0.713783 0.309890 0.103392
H29   H     H_    0.324152 0.559331 0.887636 0.130489
H30   H     H_    0.757231 0.441294 0.892117 0.112082
H31   H     H_    0.243293 0.566342 0.108275 0.112216
H32   H     H_    0.744532 0.442822 0.748603 0.118447
H33   H     H_    0.255593 0.560629 0.251830 0.117388
H34   H     H_    0.875823 0.354285 0.583876 0.108062
N1    N     N_2   0.555607 0.493247 0.983859 -0.255574
N2    N     N_2   0.843226 0.665273 0.402173 -0.466350
N3    N     N_2   0.445041 0.516165 0.016053 -0.255392
N4    N     N_R   0.852070 0.500030 0.499980 -0.226480
N5    N     N_R   0.147930 0.499970 0.500020 -0.230554
N6    N     N_2   0.546191 0.136854 0.360649 -0.501289
N7    N     N_2   0.456099 0.866378 0.641555 -0.513284
N8    N     N_2   0.532518 0.874089 0.358034 -0.522949
N9    N     N_2   0.460024 0.130130 0.640303 -0.498983
N10   N     N_2   0.157257 0.333025 0.596548 -0.446218
O1    O     O_R   0.618740 0.319660 0.500000 -0.517442
O2    O     O_R   0.381260 0.680340 0.500000 -0.519779
O3    O     O_R   0.381170 0.319630 0.500010 -0.466726
O4    O     O_R   0.618830 0.680370 0.499990 -0.491409
O5    O     O_R   0.631780 0.498870 0.613920 -0.518720
O6    O     O_R   0.368220 0.501130 0.386080 -0.515805
O7    O     O_R   0.394210 0.498840 0.613930 -0.470060
O8    O     O_R   0.605790 0.501160 0.386070 -0.470394

loop_
_geom_bond_atom_site_label_1
_geom_bond_atom_site_label_2
_ccdc_geom_bond_type
C24   H18   S    
C22   H14   S    
H3    N6    S    
C3    O7    A    
C25   H22   S    
C22   N8    S    
C23   N8    S    
C32   N4    A    
C12   C28   S    
H11   N8    S    
C26   H27   S    
C20   H6    S    
C11   C14   A    
C20   H5    S    
C4    O8    A    
C1    O3    A    
C15   H31   S    
C20   H4    S    
C27   C29   A    
C7    C9    A    
N1    N3    D    
C5    C16   A    
Cu1   N4    S    
Cu2   O2    S    
C21   H9    S    
C31   N2    S    
Cu2   O3    S    
C19   C27   A    
Cu1   O4    S    
C32   H34   S    
C24   H17   S    
C22   H13   S    
C18   N6    S    
Cu2   O6    S    
C17   H33   S    
C12   O4    A    
C25   N10   S    
C7    H12   S    
C10   H23   S    
C4    C6    S    
C5    C7    A    
C30   N5    A    
Cu1   O1    S    
C6    C8    A    
C13   N3    S    
C27   N9    S    
C24   H19   S    
C18   C23   A    
C2    C31   A    
Cu2   O7    S    
Cu1   O8    S    
H7    N7    S    
C21   H10   S    
C9    C11   A    
C4    O6    A    
C14   H30   S    
C1    C29   S    
Cu1   Cu2   S    
C20   N6    S    
C18   C29   A    
C23   C28   A    
C19   C28   A    
Cu1   O5    S    
C2    N5    A    
C22   H15   S    
C31   N4    A    
C13   C15   A    
C3    O5    A    
C1    O1    A    
C14   C16   A    
C16   H32   S    
C25   H24   S    
H16   N9    S    
C2    H2    S    
C15   C17   A    
C6    C17   A    
C9    H29   S    
C25   H21   S    
C3    C5    S    
C10   C13   A    
C11   N1    S    
C21   N7    S    
C19   N7    S    
C26   H28   S    
C30   C32   A    
C26   N2    S    
C12   O2    A    
H25   N2    S    
Cu2   N5    S    
C21   H8    S    
C30   N10   S    
C24   N9    S    
C8    C10   A    
C26   H26   S    
C8    H1    S    
H20   N10   S    
