data_mof_unit_12075.cif
_audit_creation_date              2013-03-05T15:47:08-0500
_audit_creation_method            fapswitch 2.2
_symmetry_space_group_name_H-M    P1
_symmetry_Int_Tables_number       1
_space_group_crystal_system       triclinic
_cell_length_a                    19.6389
_cell_length_b                    11.30478
_cell_length_c                    18.714261
_cell_angle_alpha                 90.000041
_cell_angle_beta                  91.473664
_cell_angle_gamma                 89.99997
_cell_volume                      4153.4433362

loop_
_atom_site_label
_atom_site_type_symbol
_atom_site_description
_atom_site_fract_x
_atom_site_fract_y
_atom_site_fract_z
_atom_type_partial_charge
O1    O     O_R   0.957210 0.449410 0.665480 -0.475706
O2    O     O_R   0.042790 0.449410 0.334520 -0.476430
O3    O     O_R   0.457210 0.949410 0.665480 -0.476426
O4    O     O_R   0.542790 0.949410 0.334520 -0.475709
O5    O     O_R   0.820730 0.541240 0.668250 -0.527583
O6    O     O_R   0.179270 0.541240 0.331750 -0.527420
O7    O     O_R   0.320730 0.041240 0.668250 -0.527420
O8    O     O_R   0.679270 0.041240 0.331750 -0.527583
C1    C     C_R   0.760771 0.524903 0.639534 0.553609
C2    C     C_R   0.239230 0.524904 0.360466 0.553669
C3    C     C_R   0.260771 0.024904 0.639534 0.553668
C4    C     C_R   0.739229 0.024904 0.360466 0.553610
O9    O     O_R   0.714240 0.455060 0.663710 -0.521317
O10   O     O_R   0.285760 0.455060 0.336290 -0.521310
O11   O     O_R   0.214240 0.955060 0.663710 -0.521311
O12   O     O_R   0.785760 0.955060 0.336290 -0.521316
O13   O     O_R   0.736780 0.204870 0.675910 -0.496684
O14   O     O_R   0.263220 0.204870 0.324090 -0.496560
O15   O     O_R   0.236780 0.704870 0.675910 -0.496559
O16   O     O_R   0.763220 0.704870 0.324090 -0.496684
C5    C     C_R   0.772335 0.118016 0.650761 0.566948
C6    C     C_R   0.227664 0.118017 0.349239 0.567189
C7    C     C_R   0.272335 0.618017 0.650761 0.567189
C8    C     C_R   0.727665 0.618016 0.349239 0.566949
O17   O     O_R   0.833070 0.087590 0.673490 -0.538647
O18   O     O_R   0.166930 0.087590 0.326510 -0.538510
O19   O     O_R   0.333070 0.587590 0.673490 -0.538510
O20   O     O_R   0.666930 0.587590 0.326510 -0.538647
O21   O     O_R   0.946890 0.246800 0.676300 -0.479819
O22   O     O_R   0.053110 0.246800 0.323700 -0.480718
O23   O     O_R   0.446890 0.746800 0.676300 -0.480720
O24   O     O_R   0.553110 0.746800 0.323700 -0.479816
C9    C     C_R   0.947366 0.344584 0.637275 0.578822
C10   C     C_R   0.052632 0.344584 0.362724 0.578457
C11   C     C_R   0.447368 0.844584 0.637276 0.578455
C12   C     C_R   0.552634 0.844584 0.362725 0.578824
O25   O     O_R   0.956650 0.457120 0.827980 -0.513063
O26   O     O_R   0.043350 0.457120 0.172020 -0.514934
O27   O     O_R   0.456650 0.957120 0.827980 -0.514934
O28   O     O_R   0.543350 0.957120 0.172020 -0.513063
O29   O     O_R   0.820220 0.548390 0.818890 -0.510753
O30   O     O_R   0.179780 0.548390 0.181110 -0.510866
O31   O     O_R   0.320220 0.048390 0.818890 -0.510866
O32   O     O_R   0.679780 0.048390 0.181110 -0.510754
C13   C     C_R   0.761299 0.533073 0.849416 0.543087
C14   C     C_R   0.238814 0.532561 0.150661 0.544770
C15   C     C_R   0.261185 0.032561 0.849339 0.544768
C16   C     C_R   0.738701 0.033073 0.150584 0.543088
O33   O     O_R   0.713680 0.462770 0.826210 -0.526665
O34   O     O_R   0.286320 0.462770 0.173790 -0.527212
O35   O     O_R   0.213680 0.962770 0.826210 -0.527212
O36   O     O_R   0.786320 0.962770 0.173790 -0.526664
O37   O     O_R   0.736260 0.212010 0.826560 -0.502868
O38   O     O_R   0.263740 0.212010 0.173440 -0.502761
O39   O     O_R   0.236260 0.712010 0.826560 -0.502761
O40   O     O_R   0.763740 0.712010 0.173440 -0.502868
C17   C     C_R   0.774861 0.133608 0.859063 0.543892
C18   C     C_R   0.224794 0.133950 0.140666 0.545966
C19   C     C_R   0.275206 0.633951 0.859334 0.545967
C20   C     C_R   0.725139 0.633608 0.140937 0.543892
O41   O     O_R   0.832520 0.095300 0.836000 -0.532973
O42   O     O_R   0.167480 0.095300 0.164000 -0.532411
O43   O     O_R   0.332520 0.595300 0.836000 -0.532411
O44   O     O_R   0.667480 0.595300 0.164000 -0.532973
O45   O     O_R   0.946380 0.253940 0.826940 -0.505340
O46   O     O_R   0.053620 0.253940 0.173060 -0.507401
O47   O     O_R   0.446380 0.753940 0.826940 -0.507402
O48   O     O_R   0.553620 0.753940 0.173060 -0.505339
C21   C     C_R   0.968559 0.353322 0.854275 0.565770
C22   C     C_R   0.028936 0.353250 0.147415 0.566001
C23   C     C_R   0.471064 0.853250 0.852585 0.566001
C24   C     C_R   0.531441 0.853322 0.145725 0.565771
Cr1   Cr    Cr6+3 0.885690 0.492860 0.745310 1.024915
Cr2   Cr    Cr6+3 0.114310 0.492860 0.254690 1.024160
Cr3   Cr    Cr6+3 0.385690 0.992860 0.745310 1.024161
Cr4   Cr    Cr6+3 0.614310 0.992860 0.254690 1.024914
Cr5   Cr    Cr6+3 0.729880 0.332270 0.748190 1.024464
Cr6   Cr    Cr6+3 0.270120 0.332270 0.251810 1.024909
Cr7   Cr    Cr6+3 0.229880 0.832270 0.748190 1.024909
Cr8   Cr    Cr6+3 0.770120 0.832270 0.251810 1.024464
Cr9   Cr    Cr6+3 0.888120 0.178590 0.753010 1.016744
Cr10  Cr    Cr6+3 0.111880 0.178590 0.246990 1.015718
Cr11  Cr    Cr6+3 0.388120 0.678590 0.753010 1.015716
Cr12  Cr    Cr6+3 0.611880 0.678590 0.246990 1.016746
O49   O     O_3   0.834560 0.334570 0.748840 -0.306459
O50   O     O_3   0.165440 0.334570 0.251160 -0.305270
O51   O     O_3   0.334560 0.834570 0.748840 -0.305270
O52   O     O_3   0.665440 0.834570 0.251160 -0.306459
C25   C     C_3   0.689123 0.140311 0.462833 -0.247956
C26   C     C_3   0.310878 0.140310 0.537168 -0.247942
C27   C     C_3   0.189123 0.640312 0.462832 -0.247943
C28   C     C_3   0.810878 0.640309 0.537167 -0.247955
H1    H     H_    0.637698 0.122692 0.440595 0.132315
H2    H     H_    0.362302 0.122689 0.559404 0.132343
H3    H     H_    0.137699 0.622694 0.440594 0.132344
H4    H     H_    0.862303 0.622689 0.559404 0.132315
H5    H     H_    0.697989 0.229959 0.442729 0.109254
H6    H     H_    0.302012 0.229958 0.557272 0.109274
H7    H     H_    0.197990 0.729960 0.442728 0.109273
H8    H     H_    0.802012 0.729957 0.557271 0.109254
C29   C     C_3   0.690334 0.143901 0.544552 -0.232590
C30   C     C_3   0.309666 0.143902 0.455449 -0.232601
C31   C     C_3   0.190334 0.643903 0.544551 -0.232601
C32   C     C_3   0.809666 0.643901 0.455448 -0.232591
H9    H     H_    0.681946 0.233351 0.564231 0.136891
H10   H     H_    0.318054 0.233351 0.435769 0.136890
H11   H     H_    0.181946 0.733352 0.564231 0.136891
H12   H     H_    0.818054 0.733351 0.435769 0.136890
H13   H     H_    0.645570 0.095088 0.563396 0.163710
H14   H     H_    0.354430 0.095088 0.436605 0.163667
H15   H     H_    0.145570 0.595089 0.563394 0.163670
H16   H     H_    0.854430 0.595088 0.436603 0.163708
H17   H     H_    0.710985 0.876450 0.461475 0.103727
H18   H     H_    0.289016 0.876451 0.538524 0.103726
H19   H     H_    0.210983 0.376453 0.461475 0.103726
H20   H     H_    0.789016 0.376449 0.538524 0.103728
H21   H     H_    0.703992 0.919257 0.584631 0.182299
H22   H     H_    0.296007 0.919257 0.415368 0.182238
H23   H     H_    0.203993 0.419258 0.584631 0.182239
H24   H     H_    0.796007 0.419257 0.415368 0.182298
C33   C     C_3   0.750418 0.938184 0.479914 -0.231568
C34   C     C_3   0.249582 0.938184 0.520086 -0.231596
C35   C     C_3   0.250418 0.438185 0.479913 -0.231594
C36   C     C_3   0.749582 0.438183 0.520086 -0.231570
C37   C     C_3   0.812795 0.123319 0.453124 -0.253807
C38   C     C_3   0.187205 0.123321 0.546876 -0.253782
C39   C     C_3   0.312796 0.623320 0.453124 -0.253782
C40   C     C_3   0.687206 0.623320 0.546876 -0.253806
C41   C     C_3   0.746704 0.057093 0.436811 0.061925
C42   C     C_3   0.253296 0.057093 0.563189 0.061924
C43   C     C_3   0.246704 0.557094 0.436811 0.061924
C44   C     C_3   0.753296 0.557092 0.563189 0.061924
H25   H     H_    0.856858 0.077527 0.429239 0.144449
H26   H     H_    0.143142 0.077530 0.570762 0.144502
H27   H     H_    0.356859 0.577527 0.429239 0.144503
H28   H     H_    0.643143 0.577528 0.570761 0.144448
H29   H     H_    0.810204 0.213590 0.430712 0.160275
H30   H     H_    0.189797 0.213593 0.569287 0.160249
H31   H     H_    0.310205 0.713591 0.430712 0.160248
H32   H     H_    0.689797 0.713591 0.569288 0.160276
C45   C     C_3   0.757286 0.087083 0.575175 0.067339
C46   C     C_3   0.242714 0.087084 0.424825 0.067267
C47   C     C_3   0.257286 0.587084 0.575175 0.067267
C48   C     C_3   0.742714 0.587083 0.424825 0.067339
C49   C     C_3   0.750561 0.955452 0.561677 -0.264871
C50   C     C_3   0.249438 0.955453 0.438323 -0.264850
C51   C     C_3   0.250561 0.455453 0.561677 -0.264849
C52   C     C_3   0.749439 0.455452 0.438323 -0.264871
C53   C     C_3   0.821665 0.127024 0.534672 -0.231918
C54   C     C_3   0.178335 0.127025 0.465329 -0.231967
C55   C     C_3   0.321665 0.627025 0.534671 -0.231967
C56   C     C_3   0.678336 0.627024 0.465329 -0.231918
H33   H     H_    0.838599 0.211756 0.556350 0.099528
H34   H     H_    0.161400 0.211757 0.443652 0.099580
H35   H     H_    0.338599 0.711757 0.556349 0.099580
H36   H     H_    0.661400 0.711756 0.443651 0.099527
H37   H     H_    0.862364 0.062047 0.547954 0.134401
H38   H     H_    0.137636 0.062047 0.452047 0.134406
H39   H     H_    0.362365 0.562048 0.547954 0.134407
H40   H     H_    0.637636 0.562046 0.452046 0.134401
H41   H     H_    0.800423 0.899712 0.468773 0.130064
H42   H     H_    0.199577 0.899713 0.531227 0.130064
H43   H     H_    0.300422 0.399712 0.468772 0.130063
H44   H     H_    0.699577 0.399712 0.531226 0.130064
H45   H     H_    0.794200 0.909366 0.588183 0.119801
H46   H     H_    0.205799 0.909368 0.411817 0.119848
H47   H     H_    0.294201 0.409367 0.588182 0.119848
H48   H     H_    0.705800 0.409367 0.411817 0.119801
C57   C     C_3   0.005689 0.208209 0.459335 -0.255864
C58   C     C_3   0.994311 0.208210 0.540664 -0.255887
C59   C     C_3   0.505690 0.708210 0.459337 -0.255887
C60   C     C_3   0.494313 0.708209 0.540665 -0.255864
H49   H     H_    0.044568 0.143962 0.445745 0.114427
H50   H     H_    0.955435 0.143959 0.554255 0.114391
H51   H     H_    0.544568 0.643961 0.445746 0.114391
H52   H     H_    0.455436 0.643959 0.554257 0.114428
H53   H     H_    0.959188 0.175951 0.431372 0.183862
H54   H     H_    0.040814 0.175958 0.568627 0.183895
H55   H     H_    0.459188 0.675954 0.431374 0.183892
H56   H     H_    0.540815 0.675956 0.568628 0.183864
H57   H     H_    0.615134 0.825172 0.506683 0.132334
H58   H     H_    0.384871 0.825165 0.493318 0.132285
H59   H     H_    0.115131 0.325177 0.506679 0.132280
H60   H     H_    0.884868 0.325160 0.493314 0.132338
C61   C     C_3   0.075845 0.387770 0.491913 -0.317727
C62   C     C_3   0.924149 0.387761 0.508082 -0.317785
C63   C     C_3   0.575849 0.887767 0.491917 -0.317777
C64   C     C_3   0.424153 0.887764 0.508086 -0.317736
C65   C     C_3   0.958978 0.415360 0.438048 0.101213
C66   C     C_3   0.041015 0.415366 0.561946 0.100996
C67   C     C_3   0.458982 0.915363 0.438053 0.100993
C68   C     C_3   0.541020 0.915363 0.561951 0.101216
C69   C     C_3   0.023869 0.336453 0.435239 0.032207
C70   C     C_3   0.976127 0.336453 0.564758 0.031899
C71   C     C_3   0.523872 0.836453 0.435242 0.031902
C72   C     C_3   0.476130 0.836452 0.564760 0.032204
H61   H     H_    0.974816 0.510175 0.440574 0.117460
H62   H     H_    0.025173 0.510180 0.559419 0.117397
H63   H     H_    0.474822 0.010178 0.440580 0.117397
H64   H     H_    0.525179 0.010177 0.559424 0.117460
H65   H     H_    0.900242 0.466371 0.528513 0.092480
H66   H     H_    0.099744 0.466386 0.471480 0.092538
H67   H     H_    0.400247 0.966374 0.528517 0.092540
H68   H     H_    0.599749 0.966382 0.471485 0.092479
C73   C     C_3   0.814121 0.016571 0.046514 -0.223125
C74   C     C_3   0.182019 0.023331 0.952574 -0.231161
C75   C     C_3   0.317981 0.523331 0.047426 -0.231161
C76   C     C_3   0.685878 0.516571 0.953485 -0.223125
H69   H     H_    0.819742 0.922921 0.059387 0.137116
H70   H     H_    0.166329 0.934371 0.934230 0.139475
H71   H     H_    0.333671 0.434371 0.065770 0.139475
H72   H     H_    0.680258 0.422921 0.940612 0.137116
H73   H     H_    0.858371 0.059336 0.074252 0.121962
H74   H     H_    0.141674 0.082423 0.931248 0.120231
H75   H     H_    0.358326 0.582423 0.068752 0.120232
H76   H     H_    0.641629 0.559335 0.925748 0.121961
C77   C     C_3   0.820189 0.030923 0.967292 -0.230035
C78   C     C_3   0.181405 0.021641 0.033324 -0.239727
C79   C     C_3   0.318595 0.521642 0.966676 -0.239726
C80   C     C_3   0.679810 0.530923 0.032708 -0.230035
H77   H     H_    0.869704 0.069221 0.956708 0.130787
H78   H     H_    0.129514 0.045235 0.049312 0.132562
H79   H     H_    0.370486 0.545235 0.950689 0.132561
H80   H     H_    0.630296 0.569221 0.043292 0.130787
H81   H     H_    0.821296 0.942445 0.941435 0.119048
H82   H     H_    0.189713 0.930503 0.053377 0.120720
H83   H     H_    0.310288 0.430504 0.946623 0.120721
H84   H     H_    0.678704 0.442445 0.058564 0.119048
H85   H     H_    0.661300 0.946674 0.045811 0.108102
H86   H     H_    0.302230 0.921774 0.966045 0.106121
H87   H     H_    0.197770 0.421774 0.033954 0.106121
H88   H     H_    0.838700 0.446674 0.954188 0.108102
H89   H     H_    0.703626 0.939855 0.925496 0.116654
H90   H     H_    0.308798 0.960958 0.085947 0.111550
H91   H     H_    0.191203 0.460958 0.914053 0.111550
H92   H     H_    0.796374 0.439854 0.074504 0.116654
C81   C     C_3   0.683145 0.029229 0.027639 -0.224683
C82   C     C_3   0.310484 0.013639 0.972442 -0.233178
C83   C     C_3   0.189516 0.513640 0.027558 -0.233179
C84   C     C_3   0.816855 0.529229 0.972361 -0.224683
C85   C     C_3   0.752472 0.202990 0.061627 -0.257186
C86   C     C_3   0.257480 0.199994 0.939177 -0.253295
C87   C     C_3   0.242520 0.699994 0.060824 -0.253295
C88   C     C_3   0.747527 0.702990 0.938373 -0.257186
C89   C     C_3   0.746473 0.069977 0.074016 0.059455
C90   C     C_3   0.252801 0.068347 0.925725 0.060302
C91   C     C_3   0.247199 0.568347 0.074275 0.060302
C92   C     C_3   0.753527 0.569977 0.925984 0.059455
H93   H     H_    0.710126 0.250539 0.087463 0.113923
H94   H     H_    0.309720 0.232193 0.928310 0.122940
H95   H     H_    0.190279 0.732193 0.071690 0.122940
H96   H     H_    0.789874 0.750539 0.912537 0.113923
H97   H     H_    0.800524 0.236923 0.085791 0.116276
H98   H     H_    0.221091 0.248937 0.903462 0.114182
H99   H     H_    0.278909 0.748937 0.096539 0.114183
H100  H     H_    0.699476 0.736923 0.914209 0.116275
C93   C     C_3   0.760668 0.105311 0.935668 0.058104
C94   C     C_3   0.238650 0.104052 0.064067 0.057650
C95   C     C_3   0.261350 0.604052 0.935933 0.057650
C96   C     C_3   0.739332 0.605311 0.064332 0.058104
C97   C     C_3   0.696848 0.030631 0.946183 -0.253847
C98   C     C_3   0.306287 0.042603 0.053134 -0.242653
C99   C     C_3   0.193713 0.542604 0.946866 -0.242652
C100  C     C_3   0.803152 0.530631 0.053817 -0.253848
C101  C     C_3   0.749444 0.222361 0.979312 -0.223233
C102  C     C_3   0.240675 0.218551 0.018547 -0.242084
C103  C     C_3   0.259325 0.718552 0.981453 -0.242085
C104  C     C_3   0.750556 0.722361 0.020688 -0.223233
H101  H     H_    0.781731 0.294386 0.963201 0.106517
H102  H     H_    0.189029 0.247360 0.016311 0.113138
H103  H     H_    0.310971 0.747360 0.983690 0.113138
H104  H     H_    0.718269 0.794386 0.036799 0.106517
H105  H     H_    0.696838 0.250628 0.966095 0.118990
H106  H     H_    0.275857 0.282741 0.043259 0.127635
H107  H     H_    0.224143 0.782741 0.956742 0.127635
H108  H     H_    0.803162 0.750628 0.033905 0.118990
H109  H     H_    0.643603 0.096882 0.035858 0.116818
H110  H     H_    0.360372 0.039464 0.952523 0.125431
H111  H     H_    0.139628 0.539464 0.047476 0.125431
H112  H     H_    0.856396 0.596882 0.964142 0.116818
H113  H     H_    0.653818 0.071217 0.915601 0.121621
H114  H     H_    0.349168 0.101240 0.070220 0.128338
H115  H     H_    0.150832 0.601241 0.929780 0.128338
H116  H     H_    0.846182 0.571217 0.084398 0.121621
C105  C     C_3   0.995560 0.480551 0.042060 -0.232236
C106  C     C_3   0.992212 0.480343 0.961283 -0.229966
C107  C     C_3   0.507788 0.980343 0.038717 -0.229966
C108  C     C_3   0.504440 0.980551 0.957940 -0.232235
H117  H     H_    0.034638 0.544963 0.059674 0.133615
H118  H     H_    0.950310 0.536067 0.942273 0.134044
H119  H     H_    0.549690 0.036066 0.057727 0.134043
H120  H     H_    0.465362 0.044963 0.940327 0.133615
H121  H     H_    0.947923 0.516232 0.063124 0.119051
H122  H     H_    0.038147 0.525485 0.940898 0.120898
H123  H     H_    0.461853 0.025485 0.059103 0.120898
H124  H     H_    0.552076 0.016232 0.936876 0.119051
H125  H     H_    0.614725 0.780889 0.049156 0.109907
H126  H     H_    0.390029 0.839090 0.949982 0.105156
H127  H     H_    0.109971 0.339091 0.050018 0.105156
H128  H     H_    0.885275 0.280889 0.950844 0.109908
H129  H     H_    0.601862 0.830563 0.925730 0.115477
H130  H     H_    0.400758 0.851362 0.075594 0.117888
H131  H     H_    0.099242 0.351362 0.924406 0.117887
H132  H     H_    0.898138 0.330563 0.074270 0.115477
C109  C     C_3   0.065787 0.292708 0.030377 -0.225272
C110  C     C_3   0.937145 0.271082 0.971525 -0.219314
C111  C     C_3   0.562855 0.771082 0.028475 -0.219314
C112  C     C_3   0.434213 0.792708 0.969623 -0.225272
C113  C     C_3   0.942711 0.283055 0.053567 -0.255407
C114  C     C_3   0.058138 0.298508 0.947889 -0.260518
C115  C     C_3   0.441862 0.798508 0.052111 -0.260518
C116  C     C_3   0.557289 0.783055 0.946433 -0.255408
C117  C     C_3   0.007325 0.352583 0.070667 0.057260
C118  C     C_3   0.988569 0.351803 0.931453 0.057152
C119  C     C_3   0.511431 0.851803 0.068547 0.057152
C120  C     C_3   0.492675 0.852583 0.929333 0.057261
H133  H     H_    0.945249 0.194368 0.079070 0.118326
H134  H     H_    0.060645 0.208993 0.924171 0.114044
H135  H     H_    0.439355 0.708993 0.075829 0.114044
H136  H     H_    0.554751 0.694369 0.920930 0.118326
H137  H     H_    0.951834 0.179024 0.958942 0.124106
H138  H     H_    0.069312 0.199080 0.046474 0.132402
H139  H     H_    0.430688 0.699080 0.953526 0.132402
H140  H     H_    0.548166 0.679023 0.041058 0.124105
N1    N     N_R   0.586413 0.901359 0.625598 0.063171
O53   O     O_R   0.605198 0.797417 0.648336 -0.384077
O54   O     O_R   0.599039 0.992216 0.666566 -0.347062
N2    N     N_R   0.413587 0.901359 0.374407 0.063388
O55   O     O_R   0.394803 0.797417 0.351669 -0.383357
O56   O     O_R   0.400958 0.992217 0.333440 -0.346157
N3    N     N_R   0.086411 0.401366 0.625591 0.063391
O57   O     O_R   0.105200 0.297426 0.648328 -0.383362
O58   O     O_R   0.099038 0.492225 0.666558 -0.346155
N4    N     N_R   0.913585 0.401352 0.374401 0.063169
O59   O     O_R   0.894804 0.297408 0.351662 -0.384071
O60   O     O_R   0.900957 0.492208 0.333432 -0.347064

loop_
_geom_bond_atom_site_label_1
_geom_bond_atom_site_label_2
_geom_bond_distance
_ccdc_geom_bond_type
O4    C12   1.309592 A    
O39   C19   1.309867 A    
C46   C50   1.514547 S    
C96   C100  1.528078 S    
C59   H55   1.102839 S    
Cr7   O51   2.055690 S    
H57   C63   1.077673 S    
C61   C66   1.526111 S    
C103  H107  1.096090 S    
C58   H54   1.102836 S    
C64   C67   1.526113 S    
C93   C97   1.528079 S    
C87   C103  1.544166 S    
C73   C89   1.558721 S    
C58   H50   1.088663 S    
C27   C43   1.558614 S    
C109  C114  1.548536 S    
O21   C9    1.325060 A    
C25   C41   1.558617 S    
C1    O9    1.297855 A    
C2    C43   1.478000 S    
O44   Cr12  2.139672 S    
C3    O11   1.297855 A    
C56   H36   1.088929 S    
C55   H35   1.088928 S    
H20   C36   1.091850 S    
C112  C115  1.548534 S    
C45   C49   1.514548 S    
O2    C10   1.309585 A    
C47   C55   1.557640 S    
C36   H44   1.098874 S    
C7    C47   1.479548 S    
C77   H77   1.087270 S    
H19   C35   1.091848 S    
O16   Cr8   1.982866 S    
C110  C118  1.566512 S    
C93   C101  1.573488 S    
C59   C71   1.562343 S    
C113  C117  1.519731 S    
C57   C69   1.562342 S    
C63   H68   1.079623 S    
O13   C5    1.300013 A    
O28   Cr4   2.094742 S    
C75   C91   1.574690 S    
O12   Cr8   2.120310 S    
C61   H66   1.079628 S    
O22   Cr10  2.018120 S    
C81   H109  1.103521 S    
O46   Cr10  1.966590 S    
C35   H43   1.098874 S    
C76   H72   1.090724 S    
C33   H41   1.098873 S    
C81   C89   1.567382 S    
C108  H124  1.101048 S    
C51   H47   1.109101 S    
C11   C72   1.486138 S    
C9    C70   1.486162 S    
H24   C52   1.099352 S    
C85   C101  1.555575 S    
C60   C72   1.562341 S    
H85   C81   1.085447 S    
C108  H120  1.102200 S    
H89   C97   1.106054 S    
C114  C118  1.517446 S    
C65   H61   1.116750 S    
C25   C29   1.529423 S    
Cr12  O52   2.053673 S    
C27   C31   1.529419 S    
C31   C47   1.559204 S    
C6    C46   1.479545 S    
C24   C119  1.487139 S    
C17   O41   1.296610 A    
C19   O43   1.293765 A    
C20   O44   1.296611 A    
C20   C96   1.501933 S    
Cr8   O52   2.055686 S    
O46   C22   1.309109 A    
C106  C118  1.557655 S    
C17   C93   1.501931 S    
C107  H123  1.112416 S    
C68   H64   1.116749 S    
C39   C43   1.522503 S    
C80   C96   1.545396 S    
C28   C32   1.529423 S    
C37   C41   1.522502 S    
C16   O36   1.293806 A    
C38   H26   1.111987 S    
C88   H100  1.104644 S    
C95   C99   1.517505 S    
O27   C23   1.290068 A    
C31   H11   1.090150 S    
C22   C117  1.487177 S    
H23   C51   1.099349 S    
C78   H82   1.107161 S    
C85   C89   1.526468 S    
O47   Cr11  1.966589 S    
C115  C119  1.517447 S    
C77   C93   1.545396 S    
C73   C77   1.499233 S    
C18   C94   1.504412 S    
O24   C12   1.325060 A    
H21   C49   1.099352 S    
C28   C44   1.558620 S    
C8    C48   1.479545 S    
C105  H117  1.102201 S    
C28   H4    1.100540 S    
C106  H122  1.112416 S    
C111  C116  1.542381 S    
C107  C119  1.557656 S    
N1    O54   1.301729 A    
C26   C30   1.529421 S    
C53   H33   1.088928 S    
C39   C55   1.532122 S    
C40   C56   1.532119 S    
O11   Cr7   2.120312 S    
C104  H104  1.079702 S    
H130  C115  1.104551 S    
O27   Cr3   2.094743 S    
C96   C104  1.573489 S    
O3    Cr3   2.133997 S    
C34   C50   1.542472 S    
Cr5   O49   2.055690 S    
C75   H71   1.103962 S    
C83   C99   1.549447 S    
C94   C98   1.517505 S    
C84   C100  1.554844 S    
C13   C92   1.503930 S    
C57   H53   1.102837 S    
O7    C3    1.294973 A    
C87   H95   1.112272 S    
O22   C10   1.325049 A    
C81   C97   1.554842 S    
C4    O12   1.297856 A    
C2    O10   1.297855 A    
C32   H16   1.103475 S    
N4    O59   1.299934 A    
H127  C109  1.070785 S    
C115  H135  1.106609 S    
C55   H39   1.109062 S    
C76   C92   1.558721 S    
O5    C1    1.294972 A    
O25   C21   1.291448 A    
C74   H70   1.103961 S    
O3    C11   1.309586 A    
O8    C4    1.294971 A    
C104  H108  1.103407 S    
C116  H136  1.110953 S    
H58   C64   1.077668 S    
Cr1   O49   2.053811 S    
C63   C68   1.526122 S    
C97   H113  1.107846 S    
C101  H105  1.103407 S    
C85   H97   1.104642 S    
C94   C102  1.550632 S    
O26   Cr2   2.094742 S    
Cr3   O51   2.053811 S    
C5    O17   1.302238 A    
H91   C99   1.108986 S    
O28   C24   1.291448 A    
O14   C6    1.300013 A    
C87   H99   1.113103 S    
C62   C70   1.564515 S    
C8    O20   1.302238 A    
C105  C117  1.557700 S    
N2    O55   1.299932 A    
C82   H110  1.096741 S    
C31   H15   1.103470 S    
C45   C53   1.557642 S    
O40   Cr8   2.001387 S    
C40   H32   1.104002 S    
C48   C56   1.557644 S    
O41   Cr9   2.139675 S    
C68   N1    1.477814 S    
C38   C54   1.532120 S    
C74   H74   1.103222 S    
O31   C15   1.317135 A    
O33   Cr5   2.105563 S    
C33   C49   1.542471 S    
C111  H140  1.106897 S    
C86   C102  1.544167 S    
C25   H1    1.100535 S    
O35   Cr7   2.105563 S    
O29   Cr1   2.008591 S    
C65   C69   1.557558 S    
H90   C98   1.108985 S    
C111  C119  1.566511 S    
C57   H49   1.088659 S    
C30   C46   1.559204 S    
C27   H7    1.096503 S    
H125  C111  1.086052 S    
Cr9   O49   2.053672 S    
C60   H52   1.088661 S    
C77   H81   1.111573 S    
C18   O42   1.293768 A    
Cr11  O51   2.053672 S    
O26   C22   1.290068 A    
O20   Cr12  2.087818 S    
C49   H45   1.109102 S    
C36   C52   1.542472 S    
C86   C90   1.511783 S    
C68   C72   1.557556 S    
C74   C90   1.574691 S    
C39   H27   1.111988 S    
C40   H28   1.111989 S    
C38   C42   1.522505 S    
C29   H13   1.103475 S    
C109  C117  1.545768 S    
C67   N2    1.477808 S    
C80   H84   1.111573 S    
C83   C91   1.542475 S    
O30   C14   1.317133 A    
C101  H101  1.079702 S    
C103  H103  1.065063 S    
H129  C116  1.105550 S    
C83   H111  1.096741 S    
C84   H112  1.103521 S    
C26   H2    1.100534 S    
C23   C120  1.487178 S    
C60   H56   1.102835 S    
O42   Cr10  2.139672 S    
C73   H73   1.111375 S    
O18   Cr10  2.087818 S    
O31   Cr3   2.008591 S    
C19   C95   1.504412 S    
O34   Cr6   2.105564 S    
O6    Cr2   1.977810 S    
H132  C113  1.105551 S    
O24   Cr12  2.018120 S    
O30   Cr2   2.008590 S    
C110  C113  1.542381 S    
C109  H138  1.102167 S    
C106  H118  1.088802 S    
O1    C9    1.309593 A    
C78   C94   1.558716 S    
C4    C41   1.478001 S    
C58   C70   1.562341 S    
O37   C17   1.306346 A    
C15   O35   1.288202 A    
C37   H29   1.104001 S    
Cr10  O50   2.053673 S    
C88   C92   1.526468 S    
C62   H65   1.079619 S    
O43   Cr11  2.139675 S    
O48   Cr12  1.966590 S    
O37   Cr5   2.001388 S    
N3    O57   1.299931 A    
O21   Cr9   2.018119 S    
C105  C106  1.511415 S    
O39   Cr7   2.001388 S    
O45   Cr9   1.966589 S    
C107  C108  1.511415 S    
C13   O33   1.293808 A    
C82   C90   1.542474 S    
C75   H75   1.103222 S    
C85   H93   1.111318 S    
O15   Cr7   1.982866 S    
C10   C69   1.486134 S    
H92   C100  1.106054 S    
C87   C91   1.511781 S    
C52   H48   1.109103 S    
O23   C11   1.325049 A    
C82   C98   1.549447 S    
C3    C42   1.478000 S    
C32   H12   1.090150 S    
C66   H62   1.116750 S    
C1    C44   1.478002 S    
H128  C110  1.086052 S    
C54   H38   1.109062 S    
C35   C43   1.568417 S    
C33   C41   1.568420 S    
C34   H42   1.098872 S    
O6    C2    1.294972 A    
C65   N4    1.477816 S    
O1    Cr1   2.133997 S    
C46   C54   1.557640 S    
C62   C65   1.526121 S    
O19   Cr11  2.087817 S    
C86   H94   1.112273 S    
C5    C45   1.479546 S    
O29   C13   1.315038 A    
C98   H114  1.112195 S    
C102  H106  1.096089 S    
O45   C21   1.304681 A    
H60   C62   1.077668 S    
O47   C23   1.309109 A    
N1    O53   1.299931 A    
C95   C103  1.550633 S    
C79   H79   1.102216 S    
C26   C42   1.558618 S    
O40   C20   1.306345 A    
C6    O18   1.302238 A    
C84   C92   1.567381 S    
C79   H83   1.107160 S    
O36   Cr8   2.105564 S    
C53   H37   1.109062 S    
C15   C90   1.498798 S    
H126  C112  1.070784 S    
O38   Cr6   2.001387 S    
C76   C80   1.499233 S    
O32   C16   1.315036 A    
C59   C60   1.543989 S    
C56   H40   1.109061 S    
C57   C58   1.543990 S    
O15   C7    1.300012 A    
O8    Cr4   1.977810 S    
C48   C52   1.514548 S    
O23   Cr11  2.018119 S    
C74   C78   1.511656 S    
C47   C51   1.514546 S    
C36   C44   1.568421 S    
C16   C89   1.503931 S    
C67   H63   1.116750 S    
C14   C91   1.498800 S    
H59   C61   1.077676 S    
N4    O60   1.301730 A    
C99   H115  1.112195 S    
H87   C83   1.057416 S    
C112  C120  1.545768 S    
C113  H133  1.110954 S    
O16   C8    1.300013 A    
C32   C48   1.559202 S    
C7    O19   1.302238 A    
Cr4   O52   2.053810 S    
O2    Cr2   2.133999 S    
O48   C24   1.304681 A    
Cr6   O50   2.055686 S    
C50   H46   1.109102 S    
C76   H76   1.111376 S    
O5    Cr1   1.977809 S    
C39   H31   1.104000 S    
C40   C44   1.522503 S    
O13   Cr5   1.982866 S    
C78   H78   1.102215 S    
C67   C71   1.557562 S    
C29   H9    1.090153 S    
O9    Cr5   2.120312 S    
H22   C50   1.099351 S    
N2    O56   1.301729 A    
C102  H102  1.065063 S    
O7    Cr3   1.977809 S    
C114  H134  1.106609 S    
C59   H51   1.088660 S    
C116  C120  1.519731 S    
C25   H5    1.096504 S    
C88   C104  1.555575 S    
C73   H69   1.090726 S    
H17   C33   1.091851 S    
Cr2   O50   2.053810 S    
N3    O58   1.301728 A    
C112  H139  1.102166 S    
C37   C53   1.532124 S    
H131  C114  1.104554 S    
O14   Cr6   1.982866 S    
C35   C51   1.542471 S    
C86   H98   1.113102 S    
C107  H119  1.088800 S    
H86   C82   1.057415 S    
C79   C95   1.558716 S    
C108  C120  1.557699 S    
C80   H80   1.087270 S    
C28   H8    1.096506 S    
O38   C18   1.309868 A    
C37   H25   1.111987 S    
O25   Cr1   2.094743 S    
C38   H30   1.104000 S    
C88   H96   1.111316 S    
C63   C71   1.564514 S    
C29   C45   1.559202 S    
C21   C118  1.487139 S    
C61   C69   1.564501 S    
O17   Cr9   2.087817 S    
C14   O34   1.288200 A    
C64   H67   1.079622 S    
C75   C79   1.511656 S    
C12   C71   1.486158 S    
C100  H116  1.107844 S    
C26   H6    1.096503 S    
C30   H10   1.090150 S    
O10   Cr6   2.120310 S    
C110  H137  1.106896 S    
C66   N3    1.477807 S    
O4    Cr4   2.133999 S    
C30   H14   1.103471 S    
C66   C70   1.557564 S    
H18   C34   1.091851 S    
C64   C72   1.564505 S    
C27   H3    1.100533 S    
C54   H34   1.088927 S    
C105  H121  1.101047 S    
H88   C84   1.085447 S    
O32   Cr4   2.008590 S    
C34   C42   1.568420 S    
