data_mof_unit_28392.cif
_audit_creation_date              2012-12-10T18:22:12-0500
_audit_creation_method            fapswitch 2.2
_symmetry_space_group_name_H-M    P1
_symmetry_Int_Tables_number       1
_space_group_crystal_system       triclinic
_cell_length_a                    14.989687
_cell_length_b                    14.015614
_cell_length_c                    15.744041
_cell_angle_alpha                 89.729115
_cell_angle_beta                  89.778366
_cell_angle_gamma                 90.092603
_cell_volume                      3307.59419847

loop_
_atom_site_label
_atom_site_type_symbol
_atom_type_description
_atom_site_fract_x
_atom_site_fract_y
_atom_site_fract_z
_atom_type_partial_charge
C1    C     C_R   0.326571 0.499933 0.499638 0.895720
C2    C     C_R   0.907557 0.582645 0.520738 0.130040
C3    C     C_R   0.953696 0.500537 0.493090 0.056335
C4    C     C_R   0.499792 0.500214 0.338204 0.913132
C5    C     C_R   0.906716 0.418953 0.466659 0.079680
C6    C     C_R   0.954141 0.663698 0.547053 -0.210060
C7    C     C_R   0.046643 0.663358 0.547012 -0.214932
C8    C     C_R   0.092849 0.582016 0.520518 0.135281
C9    C     C_R   0.046561 0.499956 0.492676 0.021942
C10   C     C_R   0.093092 0.417538 0.465247 0.085532
C11   C     C_R   0.045372 0.336585 0.435880 0.166372
C12   C     C_3   0.579167 0.470756 0.951797 -0.604150
C13   C     C_R   0.952167 0.338409 0.437891 -0.258834
C14   C     C_R   0.184870 0.581391 0.522146 -0.246162
C15   C     C_R   0.230838 0.499890 0.497219 -0.072596
C16   C     C_R   0.673455 0.500079 0.499466 0.893845
C17   C     C_R   0.185916 0.418764 0.468938 -0.266272
C18   C     C_R   0.560560 0.798839 0.452313 0.017955
C19   C     C_R   0.561075 0.201872 0.452918 0.020647
C20   C     C_R   0.438414 0.796556 0.547846 -0.057078
C21   C     C_R   0.438747 0.202718 0.548236 -0.057524
C22   C     C_R   0.434667 0.897894 0.549822 -0.008693
C23   C     C_3   0.579025 0.476018 0.049471 -0.490695
C24   C     C_R   0.435585 0.101327 0.550920 -0.009119
C25   C     C_R   0.498404 0.949469 0.501391 -0.045316
C26   C     C_R   0.498181 0.050506 0.501142 -0.044809
C27   C     C_R   0.561822 0.899487 0.451755 -0.048988
C28   C     C_R   0.562003 0.101240 0.451982 -0.047192
C29   C     C_R   0.369486 0.948133 0.598381 0.140604
C30   C     C_R   0.372189 0.050291 0.601580 0.133640
C31   C     C_R   0.626444 0.051461 0.404156 0.318501
C32   C     C_R   0.624139 0.950023 0.401442 0.318824
C33   C     C_R   0.499521 0.499812 0.661825 0.913712
C34   C     C_1   0.491239 0.500212 0.825715 -0.013727
C35   C     C_3   0.461647 0.604577 0.048719 -0.012175
C36   C     C_3   0.418289 0.423415 0.049734 -0.078953
C37   C     C_3   0.415695 0.428878 0.950312 0.298335
C38   C     C_3   0.468745 0.605233 0.949443 0.262544
C39   C     C_1   0.495386 0.499569 0.750553 -0.183527
C40   C     C_3   0.484251 0.501978 0.083033 0.126972
C41   C     C_3   0.487083 0.501816 0.917140 0.154158
C42   C     C_3   0.090535 0.247925 0.401425 -0.412521
C43   C     C_3   0.126316 0.264703 0.311554 -0.856500
C44   C     C_3   0.295451 0.892799 0.644011 -0.432933
C45   C     C_1   0.489902 0.501343 0.174519 -0.083226
C46   C     C_3   0.326024 0.856277 0.730818 -0.861548
C47   C     C_3   0.309591 0.104782 0.660767 -0.413220
C48   C     C_3   0.227699 0.141970 0.613524 -0.882274
C49   C     C_3   0.373512 0.647928 0.084210 -0.329971
C50   C     C_3   0.375930 0.757056 0.084549 -0.838513
C51   C     C_3   0.325673 0.417793 0.094973 -0.373248
C52   C     C_3   0.278538 0.322632 0.079096 -0.841572
C53   C     C_1   0.495081 0.500773 0.249583 -0.186585
C54   C     C_R   0.814367 0.419231 0.469236 -0.234855
C55   C     C_R   0.769187 0.500345 0.497205 -0.075642
C56   C     C_R   0.815295 0.582047 0.522206 -0.251079
H1    H     H_    0.082076 0.726371 0.568136 0.142894
H2    H     H_    0.516177 0.651715 0.072348 0.135594
H3    H     H_    0.435053 0.357077 0.926431 0.116240
H4    H     H_    0.527692 0.650595 0.932364 0.071808
H5    H     H_    0.628675 0.530269 0.070213 0.200106
H6    H     H_    0.601294 0.406201 0.075971 0.205289
H7    H     H_    0.633021 0.517559 0.925955 0.206587
H8    H     H_    0.594608 0.396538 0.931562 0.203434
H9    H     H_    0.777644 0.356670 0.448833 0.167537
H10   H     H_    0.779449 0.644605 0.543922 0.162781
H11   H     H_    0.919064 0.726919 0.568143 0.149816
H12   H     H_    0.220712 0.643882 0.544101 0.150577
H13   H     H_    0.412015 0.673041 0.855486 0.336529
H14   H     H_    0.307452 0.506773 0.940490 0.381015
H15   H     H_    0.070658 0.283212 0.268139 0.263608
H16   H     H_    0.176203 0.323252 0.310031 0.257324
H17   H     H_    0.158763 0.198636 0.288171 0.250868
H18   H     H_    0.144665 0.223984 0.444271 0.198871
H19   H     H_    0.042594 0.187385 0.398852 0.207615
H20   H     H_    0.384491 0.808363 0.724502 0.253857
H21   H     H_    0.344647 0.916743 0.772448 0.254868
H22   H     H_    0.270945 0.815778 0.761684 0.262318
H23   H     H_    0.224417 0.357462 0.449561 0.172472
H24   H     H_    0.234245 0.935935 0.652112 0.218028
H25   H     H_    0.271583 0.832573 0.604622 0.186729
H26   H     H_    0.247402 0.192101 0.562070 0.251981
H27   H     H_    0.189753 0.082023 0.585215 0.253124
H28   H     H_    0.183382 0.180301 0.658507 0.261374
H29   H     H_    0.287431 0.060940 0.715562 0.218133
H30   H     H_    0.345111 0.164526 0.691967 0.198181
H31   H     H_    0.746514 0.064433 0.358503 0.343526
H32   H     H_    0.696030 0.938277 0.299043 0.346267
H33   H     H_    0.429309 0.782863 0.127504 0.246012
H34   H     H_    0.914660 0.276905 0.416362 0.157049
H35   H     H_    0.388106 0.785626 0.019660 0.287261
H36   H     H_    0.311006 0.784893 0.107807 0.245681
H37   H     H_    0.315103 0.625209 0.046544 0.235762
H38   H     H_    0.361595 0.624108 0.150632 0.194577
H39   H     H_    0.265781 0.312161 0.010419 0.296402
H40   H     H_    0.319589 0.262492 0.103208 0.244675
H41   H     H_    0.213527 0.321621 0.113185 0.247508
H42   H     H_    0.334044 0.423816 0.164740 0.209405
H43   H     H_    0.280532 0.476063 0.075750 0.207297
H44   H     H_    0.607937 0.758496 0.414959 0.187914
H45   H     H_    0.608797 0.242761 0.415952 0.181798
H46   H     H_    0.393250 0.752727 0.584499 0.152838
H47   H     H_    0.392536 0.246043 0.583625 0.157814
H48   H     H_    0.450605 0.354016 0.065913 0.147922
N1    N     N_R   0.500070 0.750030 0.500040 -0.127932
N2    N     N_R   0.500070 0.249970 0.500040 -0.127783
O1    O     O_R   0.367860 0.580280 0.500020 -0.629805
O2    O     O_3   0.330361 0.446622 0.916565 -0.744271
O3    O     O_3   0.691637 0.103463 0.362190 -0.802528
O4    O     O_3   0.680698 0.898744 0.349325 -0.795319
O5    O     O_R   0.367860 0.419720 0.500020 -0.632213
O6    O     O_R   0.500020 0.580310 0.377140 -0.613653
O7    O     O_R   0.500020 0.419690 0.377140 -0.617413
O8    O     O_R   0.632160 0.580270 0.499980 -0.629045
O9    O     O_R   0.632160 0.419730 0.499980 -0.630008
O10   O     O_R   0.500010 0.580240 0.622850 -0.621805
O11   O     O_R   0.500010 0.419760 0.622850 -0.612509
O12   O     O_3   0.392813 0.645195 0.910720 -0.777134
Zn1   Zn    Zn3+2 0.500020 0.607200 0.499990 0.945704
Zn2   Zn    Zn3+2 0.500020 0.392800 0.499990 0.947172

loop_
_geom_bond_atom_site_label_1
_geom_bond_atom_site_label_2
_ccdc_geom_bond_type
C43   H17   S    
C55   C56   A    
C33   O11   A    
C43   H16   S    
C22   C29   A    
C4    C53   S    
C11   C13   A    
H13   O12   S    
C46   H20   S    
C7    C8    A    
C54   H9    S    
C12   C23   S    
C42   H19   S    
C33   C39   S    
C32   O4    S    
C52   H39   S    
C35   H2    S    
C47   H29   S    
C36   C37   S    
C24   C26   A    
C12   H8    S    
C20   H46   S    
C10   C17   A    
C23   C40   S    
C52   H41   S    
C17   H23   S    
C4    O7    A    
C11   C42   S    
C23   H6    S    
C47   C48   S    
C8    C9    A    
C22   C25   A    
C35   C49   S    
C43   H15   S    
C52   H40   S    
C1    C15   S    
C49   H38   S    
C9    C10   A    
C5    C13   A    
C21   N2    A    
H32   O4    S    
C51   H42   S    
C4    O6    A    
C45   C53   T    
C2    C6    A    
C34   C41   S    
C18   H44   S    
C37   O2    S    
O1    Zn1   S    
C44   C46   S    
C51   H43   S    
C40   C45   S    
C42   H18   S    
C34   C39   T    
C47   H30   S    
C5    C54   A    
C44   H24   S    
C35   C38   S    
C38   C41   S    
C44   H25   S    
O11   Zn2   S    
C46   H22   S    
C12   H7    S    
C25   C26   A    
C48   H28   S    
O5    Zn2   S    
C38   O12   S    
C29   C30   A    
C3    C9    A    
C46   H21   S    
O7    Zn2   S    
C30   C47   S    
C50   H33   S    
C31   C32   A    
C36   C40   S    
C31   O3    S    
C19   C28   A    
C37   H3    S    
C36   C51   S    
C1    O1    A    
C38   H4    S    
C50   H36   S    
C6    H11   S    
C20   C22   A    
O9    Zn2   S    
C29   C44   S    
C13   H34   S    
C42   C43   S    
C16   O9    A    
C12   C41   S    
C20   N1    A    
C15   C17   A    
C54   C55   A    
C33   O10   A    
C8    C14   A    
N2    Zn2   S    
C27   C32   A    
C28   C31   A    
C18   C27   A    
O8    Zn1   S    
C3    C5    A    
C16   O8    A    
O6    Zn1   S    
C48   H27   S    
C6    C7    A    
H31   O3    S    
C25   C27   A    
C26   C28   A    
O10   Zn1   S    
C36   H48   S    
C35   C40   S    
C18   N1    A    
C51   C52   S    
H14   O2    S    
C1    O5    A    
C19   H45   S    
C56   H10   S    
C48   H26   S    
C2    C3    A    
C37   C41   S    
C24   C30   A    
C16   C55   S    
C10   C11   A    
C21   H47   S    
C19   N2    A    
C50   H35   S    
C23   H5    S    
C49   C50   S    
C21   C24   A    
C14   H12   S    
C14   C15   A    
N1    Zn1   S    
C2    C56   A    
C49   H37   S    
C7    H1    S    
