data_mof_unit_29142.cif
_audit_creation_date              2012-12-11T16:25:38-0500
_audit_creation_method            fapswitch 2.2
_symmetry_space_group_name_H-M    P1
_symmetry_Int_Tables_number       1
_space_group_crystal_system       triclinic
_cell_length_a                    20.445988
_cell_length_b                    7.278775
_cell_length_c                    13.319899
_cell_angle_alpha                 90.110938
_cell_angle_beta                  103.2309
_cell_angle_gamma                 91.122732
_cell_volume                      1929.25948498

loop_
_atom_site_label
_atom_site_type_symbol
_atom_type_description
_atom_site_fract_x
_atom_site_fract_y
_atom_site_fract_z
_atom_type_partial_charge
O1    O     O_R   0.449520 0.506760 0.599710 -0.495520
O2    O     O_R   0.550480 0.006760 0.400290 -0.538140
O3    O     O_R   0.587930 0.180200 0.595790 -0.541459
O4    O     O_R   0.412070 0.680200 0.404210 -0.507815
C1    C     C_R   0.614371 0.346026 0.617999 0.786622
C2    C     C_R   0.385788 0.842331 0.380903 0.770208
O5    O     O_R   0.452350 0.177380 0.611700 -0.563784
O6    O     O_R   0.547650 0.677380 0.388300 -0.518779
O7    O     O_R   0.413930 0.001760 0.416320 -0.559155
O8    O     O_R   0.586070 0.501760 0.583680 -0.526748
C3    C     C_R   0.434704 0.342942 0.636455 0.834240
C4    C     C_R   0.566937 0.846183 0.366659 0.836253
O9    O     O_3   0.487550 0.337460 0.435880 -0.380319
O10   O     O_3   0.512450 0.837460 0.564120 -0.377412
V1    V     V_3+5 0.502310 0.064670 0.511900 1.566106
V2    V     V_3+5 0.497690 0.564670 0.488100 1.673537
C5    C     C_R   0.618182 0.849322 0.114916 0.589917
C6    C     C_R   0.375658 0.191583 0.871506 0.609648
H1    H     H_    0.699118 0.790424 0.990335 0.162109
H2    H     H_    0.293056 0.173237 0.998008 0.151199
C7    C     C_R   0.609249 0.855189 0.291411 -0.250492
C8    C     C_R   0.394396 0.333064 0.715677 -0.246253
C9    C     C_R   0.931896 0.918384 0.320772 -0.059895
C10   C     C_R   0.071725 0.438926 0.681119 -0.045807
C11   C     C_R   0.902152 0.880855 0.402202 -0.062639
C12   C     C_R   0.105174 0.429937 0.601404 -0.073121
C13   C     C_R   0.834949 0.823101 0.384512 -0.022177
C14   C     C_R   0.172496 0.380885 0.620030 0.000783
C15   C     C_R   0.793767 0.821804 0.281513 0.140104
C16   C     C_R   0.209554 0.351617 0.723144 0.164225
C17   C     C_R   0.828898 0.823786 0.199646 0.117435
C18   C     C_R   0.171767 0.331035 0.801180 0.106957
C19   C     C_R   0.720987 0.825917 0.253995 -0.031950
C20   C     C_R   0.281317 0.330641 0.752106 -0.058714
C21   C     C_R   0.687606 0.819221 0.146966 -0.024916
C22   C     C_R   0.309302 0.249594 0.848662 -0.033048
C23   C     C_R   0.724073 0.798794 0.071351 -0.096915
C24   C     C_R   0.270926 0.225222 0.921884 -0.053134
C25   C     C_R   0.793247 0.800639 0.096967 -0.088190
C26   C     C_R   0.204160 0.272366 0.900143 -0.103686
C27   C     C_R   0.679257 0.852302 0.325115 0.536540
C28   C     C_R   0.327126 0.390279 0.691928 0.552021
C29   C     C_R   0.580083 0.876419 0.187370 -0.243167
C30   C     C_R   0.417062 0.224462 0.803922 -0.249902
C31   C     C_R   0.898905 0.863337 0.220819 -0.109821
C32   C     C_R   0.102454 0.372917 0.779617 -0.102991
H3    H     H_    0.931508 0.900092 0.480603 0.189460
H4    H     H_    0.078170 0.460786 0.523378 0.178387
H5    H     H_    0.818462 0.794390 0.033941 0.105907
H6    H     H_    0.177842 0.256748 0.961496 0.126198
C33   C     C_R   0.228577 0.819123 0.033997 0.462773
C34   C     C_R   0.769974 0.355809 0.965548 0.483906
C35   C     C_R   0.280806 0.769105 0.989737 0.506603
C36   C     C_R   0.715054 0.362852 0.010119 0.486949
C37   C     C_R   0.343349 0.730904 0.051355 -0.297079
C38   C     C_R   0.650987 0.384714 0.949274 -0.317911
C39   C     C_R   0.355292 0.750922 0.158693 0.478233
C40   C     C_R   0.640912 0.394419 0.841837 0.488457
C41   C     C_R   0.303512 0.808129 0.206980 -0.096926
C42   C     C_R   0.695274 0.370609 0.792596 -0.100625
C43   C     C_R   0.237619 0.830321 0.143247 -0.211915
C44   C     C_R   0.761680 0.358752 0.856238 -0.209364
C45   C     C_R   0.315507 0.840884 0.316021 -0.045558
C46   C     C_R   0.684487 0.356794 0.682782 -0.044861
C47   C     C_R   0.259270 0.855677 0.363169 -0.041671
C48   C     C_R   0.740464 0.332028 0.636207 -0.035342
C49   C     C_R   0.192598 0.838276 0.298994 -0.030196
C50   C     C_R   0.806504 0.311119 0.701565 -0.027377
C51   C     C_R   0.182040 0.851521 0.189302 -0.050131
C52   C     C_R   0.817719 0.342931 0.810576 -0.047788
C53   C     C_R   0.265751 0.873456 0.472978 -0.272505
C54   C     C_R   0.733710 0.324299 0.525850 -0.243770
C55   C     C_R   0.208785 0.874095 0.514215 0.592109
C56   C     C_R   0.789852 0.300034 0.484590 0.601584
C57   C     C_R   0.146421 0.831313 0.452941 0.551228
C58   C     C_R   0.851593 0.266744 0.547956 0.551440
C59   C     C_R   0.138849 0.798599 0.347815 -0.272806
C60   C     C_R   0.859086 0.255926 0.654218 -0.267273
O11   O     O_R   0.913760 0.203480 0.916370 -0.524157
O12   O     O_R   0.086240 0.703480 0.083630 -0.526740
O13   O     O_R   0.047590 0.535230 0.888250 -0.522107
O14   O     O_R   0.952410 0.035230 0.111750 -0.521225
C61   C     C_R   0.064150 0.370508 0.861867 0.654044
C62   C     C_R   0.936068 0.868718 0.137972 0.661434
O15   O     O_R   0.912020 0.532880 0.904260 -0.537745
O16   O     O_R   0.087980 0.032880 0.095740 -0.539884
O17   O     O_R   0.949590 0.708460 0.099750 -0.516014
O18   O     O_R   0.050410 0.208460 0.900250 -0.515188
C63   C     C_R   0.887434 0.361621 0.877974 0.773367
C64   C     C_R   0.112690 0.864560 0.121583 0.776618
O19   O     O_3   0.012370 0.375360 0.064120 -0.364766
O20   O     O_3   0.987630 0.875360 0.935880 -0.363185
V3    V     V_3+5 0.997700 0.648160 0.988110 1.630308
V4    V     V_3+5 0.002300 0.148160 0.011890 1.628411
C65   C     C_1   0.515745 0.961866 0.158659 0.547521
N1    N     N_1   0.465123 0.036471 0.140147 -0.243495
C66   C     C_1   0.481337 0.135500 0.823790 0.572221
N2    N     N_1   0.532291 0.062147 0.838340 -0.242134
F1    F     F_    0.169347 0.855176 0.967475 -0.643193
F2    F     F_    0.830651 0.337410 0.031820 -0.638786
F3    F     F_    0.269838 0.755683 0.885369 -0.602368
F4    F     F_    0.724823 0.351537 0.114359 -0.606550
C67   C     C_1   0.395976 0.675194 0.002745 0.612502
N3    N     N_1   0.437767 0.632083 0.962422 -0.263142
C68   C     C_1   0.595310 0.393237 0.998589 0.597514
N4    N     N_1   0.551187 0.398235 0.039459 -0.288802
F5    F     F_    0.416913 0.704917 0.214283 -0.702195
F6    F     F_    0.577889 0.430122 0.787186 -0.703321
C69   C     C_1   0.328143 0.874595 0.549968 0.496470
N5    N     N_1   0.376899 0.870950 0.614201 -0.270767
C70   C     C_1   0.672000 0.346179 0.448836 0.447511
N6    N     N_1   0.623604 0.361821 0.384821 -0.291743
F7    F     F_    0.214566 0.896570 0.617355 -0.614622
F8    F     F_    0.784289 0.301924 0.380809 -0.611638
C71   C     C_1   0.083068 0.678814 0.301548 0.325810
N7    N     N_1   0.039103 0.577812 0.268086 -0.284293
C72   C     C_1   0.914949 0.147712 0.705334 0.344378
N8    N     N_1   0.959252 0.055004 0.741696 -0.272738
F9    F     F_    0.588177 0.861368 0.013129 -0.666693
F10   F     F_    0.398452 0.088856 0.956058 -0.684422
F11   F     F_    0.703358 0.907739 0.423585 -0.715136
F12   F     F_    0.308527 0.509478 0.613420 -0.692823
C73   C     C_1   0.993340 0.027384 0.340293 0.466416
N9    N     N_1   0.041559 0.118914 0.355334 -0.332224
C74   C     C_1   0.006439 0.521767 0.660201 0.433620
N10   N     N_1   0.954736 0.591434 0.643795 -0.344854
C75   C     C_1   0.814665 0.758669 0.475195 0.465051
N11   N     N_1   0.799779 0.710429 0.549814 -0.331846
C76   C     C_1   0.197542 0.340412 0.529572 0.418613
N12   N     N_1   0.216919 0.308733 0.456367 -0.348969
F13   F     F_    0.093697 0.807507 0.498206 -0.672440
F14   F     F_    0.904522 0.236837 0.504712 -0.673696

loop_
_geom_bond_atom_site_label_1
_geom_bond_atom_site_label_2
_ccdc_geom_bond_type
C48   C50   A    
C45   C47   A    
O14   V4    S    
C15   C19   A    
C13   C15   A    
O17   V3    S    
C70   N6    T    
C49   C59   A    
C62   O17   A    
O2    C4    A    
C2    O7    A    
C66   N2    T    
C55   F7    S    
C73   N9    T    
O5    C3    A    
C48   C54   A    
C56   C58   A    
C9    C31   A    
C21   C23   A    
C10   C12   A    
C39   C41   A    
C40   C42   A    
C71   N7    T    
C56   F8    S    
C37   C67   S    
O13   V3    S    
C44   C52   A    
C42   C44   A    
C14   C76   S    
C27   F11   S    
O16   V4    S    
C59   C71   S    
C7    C29   A    
O15   V3    S    
O12   V3    S    
C8    C30   A    
C65   N1    T    
C35   F3    S    
C20   C28   A    
C47   C49   A    
C33   C43   A    
C29   C65   S    
C38   C40   A    
C16   C18   A    
H1    C23   S    
C11   H3    S    
C20   C22   A    
C12   H4    S    
O5    V1    S    
C61   O18   A    
C54   C70   S    
O6    V2    S    
C50   C60   A    
C55   C57   A    
C13   C75   S    
C12   C14   A    
O13   C61   A    
C34   C36   A    
O18   V4    S    
C35   C37   A    
C33   F1    S    
C36   C38   A    
C41   C43   A    
C16   C20   A    
C60   C72   S    
O11   V4    S    
C54   C56   A    
O16   C64   A    
C53   C55   A    
O15   C63   A    
C9    C73   S    
C47   C53   A    
C4    C7    S    
C34   F2    S    
C1    C46   S    
C49   C51   A    
C46   C48   A    
C2    C45   S    
O4    V2    S    
C5    C29   A    
C6    C30   A    
H2    C24   S    
C30   C66   S    
O6    C4    A    
O1    V2    S    
O2    V1    S    
C57   C59   A    
C7    C27   A    
O4    C2    A    
C39   F5    S    
O14   C62   A    
C37   C39   A    
C74   N10   T    
C52   C63   S    
C75   N11   T    
C6    F10   S    
O3    V1    S    
C28   F12   S    
C76   N12   T    
C43   C51   A    
C25   H5    S    
C18   C32   A    
C36   F4    S    
C58   C60   A    
O3    C1    A    
C11   C13   A    
C68   N4    T    
C3    C8    S    
C41   C45   A    
C42   C46   A    
C19   C27   A    
C22   C24   A    
O7    V1    S    
C10   C32   A    
C1    O8    A    
C15   C17   A    
O8    V2    S    
C72   N8    T    
O19   V4    S    
C24   C26   A    
C58   F14   S    
C8    C28   A    
C26   H6    S    
C53   C69   S    
C14   C16   A    
O20   V3    S    
C19   C21   A    
C17   C25   A    
C40   F6    S    
C18   C26   A    
O12   C64   A    
C38   C68   S    
O11   C63   A    
C5    F9    S    
C32   C61   S    
C31   C62   S    
C9    C11   A    
C57   F13   S    
C23   C25   A    
C17   C31   A    
O9    V2    S    
C67   N3    T    
C50   C52   A    
O10   V1    S    
C34   C44   A    
O1    C3    A    
C5    C21   A    
C33   C35   A    
C10   C74   S    
C69   N5    T    
C6    C22   A    
C51   C64   S    
