data_mof_unit_5223.cif
_audit_creation_date              2012-12-11T14:50:29-0500
_audit_creation_method            fapswitch 2.2
_symmetry_space_group_name_H-M    P1
_symmetry_Int_Tables_number       1
_space_group_crystal_system       triclinic
_cell_length_a                    10.978416
_cell_length_b                    10.989004
_cell_length_c                    18.800958
_cell_angle_alpha                 90.003718
_cell_angle_beta                  89.220681
_cell_angle_gamma                 60.858427
_cell_volume                      1980.83260338

loop_
_atom_site_label
_atom_site_type_symbol
_atom_type_description
_atom_site_fract_x
_atom_site_fract_y
_atom_site_fract_z
_atom_type_partial_charge
C1    C     C_R   0.235447 0.646228 0.610282 0.516247
C2    C     C_R   0.551686 0.215800 0.798335 -0.051675
C3    C     C_R   0.541412 0.205903 0.725860 -0.010683
C4    C     C_R   0.659027 0.626206 0.597996 0.566525
C5    C     C_R   0.651351 0.199424 0.681086 -0.006623
C6    C     C_R   0.205690 0.547437 0.725248 -0.095022
C7    C     C_R   0.199799 0.551260 0.799510 -0.106820
C8    C     C_R   0.193167 0.665368 0.836632 -0.004279
C9    C     C_R   0.209674 0.767365 0.799011 -0.000838
C10   C     C_R   0.181693 0.777960 0.725502 -0.047190
C11   C     C_R   0.194243 0.661539 0.687147 -0.050156
C12   C     C_3   0.704428 0.568009 0.799841 -0.071553
C13   C     C_R   0.618483 0.568588 0.269364 -0.048675
C14   C     C_R   0.625505 0.585784 0.196072 0.014830
C15   C     C_R   0.661749 0.684756 0.171841 0.026527
C16   C     C_R   0.622590 0.236870 0.605568 0.582534
C17   C     C_R   0.684618 0.768802 0.220363 -0.105456
C18   C     C_R   0.677780 0.750632 0.293182 -0.086195
C19   C     C_R   0.648541 0.647829 0.317412 0.072164
C20   C     C_R   0.544618 0.160286 0.288227 -0.162210
C21   C     C_R   0.535688 0.171730 0.215363 0.014860
C22   C     C_R   0.649316 0.165855 0.175930 0.054607
C23   C     C_3   0.732618 0.693616 0.807058 -0.001259
C24   C     C_R   0.757991 0.175295 0.211991 -0.012734
C25   C     C_R   0.757671 0.175175 0.285897 -0.126708
C26   C     C_R   0.649749 0.171385 0.323893 -0.022318
C27   C     C_R   0.219218 0.752917 0.280407 -0.039111
C28   C     C_R   0.228391 0.647901 0.399138 0.543330
C29   C     C_R   0.229124 0.730690 0.207131 0.029410
C30   C     C_R   0.166043 0.656145 0.178689 0.039919
C31   C     C_R   0.131693 0.571582 0.223165 -0.018245
C32   C     C_R   0.149555 0.574197 0.295799 -0.121696
C33   C     C_R   0.187913 0.666265 0.325011 -0.041469
C34   C     C_3   0.689007 0.657804 0.672027 -0.017602
C35   C     C_R   0.700457 0.106985 0.898069 0.511970
C36   C     C_R   0.757140 0.711285 0.883409 0.569230
C37   C     C_R   0.122007 0.704772 0.906715 0.526772
C38   C     C_R   0.674187 0.109160 0.103644 0.547358
C39   C     C_R   0.696390 0.691865 0.097888 0.544345
C40   C     C_R   0.642525 0.622212 0.392437 0.541137
C41   C     C_R   0.095913 0.706638 0.111375 0.583115
C42   C     C_R   0.618629 0.226573 0.395731 0.555586
C43   C     C_3   0.611708 0.829453 0.775985 -0.254962
C44   C     C_3   0.597449 0.817085 0.693856 -0.037368
C45   C     C_3   0.847568 0.621824 0.683079 -0.125214
C46   C     C_3   0.864531 0.659320 0.761466 -0.315346
C47   C     C_2   0.959362 0.474760 0.665681 0.217827
C48   C     C_2   0.885575 0.203287 0.674299 0.280898
C49   C     C_2   0.922082 0.137053 0.821912 0.269994
C50   C     C_2   0.417065 0.194831 0.701944 0.235322
C51   C     C_2   0.256242 0.855665 0.839301 0.254562
C52   C     C_2   0.115963 0.911253 0.688594 0.258746
C53   C     C_2   0.590293 0.504713 0.145670 0.243089
C54   C     C_2   0.401312 0.199206 0.184070 0.271043
C55   C     C_2   0.866306 0.196585 0.174275 0.269448
C56   C     C_3   0.662044 0.559023 0.723084 -0.149104
C57   C     C_2   0.230286 0.873558 0.308972 0.263765
C58   C     C_2   0.444115 0.876303 0.679449 0.334987
C59   C     C_2   0.291767 0.797023 0.159961 0.301608
C60   C     C_2   0.074400 0.481712 0.197158 0.273313
C61   C     C_2   0.651458 0.902279 0.653435 0.216944
C62   C     C_2   0.617144 0.549076 0.857903 0.315458
C63   C     C_2   0.522060 0.566594 0.716061 0.182291
C64   C     C_R   0.773782 0.189180 0.713520 -0.059453
C65   C     C_R   0.789075 0.171074 0.787865 -0.080240
C66   C     C_R   0.679778 0.176079 0.829199 -0.040393
Cr1   Cr    Cr6+3 0.392930 0.397900 0.502230 1.095166
Cr2   Cr    Cr6+3 0.398240 0.708600 0.501260 1.128305
Cr3   Cr    Cr6+3 0.708800 0.393470 0.496460 1.121865
Cr4   Cr    Cr6+3 0.937620 0.938540 0.007640 1.057809
Cr5   Cr    Cr6+3 0.625150 0.937450 0.994520 1.101394
Cr6   Cr    Cr6+3 0.937990 0.625080 0.001190 1.060271
H1    H     H_    0.627984 0.919324 0.788669 0.115453
H2    H     H_    0.463452 0.233585 0.831959 0.199876
H3    H     H_    0.408185 0.163927 0.648938 0.227462
H4    H     H_    0.214701 0.457937 0.697238 0.187884
H5    H     H_    0.193569 0.468500 0.827724 0.166303
H6    H     H_    0.297039 0.824880 0.892218 0.202915
H7    H     H_    0.514633 0.850988 0.805128 0.200165
H8    H     H_    0.042490 0.923841 0.647604 0.150831
H9    H     H_    0.590934 0.492421 0.289354 0.137959
H10   H     H_    0.628236 0.488796 0.091034 0.134951
H11   H     H_    0.698330 0.813776 0.330207 0.118305
H12   H     H_    0.713778 0.844533 0.201649 0.105205
H13   H     H_    0.337570 0.161308 0.210227 0.126328
H14   H     H_    0.849589 0.236433 0.120448 0.126115
H15   H     H_    0.835699 0.189294 0.313838 0.182891
H16   H     H_    0.143053 0.954488 0.338791 0.146002
H17   H     H_    0.386509 0.843014 0.712572 0.148973
H18   H     H_    0.298652 0.887534 0.176892 0.157685
H19   H     H_    0.096497 0.438511 0.143867 0.193516
H20   H     H_    0.130534 0.505932 0.330349 0.184449
H21   H     H_    0.717377 0.935355 0.680025 0.070551
H22   H     H_    0.884195 0.749623 0.761782 0.092420
H23   H     H_    0.458482 0.160801 0.317472 0.156254
H24   H     H_    0.807798 0.474077 0.806805 0.147593
H25   H     H_    0.629866 0.446140 0.866958 0.152935
H26   H     H_    0.450077 0.631688 0.677233 0.136943
H27   H     H_    0.873723 0.686100 0.647002 0.160063
H28   H     H_    0.733872 0.452642 0.705084 0.122124
H29   H     H_    0.955460 0.572201 0.787010 0.135939
H30   H     H_    0.004754 0.399206 0.707688 0.142659
H31   H     H_    0.940237 0.246750 0.702034 0.170443
H32   H     H_    0.990439 0.030917 0.836925 0.172067
O1    O     O_R   0.507430 0.255570 0.581420 -0.525879
O2    O     O_R   0.837200 0.593290 0.915250 -0.496289
O3    O     O_R   0.065330 0.635370 0.931590 -0.508875
O4    O     O_R   0.280190 0.527390 0.578910 -0.481386
O5    O     O_R   0.068300 0.828790 0.091860 -0.478243
O6    O     O_R   0.798730 0.057480 0.079370 -0.538362
O7    O     O_R   0.584680 0.080480 0.076790 -0.459215
O8    O     O_R   0.626790 0.809640 0.067050 -0.475442
O9    O     O_R   0.816010 0.596460 0.076500 -0.518538
O10   O     O_R   0.045680 0.638310 0.081070 -0.526960
O11   O     O_3   0.833590 0.833690 0.001120 -0.304403
O12   O     O_R   0.524460 0.695920 0.424060 -0.461961
O13   O     O_R   0.260310 0.739740 0.584580 -0.506760
O14   O     O_R   0.532250 0.695150 0.573830 -0.482636
O15   O     O_R   0.744930 0.503430 0.576380 -0.468804
O16   O     O_R   0.699250 0.276390 0.571950 -0.444563
O17   O     O_R   0.499020 0.256400 0.419850 -0.502983
O18   O     O_R   0.272400 0.528160 0.429140 -0.497141
O19   O     O_R   0.251910 0.740570 0.423020 -0.506264
O20   O     O_2   0.007416 0.442223 0.605375 -0.447454
O21   O     O_2   0.928020 0.156780 0.614654 -0.450788
O22   O     O_2   0.952726 0.227133 0.835630 -0.501733
O23   O     O_R   0.736530 0.504260 0.414810 -0.498391
O24   O     O_2   0.323449 0.211894 0.743588 -0.493959
O25   O     O_2   0.248372 0.963169 0.817040 -0.448455
O26   O     O_2   0.146378 0.002140 0.699028 -0.403846
O27   O     O_2   0.512083 0.460595 0.163879 -0.500366
O28   O     O_2   0.356619 0.271545 0.131300 -0.475477
O29   O     O_2   0.974731 0.171916 0.203337 -0.501778
O30   O     O_2   0.337830 0.879870 0.302568 -0.528812
O31   O     O_2   0.385288 0.955922 0.630534 -0.395425
O32   O     O_2   0.337188 0.750124 0.100643 -0.475605
O33   O     O_2   0.003096 0.451861 0.236171 -0.495620
O34   O     O_R   0.691460 0.277160 0.422180 -0.507943
O35   O     O_2   0.634590 0.921622 0.589458 -0.468221
O36   O     O_2   0.534436 0.645075 0.895201 -0.508543
O37   O     O_2   0.493066 0.489579 0.749825 -0.544189
O38   O     O_3   0.499990 0.499990 0.499980 -0.307511
O39   O     O_R   0.089490 0.825610 0.930610 -0.533159
O40   O     O_R   0.818370 0.054540 0.929880 -0.512790
O41   O     O_R   0.605870 0.077310 0.915530 -0.522381
O42   O     O_R   0.646440 0.806700 0.917570 -0.450081

loop_
_geom_bond_atom_site_label_1
_geom_bond_atom_site_label_2
_ccdc_geom_bond_type
C43   H1    S    
C34   C56   S    
C13   H9    S    
C42   O34   A    
C9    C51   S    
C41   O10   A    
C10   C52   S    
C49   H32   S    
C51   O25   D    
C28   O19   A    
C7    C8    A    
C32   H20   S    
C45   C46   S    
C27   C33   A    
C24   C55   S    
C49   O22   D    
C12   C23   S    
Cr4   O39   S    
C49   C65   S    
C37   O3    A    
C63   H26   S    
C16   O16   A    
C30   C31   A    
C28   O18   A    
Cr1   O4    S    
C48   C64   S    
C27   C29   A    
C43   H7    S    
C22   C38   S    
Cr6   O10   S    
C59   O32   D    
C25   H15   S    
C23   C43   S    
C18   C19   A    
C35   O41   A    
C5    C16   S    
Cr4   O6    S    
Cr2   O14   S    
C48   O21   D    
C29   C59   S    
C44   C58   S    
C8    C9    A    
C39   O9    A    
Cr5   O7    S    
C30   C41   S    
Cr2   O38   S    
C53   O27   D    
C58   O31   D    
C38   O6    A    
C9    C10   A    
C2    H2    S    
C60   O33   D    
C7    H5    S    
C23   C46   S    
C41   O5    A    
C13   C14   A    
C4    O14   A    
Cr1   O17   S    
Cr2   O19   S    
C3    C50   S    
C18   H11   S    
C45   C47   S    
C46   H29   S    
C4    C34   S    
C13   C19   A    
C36   O2    A    
C34   C44   S    
C24   C25   A    
C27   C57   S    
C6    C11   A    
Cr1   O1    S    
C35   C66   S    
C3    C5    A    
C25   C26   A    
C55   O29   D    
C48   H31   S    
Cr6   O9    S    
Cr3   O15   S    
C5    C64   A    
C53   H10   S    
C59   H18   S    
C31   C60   S    
C43   C44   S    
C29   C30   A    
Cr4   O5    S    
Cr2   O13   S    
C62   H25   S    
C12   C62   S    
C31   C32   A    
C46   H22   S    
Cr6   O3    S    
Cr5   O8    S    
Cr5   O42   S    
C17   C18   A    
C63   O37   D    
C56   C63   S    
Cr5   O11   S    
C4    O15   A    
C34   C45   S    
C1    O13   A    
C15   C39   S    
C12   C56   S    
C16   O1    A    
Cr2   O12   S    
C36   O42   A    
C39   O8    A    
Cr5   O41   S    
C20   H23   S    
Cr6   O2    S    
C28   C33   S    
C65   C66   A    
C10   C11   A    
C45   H27   S    
C44   C61   S    
C22   C24   A    
C57   O30   D    
C50   O24   D    
C8    C37   S    
C56   H28   S    
Cr1   O18   S    
C26   C42   S    
C60   H19   S    
Cr3   O34   S    
C15   C17   A    
C37   O39   A    
C61   O35   D    
C2    C66   A    
C54   H13   S    
C6    H4    S    
C6    C7    A    
Cr4   O11   S    
C54   O28   D    
C35   O40   A    
Cr3   O16   S    
Cr4   O40   S    
C57   H16   S    
C21   C54   S    
C17   H12   S    
C52   O26   D    
C64   C65   A    
C55   H14   S    
C2    C3    A    
Cr3   O38   S    
C51   H6    S    
C52   H8    S    
C50   H3    S    
C32   C33   A    
C40   O23   A    
C47   O20   D    
C40   O12   A    
C20   C26   A    
C61   H21   S    
C58   H17   S    
C19   C40   S    
C1    O4    A    
C14   C53   S    
C20   C21   A    
Cr3   O23   S    
C23   C36   S    
C47   H30   S    
C14   C15   A    
C12   H24   S    
C1    C11   S    
C62   O36   D    
C38   O7    A    
C21   C22   A    
Cr1   O38   S    
C42   O17   A    
Cr6   O11   S    
