data_mof_unit_47572.cif
_audit_creation_date              2012-12-10T16:48:38-0500
_audit_creation_method            fapswitch 2.2
_symmetry_space_group_name_H-M    P1
_symmetry_Int_Tables_number       1
_space_group_crystal_system       triclinic
_cell_length_a                    7.827355
_cell_length_b                    8.594128
_cell_length_c                    10.663369
_cell_angle_alpha                 89.448861
_cell_angle_beta                  97.823934
_cell_angle_gamma                 93.186873
_cell_volume                      709.539297098

loop_
_atom_site_label
_atom_site_type_symbol
_atom_type_description
_atom_site_fract_x
_atom_site_fract_y
_atom_site_fract_z
_atom_type_partial_charge
Br1   Br    Br    0.167362 0.556286 0.046075 -0.475758
Br2   Br    Br    0.765855 0.350571 0.951116 -0.452323
Br3   Br    Br    0.781105 0.020038 0.623516 -0.378488
Br4   Br    Br    0.218820 0.979889 0.376715 -0.394162
C1    C     C_R   0.543537 0.794351 0.497143 0.905610
C2    C     C_2   0.432084 0.044517 0.483312 -0.007237
C3    C     C_3   0.893590 0.310575 0.295105 0.036371
C4    C     C_3   0.107153 0.689262 0.704939 -0.007753
C5    C     C_R   0.456483 0.205654 0.502933 0.938348
C6    C     C_R   0.571233 0.495563 0.735985 0.857994
C7    C     C_R   0.430892 0.515045 0.263810 0.853657
C8    C     C_2   0.612115 0.500190 0.871373 0.148714
C9    C     C_2   0.400039 0.551816 0.129744 0.137978
C10   C     C_2   0.523370 0.593807 0.934620 -0.177841
C11   C     C_2   0.537934 0.584415 0.070236 -0.165920
C12   C     C_2   0.567918 0.955468 0.516832 -0.002359
H1    H     H_    0.668482 0.586086 0.120324 0.196611
H2    H     H_    0.429366 0.669382 0.885303 0.161041
H3    H     H_    0.873975 0.419183 0.238808 0.155003
H4    H     H_    0.769543 0.251538 0.312002 0.165732
H5    H     H_    0.957360 0.230289 0.237681 0.192676
H6    H     H_    0.229248 0.751185 0.687080 0.159118
H7    H     H_    0.130489 0.580370 0.760286 0.171511
H8    H     H_    0.042500 0.767168 0.763760 0.184163
N1    N     N_2   0.940600 0.458860 0.467170 0.195508
N2    N     N_2   0.059400 0.541140 0.532830 0.201225
O1    O     O_R   0.391630 0.738350 0.508060 -0.615239
O2    O     O_3   0.997563 0.659471 0.591654 -0.502628
O3    O     O_R   0.608370 0.261650 0.491940 -0.609846
O4    O     O_R   0.674540 0.711990 0.487010 -0.547149
O5    O     O_R   0.325460 0.288010 0.512990 -0.537620
O6    O     O_R   0.411370 0.508250 0.688780 -0.673625
O7    O     O_R   0.588630 0.491750 0.311220 -0.689384
O8    O     O_R   0.694270 0.481880 0.667740 -0.549399
O9    O     O_R   0.305730 0.518120 0.332260 -0.546433
O10   O     O_3   0.002177 0.339882 0.408961 -0.507531
Zn1   Zn    Zn3+2 0.311100 0.517600 0.514050 1.092665
Zn2   Zn    Zn3+2 0.688900 0.482400 0.485950 1.086769

loop_
_geom_bond_atom_site_label_1
_geom_bond_atom_site_label_2
_ccdc_geom_bond_type
O3    Zn2   S    
C4    H6    S    
N2    Zn1   S    
N1    Zn2   S    
C3    O10   S    
C10   H2    S    
N2    O2    S    
O7    Zn2   S    
C5    O3    A    
Br2   C8    S    
C2    C5    S    
C7    O9    A    
C6    O8    A    
C3    H5    S    
O6    Zn1   S    
C7    C9    S    
C6    C8    S    
O1    Zn1   S    
C4    H8    S    
C8    C10   D    
C3    H4    S    
C3    H3    S    
C9    C11   D    
C4    O2    S    
Br1   C9    S    
C5    O5    A    
N1    O10   S    
C2    C12   D    
C6    O6    A    
C7    O7    A    
C4    H7    S    
O4    Zn2   S    
Br4   C2    S    
C1    O4    A    
C11   H1    S    
C10   C11   S    
C1    C12   S    
O9    Zn1   S    
N1    N2    D    
C1    O1    A    
Br3   C12   S    
O5    Zn1   S    
O8    Zn2   S    
