data_mof_unit_68170.cif
_audit_creation_date              2012-12-11T16:30:25-0500
_audit_creation_method            fapswitch 2.2
_symmetry_space_group_name_H-M    P1
_symmetry_Int_Tables_number       1
_space_group_crystal_system       triclinic
_cell_length_a                    7.227572
_cell_length_b                    14.16756
_cell_length_c                    16.446514
_cell_angle_alpha                 90.000087
_cell_angle_beta                  89.732458
_cell_angle_gamma                 89.999847
_cell_volume                      1684.0563204

loop_
_atom_site_label
_atom_site_type_symbol
_atom_type_description
_atom_site_fract_x
_atom_site_fract_y
_atom_site_fract_z
_atom_type_partial_charge
O1    O     O_R   0.611670 0.415650 0.164070 -0.537284
O2    O     O_R   0.388330 0.915650 0.835930 -0.537258
O3    O     O_R   0.940950 0.405490 0.337780 -0.536026
O4    O     O_R   0.059050 0.905490 0.662220 -0.536050
O5    O     O_R   0.111350 0.584350 0.338470 -0.578594
O6    O     O_R   0.888650 0.084350 0.661530 -0.578600
C1    C     C_R   0.771844 0.382326 0.364377 0.662203
C2    C     C_R   0.228157 0.882325 0.635624 0.662348
O7    O     O_R   0.941380 0.404630 0.164680 -0.556212
O8    O     O_R   0.058620 0.904630 0.835320 -0.556225
O9    O     O_R   0.111780 0.583470 0.164130 -0.546394
O10   O     O_R   0.888220 0.083470 0.835870 -0.546398
C3    C     C_R   0.773874 0.383326 0.136888 0.674534
C4    C     C_R   0.226127 0.883326 0.863112 0.674573
O11   O     O_R   0.611240 0.416530 0.338400 -0.506136
O12   O     O_R   0.388760 0.916530 0.661600 -0.506029
O13   O     O_3   0.778020 0.558680 0.251290 -0.376354
O14   O     O_3   0.221980 0.058680 0.748710 -0.376385
V1    V     V_3+5 0.052840 0.489110 0.251260 1.446433
V2    V     V_3+5 0.947160 0.989110 0.748740 1.446486
O15   O     O_R   0.441500 0.594510 0.164760 -0.547304
O16   O     O_R   0.558500 0.094510 0.835240 -0.547308
C5    C     C_R   0.274865 0.619815 0.138363 0.679577
C6    C     C_R   0.725134 0.119816 0.861637 0.679562
O17   O     O_R   0.441080 0.595370 0.337860 -0.469991
O18   O     O_R   0.558920 0.095370 0.662140 -0.470017
C7    C     C_R   0.270596 0.616408 0.367382 0.728434
C8    C     C_R   0.729403 0.116404 0.632615 0.728411
V3    V     V_3+5 0.552850 0.510890 0.251270 1.532722
V4    V     V_3+5 0.447150 0.010890 0.748730 1.532835
O19   O     O_3   0.277800 0.441320 0.251250 -0.350443
O20   O     O_3   0.722200 0.941320 0.748750 -0.350383
C9    C     C_3   0.042859 0.710558 0.466751 -0.107240
C10   C     C_3   0.957143 0.210550 0.533244 -0.107242
C11   C     C_3   0.045935 0.793304 0.530784 -0.224539
C12   C     C_3   0.954072 0.293298 0.469213 -0.224459
H1    H     H_    0.940245 0.781872 0.578791 0.229306
H2    H     H_    0.059752 0.281861 0.421204 0.229301
H3    H     H_    0.007756 0.862290 0.503745 0.228386
H4    H     H_    0.992285 0.362279 0.496243 0.228389
H5    H     H_    0.340515 0.920064 0.485683 0.163931
H6    H     H_    0.659459 0.420065 0.514315 0.163977
C13   C     C_3   0.348454 0.782236 0.420453 -0.187555
C14   C     C_3   0.651544 0.282230 0.579542 -0.187553
C15   C     C_3   0.347463 0.640697 0.523463 -0.025895
C16   C     C_3   0.652533 0.140692 0.476529 -0.025836
C17   C     C_3   0.252663 0.684851 0.441983 -0.127637
C18   C     C_3   0.747336 0.184845 0.558011 -0.127631
C19   C     C_3   0.240139 0.808704 0.567692 -0.063832
C20   C     C_3   0.759865 0.308701 0.432306 -0.063975
C21   C     C_3   0.367942 0.844366 0.498130 -0.248660
C22   C     C_3   0.632045 0.344360 0.501865 -0.248624
C23   C     C_3   0.312429 0.710869 0.598163 -0.276904
C24   C     C_3   0.687575 0.210865 0.401829 -0.277034
H7    H     H_    0.199024 0.681901 0.636421 0.123629
H8    H     H_    0.800993 0.181892 0.363576 0.123681
H9    H     H_    0.489080 0.771317 0.396257 0.226616
H10   H     H_    0.510918 0.271312 0.603742 0.226572
H11   H     H_    0.513886 0.841404 0.518278 0.243483
H12   H     H_    0.486091 0.341385 0.481708 0.243407
H13   H     H_    0.066801 0.575467 0.767973 0.165891
H14   H     H_    0.933248 0.075471 0.232021 0.165900
C25   C     C_R   0.279179 0.953343 0.034179 0.043623
C26   C     C_R   0.720825 0.453344 0.965823 0.043624
C27   C     C_R   0.343869 0.983272 0.111152 0.023491
C28   C     C_R   0.656127 0.483272 0.888851 0.023485
C29   C     C_R   0.420491 0.917430 0.165783 -0.061080
C30   C     C_R   0.579507 0.417430 0.834220 -0.061024
C31   C     C_R   0.424952 0.820408 0.144126 -0.141757
C32   C     C_R   0.575043 0.320409 0.855877 -0.141743
C33   C     C_R   0.325009 0.786142 0.075450 -0.029546
C34   C     C_R   0.674992 0.286142 0.924551 -0.029571
C35   C     C_R   0.277702 0.853596 0.013958 0.031061
C36   C     C_R   0.722304 0.353597 0.986043 0.031084
C37   C     C_R   0.277616 0.686803 0.065579 -0.163971
C38   C     C_R   0.722384 0.186804 0.934422 -0.163965
C39   C     C_R   0.226247 0.653242 0.986077 0.036062
C40   C     C_R   0.773761 0.153243 0.013922 0.036068
C41   C     C_R   0.197369 0.721162 0.922658 0.069185
C42   C     C_R   0.802645 0.221163 0.077341 0.069164
C43   C     C_R   0.229672 0.819087 0.935198 -0.120622
C44   C     C_R   0.770334 0.319088 0.064801 -0.120611
C45   C     C_R   0.211409 0.553976 0.964736 0.153302
C46   C     C_R   0.788600 0.053977 0.035263 0.153305
C47   C     C_R   0.139821 0.527669 0.887629 0.219667
C48   C     C_R   0.860203 0.027671 0.112368 0.219661
C49   C     C_R   0.113561 0.595523 0.828107 -0.145697
C50   C     C_R   0.886478 0.095525 0.171888 -0.145610
C51   C     C_R   0.141423 0.689777 0.844856 -0.161090
C52   C     C_R   0.858608 0.189779 0.155140 -0.161133
H15   H     H_    0.117885 0.737534 0.794753 0.110119
H16   H     H_    0.882156 0.237538 0.205241 0.110107
C53   C     C_2   0.917202 0.740126 0.395488 0.423949
H17   H     H_    0.887312 0.693189 0.345863 0.126338
O21   O     O_2   0.836919 0.815994 0.393816 -0.510707
C54   C     C_2   0.082805 0.240112 0.604508 0.423878
H18   H     H_    0.112767 0.193148 0.654110 0.126398
O22   O     O_2   0.163026 0.315999 0.606200 -0.510696
C55   C     C_2   0.469993 0.719520 0.658532 0.394705
H19   H     H_    0.446784 0.698536 0.720771 0.130287
O23   O     O_2   0.619576 0.752970 0.639530 -0.507944
C56   C     C_2   0.530027 0.219540 0.341441 0.395270
H20   H     H_    0.553453 0.198848 0.279135 0.129891
O24   O     O_2   0.380289 0.252805 0.360479 -0.507991
C57   C     C_3   0.206670 0.029635 0.976699 -0.751673
H21   H     H_    0.174511 0.098677 0.004023 0.164694
H22   H     H_    0.304195 0.045819 0.927301 0.216914
H23   H     H_    0.075444 0.007636 0.951082 0.222532
C58   C     C_3   0.793334 0.529635 0.023303 -0.751641
H24   H     H_    0.825477 0.598680 0.995980 0.164694
H25   H     H_    0.695815 0.545816 0.072703 0.216917
H26   H     H_    0.924565 0.507639 0.048915 0.222534
C59   C     C_2   0.342279 0.085477 0.132007 0.467768
H27   H     H_    0.217343 0.126493 0.130083 0.048071
O25   O     O_2   0.483934 0.126199 0.149679 -0.544594
C60   C     C_2   0.657739 0.585477 0.867991 0.467681
H28   H     H_    0.782685 0.626485 0.869912 0.048102
O26   O     O_2   0.516098 0.626208 0.850317 -0.544635
C61   C     C_2   0.498815 0.950290 0.245368 0.413289
H29   H     H_    0.611165 0.913781 0.274832 0.110848
O27   O     O_2   0.432697 0.017428 0.281720 -0.523979
C62   C     C_2   0.501221 0.450285 0.754628 0.413152
H30   H     H_    0.388881 0.413780 0.725155 0.110871
O28   O     O_2   0.567376 0.517411 0.718275 -0.524071
C63   C     C_2   0.574845 0.761456 0.177682 0.321193
H31   H     H_    0.668183 0.725368 0.136088 0.079047
O29   O     O_2   0.593754 0.750154 0.250570 -0.547299
C64   C     C_2   0.425142 0.261459 0.822326 0.321219
H32   H     H_    0.331810 0.225372 0.863923 0.079038
O30   O     O_2   0.406222 0.250156 0.749439 -0.547307
C65   C     C_3   0.290858 0.475101 0.016442 -0.746163
H33   H     H_    0.330658 0.412499 0.980091 0.203954
H34   H     H_    0.419949 0.497821 0.044022 0.216822
H35   H     H_    0.195923 0.450690 0.064551 0.213024
C66   C     C_3   0.709152 0.975101 0.983558 -0.746166
H36   H     H_    0.669373 0.912495 0.019907 0.203960
H37   H     H_    0.580054 0.997818 0.955983 0.216818
H38   H     H_    0.804081 0.950696 0.935444 0.213026
C67   C     C_3   0.089552 0.427508 0.865691 -0.790858
H39   H     H_    0.059619 0.383214 0.919565 0.215646
H40   H     H_    0.968020 0.425445 0.825024 0.229055
H41   H     H_    0.201796 0.395363 0.831460 0.197189
C68   C     C_3   0.910457 0.927509 0.134303 -0.790914
H42   H     H_    0.940497 0.883238 0.080428 0.215675
H43   H     H_    0.031909 0.925437 0.175019 0.229075
H44   H     H_    0.798137 0.895346 0.168470 0.197151
C69   C     C_2   0.956905 0.622980 0.504103 0.428562
H45   H     H_    0.928604 0.562046 0.466084 0.090513
O31   O     O_2   0.926872 0.616080 0.577091 -0.527824
C70   C     C_2   0.043092 0.122971 0.495889 0.428575
H46   H     H_    0.071392 0.062036 0.533909 0.090469
O32   O     O_2   0.073113 0.116069 0.422899 -0.527764
C71   C     C_2   0.250262 0.832423 0.351674 0.420335
H47   H     H_    0.240705 0.797955 0.293028 0.028611
O33   O     O_2   0.175301 0.908999 0.360899 -0.484699
C72   C     C_2   0.749743 0.332416 0.648320 0.420449
H48   H     H_    0.759290 0.297950 0.706968 0.028593
O34   O     O_2   0.824718 0.408988 0.639091 -0.484667
C73   C     C_2   0.547120 0.621700 0.513414 0.411623
H49   H     H_    0.617575 0.583850 0.561236 0.146675
O35   O     O_2   0.627652 0.640975 0.451361 -0.564172
C74   C     C_2   0.452879 0.121693 0.486580 0.411673
H50   H     H_    0.382420 0.083842 0.438761 0.146773
O36   O     O_2   0.372348 0.140972 0.548633 -0.564223
C75   C     C_2   0.281358 0.541434 0.545653 0.279251
H51   H     H_    0.253367 0.523005 0.608610 0.139491
O37   O     O_2   0.267495 0.479937 0.494041 -0.541632
C76   C     C_2   0.718641 0.041430 0.454339 0.279279
H52   H     H_    0.746617 0.023000 0.391381 0.139513
O38   O     O_2   0.732526 0.979935 0.505952 -0.541618

loop_
_geom_bond_atom_site_label_1
_geom_bond_atom_site_label_2
_ccdc_geom_bond_type
C68   H44   S    
C28   C30   A    
C25   C27   A    
C46   C66   S    
C53   H17   S    
C66   H38   S    
O13   V3    S    
C14   H10   S    
C69   H45   S    
C15   C73   S    
O4    C2    A    
C65   H35   S    
V1    O19   S    
C64   H32   S    
C10   C70   S    
C12   C20   S    
C66   H36   S    
C23   C55   S    
C57   H22   S    
O9    V1    S    
C75   H51   S    
C28   C60   S    
O16   C6    A    
C72   H48   S    
C11   H1    S    
C38   C40   A    
C59   H27   S    
O3    C1    A    
C58   H25   S    
C67   H41   S    
C40   C42   A    
C39   C45   A    
O12   V4    S    
C68   H42   S    
C48   C50   A    
C60   H28   S    
C66   H37   S    
C15   C17   S    
C31   C33   A    
O7    C3    A    
C22   H12   S    
C9    C11   S    
O5    C7    A    
O7    V1    S    
O6    C8    A    
C73   H49   S    
O8    V2    S    
C27   C29   A    
C54   O22   D    
C11   C19   S    
C20   C22   S    
C73   O35   D    
O3    V1    S    
O14   V4    S    
C71   O33   D    
H13   C49   S    
C47   C67   S    
C10   C12   S    
C34   C38   A    
C14   C22   S    
C76   O38   D    
C15   C23   S    
C2    O12   A    
C33   C37   A    
O10   V2    S    
C36   C44   A    
C35   C43   A    
C48   C68   S    
O11   V3    S    
C21   H11   S    
C24   H8    S    
C23   H7    S    
O17   V3    S    
C57   H23   S    
C16   C18   S    
C69   O31   D    
C47   C49   A    
C14   C72   S    
C12   H4    S    
C34   C36   A    
O8    C4    A    
C58   H26   S    
C30   C62   S    
C33   C35   A    
C6    C38   S    
C1    O11   A    
C25   C35   A    
C19   C21   S    
O15   V3    S    
C3    C44   S    
C9    C53   S    
C29   C31   A    
C26   C28   A    
C11   H3    S    
C29   C61   S    
C45   C65   S    
C9    C69   S    
C52   H16   S    
C55   H19   S    
C61   H29   S    
C54   H18   S    
C16   C24   S    
O1    V3    S    
C39   C41   A    
C20   C24   S    
C56   O24   D    
C37   C39   A    
C61   O27   D    
C16   C76   S    
C30   C32   A    
C76   H52   S    
C45   C47   A    
C50   C52   A    
O18   V4    S    
O15   C5    A    
C63   H31   S    
C9    C17   S    
C70   O32   D    
O1    C3    A    
C62   O28   D    
C65   H33   S    
C15   C75   S    
C5    C37   S    
C41   C43   A    
C74   H50   S    
V2    O20   S    
C32   C64   S    
C68   H43   S    
C8    C18   S    
O16   V4    S    
C55   O23   D    
C27   C59   S    
C24   C56   S    
C1    C20   S    
C46   C48   A    
C65   H34   S    
C64   O30   D    
C67   H39   S    
O5    V1    S    
O17   C7    A    
O6    V2    S    
C57   H21   S    
O10   C6    A    
O18   C8    A    
C7    C17   S    
O2    V4    S    
C72   O34   D    
C71   H47   S    
V3    O19   S    
C74   O36   D    
C58   H24   S    
C12   H2    S    
V4    O20   S    
C67   H40   S    
C13   C21   S    
C26   C58   S    
C53   O21   D    
H14   C50   S    
C19   C23   S    
O9    C5    A    
O13   V1    S    
C42   C44   A    
C60   O26   D    
O14   V2    S    
C42   C52   A    
C56   H20   S    
O2    C4    A    
C41   C51   A    
C25   C57   S    
C13   H9    S    
C31   C63   S    
O4    V2    S    
C40   C46   A    
C10   C18   S    
C75   O37   D    
C51   H15   S    
C16   C74   S    
C63   O29   D    
C49   C51   A    
C26   C36   A    
C70   H46   S    
C32   C34   A    
C4    C43   S    
C62   H30   S    
C13   C71   S    
C13   C17   S    
C2    C19   S    
H5    C21   S    
C10   C54   S    
C14   C18   S    
H6    C22   S    
C59   O25   D    
