data_mof_unit_7768.cif
_audit_creation_date              2012-12-11T15:45:03-0500
_audit_creation_method            fapswitch 2.2
_symmetry_space_group_name_H-M    P1
_symmetry_Int_Tables_number       1
_space_group_crystal_system       triclinic
_cell_length_a                    6.934082
_cell_length_b                    16.808657
_cell_length_c                    17.06691
_cell_angle_alpha                 100.359225
_cell_angle_beta                  88.095162
_cell_angle_gamma                 91.753329
_cell_volume                      1955.07382238

loop_
_atom_site_label
_atom_site_type_symbol
_atom_type_description
_atom_site_fract_x
_atom_site_fract_y
_atom_site_fract_z
_atom_type_partial_charge
O1    O     O_R   0.494370 0.415690 0.413450 -0.540481
O2    O     O_R   0.819420 0.429360 0.578420 -0.539532
O3    O     O_R   0.994280 0.584310 0.586550 -0.540738
C1    C     C_R   0.646436 0.413294 0.604731 0.700997
O4    O     O_R   0.823790 0.406230 0.413570 -0.543840
O5    O     O_R   0.998670 0.561000 0.420530 -0.536874
C2    C     C_R   0.655050 0.382986 0.385024 0.683996
O6    O     O_R   0.489970 0.439000 0.579470 -0.537856
O7    O     O_3   0.662300 0.550810 0.502470 -0.369562
V1    V     V_3+5 0.935380 0.490570 0.499540 1.403587
O8    O     O_R   0.328650 0.570640 0.421580 -0.543454
C3    C     C_R   0.164600 0.586942 0.395041 0.701684
O9    O     O_R   0.324290 0.593770 0.586430 -0.543972
C4    C     C_R   0.154911 0.616987 0.615060 0.685479
V2    V     V_3+5 0.435930 0.509430 0.500460 1.402146
O10   O     O_3   0.159140 0.449190 0.497530 -0.366641
C5    C     C_R   0.312308 0.723736 0.717585 -0.156396
H1    H     H_    0.453366 0.704395 0.693844 0.116357
C6    C     C_R   0.301258 0.787539 0.782697 -0.151091
H2    H     H_    0.434312 0.815501 0.806955 0.117923
C7    C     C_R   0.121296 0.814846 0.815895 -0.046867
C8    C     C_R   0.952699 0.776641 0.782027 -0.156261
H3    H     H_    0.811638 0.795987 0.805760 0.116285
C9    C     C_R   0.963748 0.712842 0.716916 -0.151046
H4    H     H_    0.830689 0.684892 0.692654 0.117951
C10   C     C_R   0.143709 0.685466 0.683777 -0.047015
C11   C     C_R   0.174916 0.641032 0.334433 -0.069826
C12   C     C_R   0.089981 0.859062 0.165656 -0.070224
C13   C     C_R   0.893739 0.797733 0.262129 -0.201396
C14   C     C_R   0.916007 0.852641 0.209702 -0.166594
C15   C     C_R   0.243361 0.809589 0.176452 -0.239671
C16   C     C_R   0.220783 0.753258 0.228625 0.159814
C17   C     C_R   0.044226 0.746976 0.271610 0.160562
C18   C     C_R   0.021595 0.690580 0.323723 -0.238535
C19   C     C_R   0.348966 0.647543 0.290461 -0.164077
C20   C     C_R   0.371293 0.702519 0.238111 -0.201394
H5    H     H_    0.887266 0.686939 0.357403 0.123470
H6    H     H_    0.469924 0.610178 0.296921 0.129184
H7    H     H_    0.757899 0.794602 0.294831 0.122334
H8    H     H_    0.507153 0.705668 0.205421 0.122944
H9    H     H_    0.795053 0.889999 0.203212 0.128228
H10   H     H_    0.377668 0.813202 0.142754 0.123664
C21   C     C_R   0.621537 0.360043 0.665309 -0.069418
C22   C     C_R   0.643162 0.138084 0.833144 -0.079776
C23   C     C_R   0.830490 0.173466 0.719175 -0.015428
C24   C     C_R   0.796385 0.124115 0.776887 -0.210256
C25   C     C_R   0.520825 0.202448 0.831102 -0.258518
C26   C     C_R   0.554365 0.253960 0.775211 0.141538
C27   C     C_R   0.712799 0.241288 0.719889 0.106247
C28   C     C_R   0.748559 0.296923 0.667370 -0.238574
C29   C     C_R   0.461502 0.369327 0.718521 -0.152559
C30   C     C_R   0.430130 0.317854 0.773654 -0.169518
H11   H     H_    0.872558 0.290917 0.626797 0.138081
H12   H     H_    0.360896 0.417254 0.718019 0.122280
H13   H     H_    0.306760 0.327465 0.814580 0.116910
H14   H     H_    0.887644 0.072825 0.776677 0.126699
H15   H     H_    0.401364 0.213334 0.873962 0.124194
C31   C     C_R   0.811314 0.275573 0.282414 -0.160394
H16   H     H_    0.951731 0.294451 0.306031 0.116391
C32   C     C_R   0.799982 0.211816 0.217283 -0.153351
H17   H     H_    0.932319 0.183458 0.192915 0.118509
C33   C     C_R   0.620789 0.185058 0.184195 -0.045961
C34   C     C_R   0.453205 0.223747 0.218289 -0.159828
H18   H     H_    0.312779 0.204839 0.194702 0.116244
C35   C     C_R   0.464537 0.287506 0.283419 -0.151915
H19   H     H_    0.332192 0.315838 0.307815 0.118993
C36   C     C_R   0.643781 0.314403 0.316371 -0.046268
O11   O     O_R   0.774880 0.061150 0.920630 -0.538385
O12   O     O_R   0.440980 0.093710 0.086500 -0.543841
O13   O     O_R   0.266190 0.938890 0.079390 -0.536918
C37   C     C_R   0.609642 0.116779 0.115237 0.683820
O14   O     O_R   0.445420 0.070740 0.921670 -0.540445
O15   O     O_R   0.270660 0.915760 0.913380 -0.540700
C38   C     C_R   0.618358 0.086563 0.895172 0.712910
O16   O     O_R   0.770400 0.084270 0.086640 -0.540791
O17   O     O_3   0.602590 0.949210 0.997500 -0.369454
V3    V     V_3+5 0.329470 0.009420 0.000470 1.398340
O18   O     O_R   0.940650 0.906250 0.913470 -0.543895
C39   C     C_R   0.110055 0.883163 0.884761 0.686192
O19   O     O_R   0.936210 0.929220 0.078300 -0.543161
C40   C     C_R   0.100250 0.913005 0.104919 0.701278
V4    V     V_3+5 0.828930 0.990510 0.999490 1.398498
O20   O     O_3   0.105680 0.050790 0.002500 -0.367483
C41   C     C_R   0.984504 0.149969 0.657418 0.087796
C42   C     C_R   0.172109 0.136549 0.679874 -0.117803
C43   C     C_R   0.316820 0.113229 0.621987 -0.106381
C44   C     C_R   0.275047 0.102428 0.541185 -0.099659
C45   C     C_R   0.087820 0.113842 0.518174 -0.110214
C46   C     C_R   0.942527 0.136778 0.575934 -0.148035
H20   H     H_    0.205678 0.144150 0.742224 0.115360
H21   H     H_    0.461111 0.103178 0.639744 0.119070
H22   H     H_    0.387327 0.084526 0.496442 0.103068
H23   H     H_    0.054986 0.104546 0.455568 0.108974
H24   H     H_    0.797468 0.144269 0.557191 0.104276

loop_
_geom_bond_atom_site_label_1
_geom_bond_atom_site_label_2
_ccdc_geom_bond_type
C44   C45   A    
C34   C35   A    
C15   H10   S    
C18   H5    S    
O12   V3    S    
C19   C20   A    
C1    O6    A    
C42   C43   A    
C33   C34   A    
C5    C10   A    
C16   C20   A    
C7    C8    A    
C6    C7    A    
C9    C10   A    
C43   H21   S    
O5    C3    A    
V3    O20   S    
C31   C32   A    
V2    O10   S    
C13   C17   A    
C32   C33   A    
C46   H24   S    
O12   C37   A    
O13   C40   A    
O14   V3    S    
O8    V2    S    
C41   C42   A    
C15   C16   A    
C35   C36   A    
C14   H9    S    
O1    V2    S    
O7    V1    S    
C22   C25   A    
C44   H22   S    
O13   V3    S    
C13   H7    S    
C22   C24   A    
C5    H1    S    
C11   C18   A    
C28   H11   S    
C3    C11   S    
C29   C30   A    
C20   H8    S    
C19   H6    S    
C9    H4    S    
O19   V4    S    
O17   V4    S    
O4    C2    A    
C43   C44   A    
C11   C19   A    
C31   H16   S    
C23   C24   A    
V4    O20   S    
C4    C10   S    
C32   H17   S    
O2    C1    A    
C13   C14   A    
C25   H15   S    
O18   V4    S    
C25   C26   A    
C23   C27   A    
O8    C3    A    
C7    C39   S    
C17   C18   A    
O15   C39   A    
C21   C28   A    
O17   V3    S    
C22   C38   S    
O3    C4    A    
O14   C38   A    
C26   C27   A    
C35   H19   S    
O6    V2    S    
O9    V2    S    
C8    C9    A    
C23   C41   S    
C41   C46   A    
O2    V1    S    
C45   H23   S    
C12   C40   S    
O1    C2    A    
C12   C15   A    
O19   C40   A    
O5    V1    S    
C42   H20   S    
C30   H13   S    
O16   V4    S    
C1    C21   S    
C29   H12   S    
O11   V4    S    
C16   C17   A    
C6    H2    S    
C12   C14   A    
O7    V2    S    
O4    V1    S    
O3    V1    S    
V1    O10   S    
C37   O16   A    
O18   C39   A    
C21   C29   A    
C5    C6    A    
C33   C37   S    
C2    C36   S    
C34   H18   S    
C31   C36   A    
C26   C30   A    
C45   C46   A    
C27   C28   A    
C24   H14   S    
O15   V3    S    
C8    H3    S    
O9    C4    A    
O11   C38   A    
