data_mof_unit_36255.cif
_audit_creation_date              2012-12-10T18:53:41-0500
_audit_creation_method            fapswitch 2.2
_symmetry_space_group_name_H-M    P1
_symmetry_Int_Tables_number       1
_space_group_crystal_system       triclinic
_cell_length_a                    10.631431
_cell_length_b                    9.825941
_cell_length_c                    19.198746
_cell_angle_alpha                 89.992495
_cell_angle_beta                  90.076285
_cell_angle_gamma                 90.014352
_cell_volume                      2005.57236874

loop_
_atom_site_label
_atom_site_type_symbol
_atom_type_description
_atom_site_fract_x
_atom_site_fract_y
_atom_site_fract_z
_atom_type_partial_charge
C1    C     C_R   0.260491 0.499939 0.499822 0.924790
C2    C     C_R   0.739509 0.499977 0.500035 0.924825
C3    C     C_R   0.500285 0.499890 0.930433 0.295535
C4    C     C_R   0.499345 0.500014 0.069943 0.267046
C5    C     C_R   0.499811 0.500006 0.365447 0.887845
C6    C     C_R   0.500176 0.499989 0.634562 0.887302
C7    C     C_R   0.065447 0.497922 0.434988 0.102093
C8    C     C_R   0.934559 0.497866 0.564823 0.102432
C9    C     C_R   0.934033 0.500442 0.435044 0.103723
C10   C     C_R   0.065962 0.500158 0.564768 0.104021
C11   C     C_R   0.872018 0.499735 0.499969 -0.147611
C12   C     C_R   0.127982 0.499612 0.499852 -0.147625
C13   C     C_R   0.562985 0.072026 0.550361 -0.074718
C14   C     C_R   0.437152 0.928048 0.449590 -0.070868
C15   C     C_R   0.437031 0.072019 0.449630 -0.074008
C16   C     C_R   0.562865 0.928056 0.550402 -0.070336
C17   C     C_R   0.496104 0.623421 0.253545 -0.239007
C18   C     C_R   0.490644 0.376987 0.746435 -0.255673
C19   C     C_R   0.510742 0.622860 0.746449 -0.252593
C20   C     C_R   0.502164 0.376582 0.253567 -0.240845
C21   C     C_R   0.494921 0.625127 0.181101 0.164923
C22   C     C_R   0.490374 0.375001 0.818903 0.160144
C23   C     C_R   0.511237 0.624784 0.818921 0.159355
C24   C     C_R   0.502890 0.374846 0.181125 0.165386
C25   C     C_R   0.498916 0.499987 0.144965 0.016857
C26   C     C_R   0.500737 0.499886 0.855194 0.042429
C27   C     C_R   0.499390 0.500009 0.289754 -0.103285
C28   C     C_R   0.500503 0.499950 0.710282 -0.090007
N1    N     N_R   0.500000 0.857200 0.500000 -0.078578
N2    N     N_R   0.500000 0.142800 0.500000 -0.080905
N3    N     N_R   0.393533 0.467370 0.034494 -0.176884
N4    N     N_R   0.606135 0.532317 0.965995 -0.189186
N5    N     N_R   0.393960 0.467526 0.965430 -0.188967
N6    N     N_R   0.605629 0.532577 0.035057 -0.176632
O1    O     O_R   0.316770 0.614620 0.500000 -0.621735
O2    O     O_R   0.683230 0.385380 0.500000 -0.624088
O3    O     O_R   0.683230 0.614620 0.500000 -0.621803
O4    O     O_R   0.316770 0.385380 0.500000 -0.624028
O5    O     O_R   0.499990 0.614700 0.398140 -0.630510
O6    O     O_R   0.500010 0.385300 0.601860 -0.631662
O7    O     O_R   0.500010 0.614700 0.601860 -0.629888
O8    O     O_R   0.499990 0.385300 0.398140 -0.631923
Zn1   Zn    Zn3+2 0.500000 0.653120 0.500000 0.931271
Zn2   Zn    Zn3+2 0.500000 0.346880 0.500000 0.926846
C29   C     C_3   0.139782 0.493112 0.366747 -0.398178
C30   C     C_3   0.172589 0.635825 0.340907 -0.880068
H1    H     H_    0.086639 0.698683 0.334641 0.252485
H2    H     H_    0.236590 0.687456 0.378030 0.273125
H3    H     H_    0.220581 0.628633 0.289720 0.251769
H4    H     H_    0.227655 0.433401 0.372755 0.198366
H5    H     H_    0.088160 0.437822 0.325392 0.215590
C31   C     C_3   0.860266 0.493583 0.633084 -0.397837
C32   C     C_3   0.828538 0.636578 0.658874 -0.881051
H6    H     H_    0.914819 0.699202 0.664443 0.252821
H7    H     H_    0.763891 0.688144 0.622070 0.272861
H8    H     H_    0.781706 0.629898 0.710402 0.252189
H9    H     H_    0.771963 0.434557 0.627163 0.198445
H10   H     H_    0.911567 0.437909 0.674424 0.215330
C33   C     C_3   0.859129 0.503840 0.366851 -0.400484
C34   C     C_3   0.826071 0.360581 0.341786 -0.867334
H11   H     H_    0.911962 0.297506 0.335975 0.250037
H12   H     H_    0.761904 0.309593 0.379027 0.283070
H13   H     H_    0.778140 0.366824 0.290474 0.250576
H14   H     H_    0.771341 0.563717 0.372609 0.202966
H15   H     H_    0.910439 0.558261 0.325146 0.216246
C35   C     C_3   0.140821 0.502708 0.632981 -0.399730
C36   C     C_3   0.172776 0.359049 0.657867 -0.868355
H16   H     H_    0.086552 0.296187 0.662882 0.250305
H17   H     H_    0.237647 0.308302 0.620929 0.282869
H18   H     H_    0.219468 0.364530 0.709542 0.251006
H19   H     H_    0.229050 0.561909 0.627360 0.202933
H20   H     H_    0.089838 0.557340 0.674720 0.216000
H21   H     H_    0.493054 0.719143 0.281566 0.166292
H22   H     H_    0.483278 0.281875 0.718133 0.161913
H23   H     H_    0.518143 0.717983 0.718157 0.160706
H24   H     H_    0.505265 0.280861 0.281604 0.166624
C37   C     C_3   0.487162 0.761698 0.144496 -0.419256
C38   C     C_3   0.614826 0.832633 0.144183 -0.850441
H25   H     H_    0.646149 0.854286 0.198278 0.252791
H26   H     H_    0.686023 0.767790 0.117962 0.273186
H27   H     H_    0.607503 0.930371 0.115453 0.248135
H28   H     H_    0.453475 0.751617 0.089996 0.216286
H29   H     H_    0.417485 0.827436 0.171510 0.199307
C39   C     C_3   0.480972 0.238299 0.855482 -0.422703
C40   C     C_3   0.608536 0.191913 0.883276 -0.859639
H30   H     H_    0.644035 0.262939 0.923661 0.269794
H31   H     H_    0.677814 0.185954 0.840116 0.258221
H32   H     H_    0.599073 0.089387 0.907050 0.248022
H33   H     H_    0.411450 0.242273 0.898441 0.221419
H34   H     H_    0.446101 0.158944 0.818926 0.201734
C41   C     C_3   0.520930 0.761446 0.855510 -0.423100
C42   C     C_3   0.393452 0.808243 0.883052 -0.855890
H35   H     H_    0.324237 0.814369 0.839765 0.259618
H36   H     H_    0.357720 0.737377 0.923404 0.269066
H37   H     H_    0.403153 0.910764 0.906803 0.247515
H38   H     H_    0.590382 0.757245 0.898602 0.221152
H39   H     H_    0.556083 0.840688 0.819013 0.200404
C43   C     C_3   0.510262 0.238231 0.144565 -0.417469
C44   C     C_3   0.382506 0.167483 0.144364 -0.854383
H40   H     H_    0.311228 0.232401 0.118143 0.273564
H41   H     H_    0.351510 0.145965 0.198489 0.249785
H42   H     H_    0.389513 0.069687 0.115685 0.248788
H43   H     H_    0.543583 0.248172 0.090039 0.216272
H44   H     H_    0.580041 0.172426 0.171566 0.200665
H45   H     H_    0.613400 0.126665 0.590572 0.124081
H46   H     H_    0.387057 0.873563 0.409256 0.117863
H47   H     H_    0.386632 0.126649 0.409412 0.122934
H48   H     H_    0.612978 0.873577 0.590728 0.117332

loop_
_geom_bond_atom_site_label_1
_geom_bond_atom_site_label_2
_ccdc_geom_bond_type
C5    O8    A    
C32   H7    S    
C38   H27   S    
C4    C25   S    
C37   C38   S    
C30   H3    S    
C33   H14   S    
C39   H34   S    
C34   H13   S    
C24   C43   S    
C7    C29   S    
C40   H30   S    
C38   H26   S    
C40   H32   S    
C3    N5    A    
C43   H43   S    
C20   H24   S    
C34   H12   S    
C23   C26   A    
C15   H47   S    
C41   H38   S    
C5    C27   S    
C39   C40   S    
C6    C28   S    
C44   H40   S    
C35   H20   S    
C6    O7    A    
N3    N5    A    
O1    Zn1   S    
C8    C31   S    
C10   C35   S    
C35   C36   S    
C33   C34   S    
C18   H22   S    
N1    Zn1   S    
C17   H21   S    
O7    Zn1   S    
N2    Zn2   S    
C1    C12   S    
O8    Zn2   S    
C2    C11   S    
C30   H2    S    
C40   H31   S    
C7    C12   A    
C31   H10   S    
C4    N6    A    
C36   H16   S    
C17   C27   A    
C20   C24   A    
C13   N2    A    
C18   C28   A    
C24   C25   A    
C13   H45   S    
C41   C42   S    
C38   H25   S    
O5    Zn1   S    
C16   N1    A    
C32   H6    S    
C42   H37   S    
C17   C21   A    
C34   H11   S    
C36   H17   S    
C22   C39   S    
O3    Zn1   S    
C19   C23   A    
O4    Zn2   S    
C35   H19   S    
O6    Zn2   S    
C42   H36   S    
C41   H39   S    
C19   C28   A    
C9    C11   A    
C10   C12   A    
C1    O4    A    
C44   H41   S    
C5    O5    A    
C23   C41   S    
O2    Zn2   S    
C39   H33   S    
C14   N1    A    
C31   C32   S    
C1    O1    A    
C15   N2    A    
C32   H8    S    
C2    O2    A    
C7    C9    A    
C21   C25   A    
C30   H1    S    
C18   C22   A    
C3    C26   S    
C37   H29   S    
C20   C27   A    
C36   H18   S    
C19   H23   S    
C33   H15   S    
C29   H4    S    
C2    O3    A    
C37   H28   S    
C8    C11   A    
C43   H44   S    
C42   H35   S    
C6    O6    A    
C3    N4    A    
C4    N3    A    
C31   H9    S    
C16   H48   S    
C29   C30   S    
C14   H46   S    
C44   H42   S    
C8    C10   A    
C43   C44   S    
C22   C26   A    
C13   C16   A    
C21   C37   S    
C29   H5    S    
C14   C15   A    
C9    C33   S    
N4    N6    A    
