data_mof_unit_29634.cif
_audit_creation_date              2013-03-05T15:46:14-0500
_audit_creation_method            fapswitch 2.2
_symmetry_space_group_name_H-M    P1
_symmetry_Int_Tables_number       1
_space_group_crystal_system       triclinic
_cell_length_a                    10.729492
_cell_length_b                    11.036058
_cell_length_c                    9.831104
_cell_angle_alpha                 110.947147
_cell_angle_beta                  98.477872
_cell_angle_gamma                 91.074753
_cell_volume                      1072.07555782

loop_
_atom_site_label
_atom_site_type_symbol
_atom_site_description
_atom_site_fract_x
_atom_site_fract_y
_atom_site_fract_z
_atom_type_partial_charge
O1    O     O_R   0.511820 0.332340 0.577400 -0.581088
O2    O     O_R   0.474400 0.295500 0.332650 -0.573344
C1    C     C_R   0.490769 0.254190 0.440778 0.857774
O3    O     O_R   0.336400 0.518400 0.622370 -0.578836
O4    O     O_R   0.298980 0.481560 0.377620 -0.579880
C2    C     C_R   0.260015 0.500047 0.500935 0.809392
Cu1   Cu    Cu3+1 0.522160 0.521810 0.644910 0.948702
Cu2   Cu    Cu3+1 0.477840 0.478190 0.355090 0.953309
O5    O     O_R   0.525600 0.704500 0.667350 -0.570889
O6    O     O_R   0.488180 0.667660 0.422600 -0.571666
O7    O     O_R   0.701020 0.518440 0.622380 -0.587474
O8    O     O_R   0.663600 0.481600 0.377630 -0.587669
C3    C     C_R   0.509253 0.745805 0.559226 0.904317
C4    C     C_R   0.740194 0.500125 0.499504 0.766804
C5    C     C_3   0.093066 0.521909 0.658588 -0.348108
H1    H     H_    0.142775 0.612873 0.742806 0.222658
H2    H     H_    0.127627 0.440793 0.692658 0.160870
C6    C     C_3   0.950556 0.525070 0.658106 -0.353967
H3    H     H_    0.918613 0.449280 0.698435 0.173774
H4    H     H_    0.930568 0.621344 0.736476 0.190611
H5    H     H_    0.899065 0.706416 0.527219 0.192801
C7    C     C_3   0.066517 0.608922 0.447142 0.224197
C8    C     C_3   0.055843 0.367788 0.395577 -0.457303
C9    C     C_3   0.122375 0.501342 0.502149 0.034703
H6    H     H_    0.075451 0.346717 0.281578 0.180713
H7    H     H_    0.092900 0.288286 0.430997 0.184976
C10   C     C_3   0.878275 0.500845 0.500001 0.099110
C11   C     C_3   0.922714 0.610903 0.450959 -0.436477
C12   C     C_3   0.911654 0.368119 0.393468 -0.382938
H8    H     H_    0.878856 0.288134 0.426776 0.170288
H9    H     H_    0.862694 0.349141 0.279010 0.180416
H10   H     H_    0.078569 0.581738 0.329370 0.105940
H11   H     H_    0.871181 0.597500 0.339013 0.142820
H12   H     H_    0.480131 0.864905 0.368342 0.180580
H13   H     H_    0.519296 0.135069 0.631695 0.179009
C13   C     C_2   0.485680 0.114984 0.407422 -0.347543
C14   C     C_2   0.502140 0.069525 0.516703 -0.148341
H14   H     H_    0.531528 0.950845 0.707392 0.144556
C15   C     C_2   0.514244 0.885004 0.592603 -0.298312
C16   C     C_2   0.497494 0.930458 0.483328 -0.105806
H15   H     H_    0.468490 0.049133 0.292631 0.157275
H16   H     H_    0.414062 0.418983 0.845832 0.158333
H17   H     H_    0.585034 0.582004 0.154429 0.154619
N1    N     N_2   0.444530 0.445420 0.137360 -0.283403
C17   C     C_2   0.510841 0.510283 0.081363 -0.070035
H18   H     H_    0.626504 0.620681 0.934192 0.190911
N2    N     N_2   0.555520 0.554510 0.862630 -0.285625
C18   C     C_2   0.488762 0.490137 0.918751 -0.071268
H19   H     H_    0.374539 0.378123 0.065503 0.194655
N3    N     N_R   0.132299 0.738155 0.530316 0.113423
O9    O     O_R   0.121193 0.801473 0.667311 -0.384859
O10   O     O_R   0.196363 0.794334 0.463696 -0.372704

loop_
_geom_bond_atom_site_label_1
_geom_bond_atom_site_label_2
_geom_bond_distance
_ccdc_geom_bond_type
N1    H19   1.030585 S    
C5    C6    1.529459 S    
N3    O10   1.301126 A    
C8    C9    1.554200 S    
C5    H2    1.114133 S    
C12   H8    1.113223 S    
C4    C10   1.480691 S    
C10   C12   1.550516 S    
N2    C18   1.303784 D    
C7    N3    1.469387 S    
Cu2   O8    1.970788 S    
C2    C9    1.478911 S    
O2    C1    1.289643 A    
Cu1   Cu2   2.680911 S    
C12   H9    1.113145 S    
C7    C11   1.549280 S    
Cu1   O7    1.963521 S    
H17   C17   1.085088 S    
C13   H15   1.087616 S    
H14   C15   1.087581 S    
C7    H10   1.115588 S    
C1    C13   1.449846 S    
O3    Cu1   1.970788 S    
H12   C16   1.088159 S    
C8    C12   1.544246 S    
O3    C2    1.292422 A    
C13   C14   1.330374 D    
H13   C14   1.088160 S    
H5    C11   1.112942 S    
O8    C4    1.296522 A    
C11   H11   1.113526 S    
N3    O9    1.301506 A    
C14   C16   1.448392 S    
C6    H4    1.113746 S    
C8    H6    1.113280 S    
O4    C2    1.289164 A    
O7    C4    1.286511 A    
C7    C9    1.565708 S    
C3    C15   1.449756 S    
O4    Cu2   1.963521 S    
C5    H1    1.110484 S    
C10   C11   1.549142 S    
N1    C17   1.303782 D    
Cu2   O6    1.949971 S    
C6    H3    1.113873 S    
C8    H7    1.113502 S    
C15   C16   1.330339 D    
Cu1   O5    1.947249 S    
O5    C3    1.289558 A    
H18   N2    1.030588 S    
C5    C9    1.552879 S    
H16   C18   1.085081 S    
C17   C18   1.514420 S    
O1    Cu1   1.949971 S    
O2    Cu2   1.947249 S    
C6    C10   1.558393 S    
Cu2   N1    2.014063 S    
O1    C1    1.293775 A    
O6    C3    1.293798 A    
Cu1   N2    2.014135 S    
