data_mof_unit_6992.cif
_audit_creation_date              2013-03-05T16:36:43-0500
_audit_creation_method            fapswitch 2.2
_symmetry_space_group_name_H-M    P1
_symmetry_Int_Tables_number       1
_space_group_crystal_system       triclinic
_cell_length_a                    7.848983
_cell_length_b                    9.093458
_cell_length_c                    17.027801
_cell_angle_alpha                 89.711935
_cell_angle_beta                  93.120947
_cell_angle_gamma                 89.990852
_cell_volume                      1213.53101494

loop_
_atom_site_label
_atom_site_type_symbol
_atom_site_description
_atom_site_fract_x
_atom_site_fract_y
_atom_site_fract_z
_atom_type_partial_charge
O1    O     O_R   0.642760 0.288400 0.500000 -0.587096
O2    O     O_R   0.357240 0.711600 0.500000 -0.583712
O3    O     O_R   0.357190 0.288380 0.500000 -0.563347
O4    O     O_R   0.642810 0.711620 0.500000 -0.559612
C1    C     C_R   0.499986 0.220274 0.499982 0.828148
C2    C     C_R   0.499898 0.779725 0.499125 0.897663
O5    O     O_R   0.658410 0.498660 0.613920 -0.565644
O6    O     O_R   0.341590 0.501340 0.386080 -0.562628
O7    O     O_R   0.372840 0.498650 0.613930 -0.586654
O8    O     O_R   0.627160 0.501350 0.386070 -0.613047
C3    C     C_R   0.519644 0.498737 0.650911 0.832294
C4    C     C_R   0.479936 0.494780 0.348218 0.813995
Cu1   Cu    Cu3+1 0.669080 0.500010 0.500000 1.031808
Cu2   Cu    Cu3+1 0.330920 0.499990 0.500000 1.041497
N1    N     N_1   0.076820 0.499970 0.500010 -0.040579
N2    N     N_1   0.923180 0.500030 0.499990 -0.045833
C5    C     C_R   0.524622 0.503466 0.737040 -0.171470
C6    C     C_R   0.471083 0.496242 0.260490 -0.210511
C7    C     C_R   0.469037 0.632900 0.773667 -0.067285
C8    C     C_R   0.622015 0.505198 0.220254 -0.065701
C9    C     C_R   0.429941 0.629020 0.853654 -0.149827
C10   C     C_R   0.616732 0.569987 0.145191 -0.086450
C11   C     C_R   0.455078 0.496377 0.897330 0.188894
C12   C     C_R   0.462997 0.571070 0.099821 0.185055
C13   C     C_R   0.516116 0.369618 0.860858 0.325846
C14   C     C_R   0.311363 0.526270 0.133763 0.329535
C15   C     C_R   0.549137 0.371696 0.780267 -0.198577
C16   C     C_R   0.314447 0.495572 0.215291 -0.155834
N3    N     N_2   0.430523 0.484965 0.979314 -0.123331
N4    N     N_2   0.469882 0.596813 0.018079 -0.235982
C17   C     C_1   0.499954 0.065443 0.499627 -0.132221
C18   C     C_1   0.499889 0.934593 0.499282 -0.109471
C19   C     C_2   0.759216 0.398044 0.241085 0.439524
H1    H     H_    0.797362 0.371640 0.301474 0.107993
O9    O     O_2   0.823994 0.328234 0.189404 -0.442336
C20   C     C_2   0.442689 0.770750 0.726976 0.504647
H2    H     H_    0.334832 0.841851 0.736520 0.103513
O10   O     O_2   0.544406 0.808000 0.678957 -0.539182
C21   C     C_2   0.772216 0.632493 0.112879 0.568387
H3    H     H_    0.784508 0.639675 0.049844 0.139269
O11   O     O_2   0.883932 0.685338 0.156627 -0.540260
C22   C     C_2   0.358781 0.761519 0.890809 0.445269
H4    H     H_    0.251850 0.751124 0.927925 0.157593
O12   O     O_2   0.422610 0.882537 0.882252 -0.434890
N5    N     N_R   0.552276 0.240224 0.907729 0.188234
O13   O     O_R   0.437386 0.186041 0.951965 -0.240590
O14   O     O_R   0.705324 0.184666 0.911914 -0.251013
N6    N     N_R   0.157449 0.508440 0.085322 0.137868
O15   O     O_R   0.077705 0.383091 0.084650 -0.252851
O16   O     O_R   0.112498 0.607518 0.032917 -0.365254
C23   C     C_2   0.599613 0.235001 0.739324 0.465176
H5    H     H_    0.668389 0.241696 0.685894 0.059028
O17   O     O_2   0.560497 0.113501 0.763188 -0.445128
C24   C     C_2   0.155973 0.455634 0.251765 0.552485
H6    H     H_    0.052801 0.533931 0.251632 0.087993
O18   O     O_2   0.142370 0.335919 0.283676 -0.505404

loop_
_geom_bond_atom_site_label_1
_geom_bond_atom_site_label_2
_geom_bond_distance
_ccdc_geom_bond_type
C2    C18   1.408305 S    
O7    Cu2   1.949918 S    
C24   O18   1.221537 D    
N3    N4    1.245092 D    
C13   C15   1.410377 A    
C24   H6    1.078104 S    
C14   C16   1.413578 A    
C17   C18   1.189918 T    
C14   N6    1.434913 S    
O6    C4    1.294191 A    
O3    C1    1.280460 A    
N6    O16   1.300008 A    
C19   H1    1.081041 S    
C21   O11   1.219563 D    
N5    O13   1.301416 A    
O5    C3    1.287534 A    
O7    C3    1.282672 A    
C12   C14   1.410395 A    
O2    C2    1.280514 A    
O3    Cu2   1.935250 S    
C22   O12   1.220564 D    
O1    C1    1.280539 A    
C10   C21   1.478287 S    
C11   N3    1.422871 S    
C20   O10   1.220281 D    
N6    O15   1.300292 A    
C7    C9    1.412617 A    
C15   C23   1.492240 S    
O8    C4    1.293688 A    
C7    C20   1.489360 S    
N5    O14   1.301338 A    
C9    C11   1.421913 A    
O2    Cu2   1.935357 S    
C10   C12   1.396916 A    
C12   N4    1.414209 S    
O1    Cu1   1.935358 S    
C22   H4    1.081655 S    
C8    C19   1.479715 S    
C21   H3    1.084539 S    
C5    C7    1.414755 A    
C23   H5    1.084323 S    
C5    C15   1.410759 A    
C13   N5    1.437991 S    
O5    Cu1   1.946142 S    
C11   C13   1.408297 A    
C6    C16   1.414530 A    
C6    C8    1.402612 A    
O4    C2    1.280572 A    
Cu1   N2    1.994435 S    
C4    C6    1.491633 S    
O4    Cu1   1.935250 S    
C16   C24   1.465201 S    
Cu2   N1    1.994435 S    
C20   H2    1.084887 S    
C1    C17   1.407993 S    
C9    C22   1.486564 S    
O6    Cu2   1.946143 S    
C19   O9    1.220731 D    
Cu1   Cu2   2.654213 S    
C3    C5    1.465815 S    
N1    N2    1.205900 T    
C8    C10   1.403270 A    
C23   O17   1.220356 D    
O8    Cu1   1.949919 S    
