data_mof_unit_38875.cif
_audit_creation_date              2013-03-05T15:40:10-0500
_audit_creation_method            fapswitch 2.2
_symmetry_space_group_name_H-M    P1
_symmetry_Int_Tables_number       1
_space_group_crystal_system       triclinic
_cell_length_a                    7.463539
_cell_length_b                    8.679854
_cell_length_c                    12.96249
_cell_angle_alpha                 88.067095
_cell_angle_beta                  78.686733
_cell_angle_gamma                 102.699278
_cell_volume                      800.684814968

loop_
_atom_site_label
_atom_site_type_symbol
_atom_site_description
_atom_site_fract_x
_atom_site_fract_y
_atom_site_fract_z
_atom_type_partial_charge
O1    O     O_R   0.621060 0.286250 0.492350 -0.589619
O2    O     O_R   0.378940 0.713750 0.507650 -0.589618
O3    O     O_R   0.306310 0.256580 0.512240 -0.580026
O4    O     O_R   0.693690 0.743420 0.487760 -0.580017
C1    C     C_R   0.452842 0.199711 0.503223 0.882660
C2    C     C_R   0.547157 0.800289 0.496777 0.882672
O5    O     O_R   0.631800 0.512400 0.642670 -0.592096
O6    O     O_R   0.368200 0.487600 0.357330 -0.592098
O7    O     O_R   0.317060 0.482730 0.662570 -0.532089
O8    O     O_R   0.682940 0.517270 0.337430 -0.532104
C3    C     C_R   0.464642 0.492605 0.701694 0.825908
C4    C     C_R   0.535358 0.507396 0.298306 0.825922
Cu1   Cu    Cu3+1 0.686350 0.517570 0.488220 1.019328
Cu2   Cu    Cu3+1 0.313650 0.482430 0.511780 1.019327
N1    N     N_2   0.033570 0.455950 0.529530 -0.205063
N2    N     N_2   0.966430 0.544050 0.470470 -0.205068
C5    C     C_R   0.558344 0.516991 0.183917 -0.181675
C6    C     C_R   0.441653 0.483010 0.816084 -0.181684
C7    C     C_R   0.259253 0.393237 0.992568 -0.172344
C8    C     C_R   0.740747 0.606761 0.007433 -0.172358
C9    C     C_R   0.270309 0.404483 0.884071 0.333393
C10   C     C_R   0.729684 0.595522 0.115931 0.333404
C11   C     C_R   0.596981 0.550262 0.857990 -0.199277
C12   C     C_R   0.403020 0.449731 0.142011 -0.199275
C13   C     C_R   0.584914 0.539592 0.966166 0.097771
C14   C     C_R   0.415088 0.460401 0.033835 0.097763
H1    H     H_    0.272166 0.388369 0.193744 0.194430
H2    H     H_    0.727835 0.611623 0.806257 0.194439
H3    H     H_    0.128443 0.332352 0.044473 0.188055
H4    H     H_    0.871556 0.667651 0.955530 0.188040
C15   C     C_2   0.426201 0.031916 0.504780 -0.337361
C16   C     C_2   0.573799 0.968084 0.495220 -0.337350
H5    H     H_    0.283837 0.960538 0.513793 0.184536
H6    H     H_    0.716163 0.039462 0.486207 0.184536
N3    N     N_R   0.891723 0.668315 0.155226 0.127699
O9    O     O_R   0.955245 0.821137 0.140291 -0.342677
O10   O     O_R   0.999001 0.581172 0.182063 -0.371520
N4    N     N_R   0.108255 0.331714 0.844781 0.127688
O11   O     O_R   0.044611 0.178909 0.859797 -0.342681
O12   O     O_R   0.001055 0.418895 0.817895 -0.371517
H7    H     H_    0.933608 0.375986 0.583255 0.249971
H8    H     H_    0.066392 0.624014 0.416744 0.249971

loop_
_geom_bond_atom_site_label_1
_geom_bond_atom_site_label_2
_geom_bond_distance
_ccdc_geom_bond_type
C4    C5    1.456220 S    
C2    C16   1.424876 S    
O7    Cu2   1.959849 S    
C15   H5    1.087868 S    
C3    C6    1.456230 S    
C6    C9    1.417994 A    
C5    C10   1.417981 A    
C12   H1    1.085098 S    
O6    C4    1.301438 A    
C8    H4    1.084705 S    
Cu1   Cu2   2.685390 S    
O5    C3    1.301445 A    
C10   N3    1.431327 S    
O7    C3    1.287786 A    
O2    C2    1.291958 A    
O3    Cu2   1.948809 S    
O8    C4    1.287790 A    
O1    C1    1.291958 A    
N1    N2    1.304395 D    
N4    O12   1.300784 A    
C12   C14   1.385978 A    
C11   C13   1.385980 A    
N4    O11   1.300756 A    
O2    Cu2   1.955510 S    
C1    C15   1.424876 S    
C5    C12   1.396675 A    
O1    Cu1   1.955510 S    
C8    C13   1.394917 A    
C6    C11   1.396681 A    
C7    H3    1.084705 S    
N2    H8    1.029187 S    
O5    Cu1   1.960130 S    
N1    H7    1.029187 S    
O4    C2    1.282373 A    
Cu1   N2    2.017913 S    
N3    O10   1.300779 A    
O4    Cu1   1.948809 S    
C7    C14   1.394910 A    
Cu2   N1    2.017914 S    
O6    Cu2   1.960129 S    
C7    C9    1.391380 A    
C13   C14   1.410150 A    
C11   H2    1.085097 S    
C15   C16   1.324870 D    
C9    N4    1.431338 S    
N3    O9    1.300744 A    
C8    C10   1.391380 A    
O3    C1    1.282373 A    
O8    Cu1   1.959846 S    
C16   H6    1.087868 S    
