data_mof_unit_30412.cif
_audit_creation_date              2012-12-11T21:12:33-0500
_audit_creation_method            fapswitch 2.2
_symmetry_space_group_name_H-M    P1
_symmetry_Int_Tables_number       1
_space_group_crystal_system       triclinic
_cell_length_a                    8.207016
_cell_length_b                    18.808348
_cell_length_c                    26.955185
_cell_angle_alpha                 99.455219
_cell_angle_beta                  92.548543
_cell_angle_gamma                 88.365933
_cell_volume                      4099.27643915

loop_
_atom_site_label
_atom_site_type_symbol
_atom_type_description
_atom_site_fract_x
_atom_site_fract_y
_atom_site_fract_z
_atom_type_partial_charge
Ba1   Ba    Ba6+2 0.160810 0.465630 0.521640 1.664679
Ba2   Ba    Ba6+2 0.649380 0.534380 0.478400 1.644622
C1    C     C_3   0.421388 0.250708 0.696484 -0.238728
C2    C     C_R   0.065833 0.095739 0.449069 -0.088600
C3    C     C_R   0.205623 0.952399 0.456782 -0.100592
C4    C     C_3   0.961251 0.269963 0.624348 0.420784
C5    C     C_R   0.056028 0.977194 0.478144 0.023499
C6    C     C_R   0.261353 0.881711 0.455701 -0.095568
C7    C     C_R   0.171119 0.832114 0.475931 -0.029004
C8    C     C_R   0.025681 0.856187 0.500557 0.002598
C9    C     C_R   0.968817 0.929219 0.502266 0.024848
C10   C     C_R   0.222276 0.759114 0.472514 -0.011108
C11   C     C_R   0.125436 0.710559 0.491300 -0.295527
C12   C     C_3   0.466561 0.273112 0.647287 0.250970
C13   C     C_R   0.987013 0.733461 0.518151 0.038941
C14   C     C_R   0.938266 0.807475 0.523997 -0.039811
C15   C     C_R   0.850911 0.073160 0.503126 0.007644
C16   C     C_3   0.995144 0.195629 0.639037 0.359459
C17   C     C_R   0.793160 0.145968 0.504185 -0.002840
C18   C     C_R   0.877524 0.193890 0.479192 -0.031441
C19   C     C_R   0.008223 0.166122 0.449753 -0.021818
C20   C     C_R   0.805927 0.834564 0.552890 -0.024830
C21   C     C_R   0.750177 0.905417 0.554678 -0.077563
C22   C     C_R   0.825320 0.953549 0.528038 0.015503
C23   C     C_3   0.458844 0.312281 0.395456 0.304929
C24   C     C_R   0.764316 0.025378 0.527626 0.019683
C25   C     C_R   0.615964 0.050621 0.549602 -0.054778
C26   C     C_R   0.647948 0.170151 0.528819 -0.020098
C27   C     C_R   0.559426 0.121007 0.550026 -0.071055
C28   C     C_3   0.841644 0.619867 0.631153 0.294803
C29   C     C_R   0.593701 0.242488 0.530520 0.015206
C30   C     C_R   0.687120 0.290530 0.510020 -0.242019
C31   C     C_R   0.826233 0.267562 0.483608 0.060880
C32   C     C_R   0.280411 0.447410 0.172725 0.588330
C33   C     C_R   0.187262 0.570097 0.176074 0.581504
C34   C     C_3   0.456672 0.231267 0.376825 0.226365
C35   C     C_2   0.029470 0.528148 0.268941 -0.070673
C36   C     C_3   0.993460 0.521337 0.322715 -0.052472
C37   C     C_1   0.280264 0.493295 0.336021 0.020329
C38   C     C_2   0.315132 0.495602 0.288824 -0.095486
C39   C     C_2   0.182425 0.513270 0.252207 0.207893
C40   C     C_3   0.840066 0.636262 0.688285 -0.352404
C41   C     C_R   0.295317 0.504759 0.098164 -0.079464
C42   C     C_R   0.320129 0.443766 0.121971 -0.033226
C43   C     C_R   0.385379 0.380395 0.094746 -0.060047
C44   C     C_R   0.228567 0.568388 0.125519 -0.029825
C45   C     C_3   0.869806 0.722648 0.378144 0.355487
C46   C     C_2   0.148475 0.526183 0.355408 -0.288134
C47   C     C_2   0.645410 0.469230 0.636463 -0.294472
C48   C     C_R   0.429235 0.432516 0.967323 0.018813
C49   C     C_R   0.368335 0.562746 0.973639 0.020528
C50   C     C_R   0.419862 0.496173 0.945179 0.051579
C51   C     C_R   0.469696 0.366679 0.936439 -0.096768
C52   C     C_3   0.977754 0.368909 0.365509 0.292329
C53   C     C_R   0.506642 0.363995 0.886385 -0.042262
C54   C     C_R   0.505604 0.426785 0.864772 -0.032145
C55   C     C_R   0.462289 0.493078 0.893986 -0.081295
C56   C     C_3   0.876677 0.797303 0.363742 -0.369118
C57   C     C_R   0.461072 0.556108 0.871989 -0.033583
C58   C     C_R   0.506488 0.552121 0.821484 0.595373
C59   C     C_R   0.545330 0.424085 0.814202 0.599456
C60   C     C_2   0.725730 0.444001 0.723296 -0.073168
C61   C     C_3   0.744007 0.422236 0.667414 -0.047752
C62   C     C_1   0.520202 0.508710 0.655890 0.042154
C63   C     C_2   0.481024 0.513880 0.703719 -0.080245
C64   C     C_3   0.009319 0.339344 0.310615 -0.368270
C65   C     C_2   0.591207 0.481891 0.740612 0.193204
C66   C     C_R   0.396439 0.436346 0.019173 0.021252
C67   C     C_3   0.360707 0.698298 0.350293 0.294279
C68   C     C_R   0.336818 0.501980 0.046922 0.050454
C69   C     C_R   0.318288 0.564783 0.023978 0.020575
C70   C     C_R   0.422754 0.376650 0.044589 -0.098420
C71   C     C_R   0.204564 0.629004 0.101814 -0.060836
C72   C     C_R   0.369998 0.625181 0.950611 -0.098654
C73   C     C_R   0.415866 0.621848 0.901071 -0.056553
C74   C     C_R   0.248819 0.627456 0.052331 -0.099721
C75   C     C_3   0.333004 0.685925 0.592297 0.310293
C76   C     C_3   0.339504 0.767280 0.608294 -0.371987
C77   C     C_3   0.512298 0.119710 0.398979 0.149197
C78   C     C_3   0.399559 0.712928 0.298393 -0.346196
C79   C     C_R   0.993717 0.048620 0.477116 0.005361
H1    H     H_    0.488877 0.331888 0.653990 0.032155
H2    H     H_    0.204726 0.670429 0.584177 0.002633
H3    H     H_    0.404611 0.670804 0.558016 0.066712
H4    H     H_    0.317095 0.284237 0.712690 0.160166
H5    H     H_    0.265116 0.784165 0.641809 0.134408
H6    H     H_    0.290973 0.795210 0.577462 0.058156
H7    H     H_    0.467642 0.783611 0.617688 0.122671
H8    H     H_    0.578288 0.242203 0.634652 0.055121
H9    H     H_    0.527196 0.257324 0.723613 0.181287
H10   H     H_    0.586023 0.328166 0.406945 0.000882
H11   H     H_    0.380519 0.324817 0.428403 0.069452
H12   H     H_    0.744875 0.677986 0.700172 0.140856
H13   H     H_    0.547390 0.218170 0.346890 0.034217
H14   H     H_    0.332393 0.216998 0.360564 0.037727
H15   H     H_    0.387988 0.193034 0.690025 0.124555
H16   H     H_    0.948113 0.153707 0.608273 -0.042348
H17   H     H_    0.767088 0.722413 0.403519 0.109906
H18   H     H_    0.985941 0.711410 0.398188 -0.048594
H19   H     H_    0.889937 0.838469 0.398132 0.074137
H20   H     H_    0.982381 0.800193 0.339867 0.121220
H21   H     H_    0.762476 0.809234 0.342678 0.136487
H22   H     H_    0.228647 0.709164 0.355943 -0.016359
H23   H     H_    0.813749 0.586802 0.703595 0.067578
H24   H     H_    0.390293 0.640686 0.351602 0.071848
H25   H     H_    0.331126 0.675563 0.269333 0.131182
H26   H     H_    0.532092 0.704279 0.292312 0.152242
H27   H     H_    0.008823 0.269235 0.586306 0.002656
H28   H     H_    0.364410 0.769333 0.294691 0.116002
H29   H     H_    0.163303 0.654413 0.487296 0.070031
H30   H     H_    0.376211 0.866632 0.438411 0.110645
H31   H     H_    0.068765 0.198230 0.426698 0.106751
H32   H     H_    0.742514 0.801465 0.574568 0.097911
H33   H     H_    0.444797 0.136086 0.567407 0.096367
H34   H     H_    0.961027 0.656047 0.703910 0.134315
H35   H     H_    0.645357 0.345956 0.511974 0.057735
H36   H     H_    0.285180 0.986853 0.441209 0.059228
H37   H     H_    0.165655 0.079298 0.424911 0.062282
H38   H     H_    0.648185 0.920926 0.578153 0.070644
H39   H     H_    0.827199 0.279084 0.622026 -0.159047
H40   H     H_    0.537563 0.016842 0.566148 0.073717
H41   H     H_    0.437941 0.483188 0.276211 0.111783
H42   H     H_    0.408279 0.332954 0.112232 0.123287
H43   H     H_    0.809084 0.420562 0.748878 0.136363
H44   H     H_    0.536787 0.311967 0.864571 0.136031
H45   H     H_    0.092791 0.389443 0.384676 0.018559
H46   H     H_    0.470151 0.315491 0.949406 0.076656
H47   H     H_    0.476225 0.326285 0.027144 0.073064
H48   H     H_    0.929746 0.537967 0.242922 0.098567
H49   H     H_    0.151799 0.678502 0.121649 0.121318
H50   H     H_    0.339932 0.678181 0.970282 0.071746
H51   H     H_    0.127873 0.185652 0.643708 0.047964
H52   H     H_    0.415276 0.671444 0.885515 0.125140
H53   H     H_    0.367150 0.540138 0.716277 0.119373
H54   H     H_    0.223476 0.676178 0.037000 0.070979
H55   H     H_    0.150977 0.554412 0.393972 0.067921
H56   H     H_    0.884888 0.413167 0.367554 0.043137
H57   H     H_    0.661093 0.459530 0.596143 0.083222
H58   H     H_    0.718918 0.603470 0.616043 0.008295
H59   H     H_    0.930454 0.575066 0.620417 0.080680
H60   H     H_    0.626960 0.108682 0.378310 0.039398
H61   H     H_    0.405799 0.098464 0.374558 0.016092
H62   H     H_    0.520806 0.090061 0.431353 0.072179
H63   H     H_    0.689941 0.128492 0.713132 0.363569
H64   H     H_    0.094079 0.291911 0.308292 0.139545
H65   H     H_    0.065242 0.380356 0.292075 0.085171
H66   H     H_    0.892754 0.322626 0.290073 0.117591
N1    N     N_R   0.216444 0.510375 0.199424 -0.426685
N2    N     N_R   0.548060 0.486417 0.793025 -0.425513
O1    O     O_2   0.106080 0.324280 0.466820 -0.469947
O2    O     O_2   0.660716 0.561960 0.331990 -0.494554
O3    O     O_3   0.847559 0.671486 0.334400 -0.595234
O4    O     O_3   0.859130 0.413620 0.470620 -0.485133
O5    O     O_3   0.459240 0.537930 0.559910 -0.491021
O6    O     O_2   0.583120 0.462390 0.379940 -0.459189
O7    O     O_3   0.399481 0.347761 0.356188 -0.675083
O8    O     O_2   0.561494 0.756675 0.479552 -0.493845
O9    O     O_3   0.454764 0.743422 0.386503 -0.607798
O10   O     O_2   0.301048 0.394137 0.193051 -0.597603
O11   O     O_2   0.576215 0.365762 0.788779 -0.593141
O12   O     O_3   0.397251 0.652831 0.631857 -0.626038
O13   O     O_2   0.126516 0.624932 0.199394 -0.602457
O14   O     O_2   0.510596 0.607228 0.803095 -0.594741
O15   O     O_3   0.376230 0.370290 0.556910 -0.468085
O16   O     O_2   0.258269 0.243459 0.517025 -0.466966
O17   O     O_3   0.919324 0.312891 0.387267 -0.644881
O18   O     O_3   0.337677 0.256918 0.611832 -0.612010
O19   O     O_2   0.227190 0.537650 0.620070 -0.465163
O20   O     O_3   0.971110 0.406970 0.583250 -0.487647
O21   O     O_2   0.076958 0.464828 0.675702 -0.487882
O22   O     O_3   0.493970 0.194015 0.417384 -0.669528
O23   O     O_3   0.039497 0.324069 0.659031 -0.556853
O24   O     O_2   0.015143 0.144030 0.726189 -0.273897
O25   O     O_2   0.858857 0.257101 0.726249 -0.282576
O26   O     O_3   0.729078 0.137859 0.680626 -0.555162
O27   O     O_2   0.704230 0.675760 0.533200 -0.465944
O28   O     O_3   0.951180 0.586390 0.529420 -0.491938
O29   O     O_3   0.434080 0.629720 0.443130 -0.475698
O30   O     O_3   0.885185 0.681990 0.613071 -0.636735
O31   O     O_3   0.351080 0.462080 0.440130 -0.476349
O32   O     O_3   0.839200 0.593040 0.416790 -0.486457
P1    P     P_3+3 0.929380 0.335110 0.452880 0.979811
P2    P     P_3+3 0.398530 0.559060 0.613740 0.995990
P3    P     P_3+3 0.959349 0.407416 0.647655 0.993221
P4    P     P_3+3 0.880940 0.664900 0.547160 0.976372
P5    P     P_3+3 0.834218 0.585742 0.351216 0.970259
P6    P     P_3+3 0.393879 0.277220 0.554162 0.963012
P7    P     P_3+3 0.399317 0.441004 0.376729 0.953166
P8    P     P_3+3 0.417299 0.723003 0.445888 0.926131
S1    S     S_3+6 0.900129 0.185060 0.695719 -0.076619

loop_
_geom_bond_atom_site_label_1
_geom_bond_atom_site_label_2
_ccdc_geom_bond_type
C76   H6    S    
O2    P5    D    
C53   C54   A    
Ba2   O6    S    
C47   C61   S    
C1    H4    S    
C40   H12   S    
O24   S1    D    
C16   H51   S    
C17   C18   A    
O17   P1    S    
C49   C72   A    
C27   H33   S    
O15   P6    S    
O26   S1    S    
C60   H43   S    
C25   H40   S    
C45   H18   S    
O27   P4    D    
O1    P1    D    
C4    O23   S    
C75   C76   S    
C43   H42   S    
C5    C9    A    
C10   P8    S    
C13   P4    S    
C78   H26   S    
C24   C25   A    
O16   P6    D    
C45   H17   S    
C49   C69   A    
C60   C65   D    
C70   H47   S    
C1    H9    S    
C15   C24   A    
C26   C27   A    
C22   C24   A    
O6    P7    D    
C21   H38   S    
C69   C74   A    
C6    H30   S    
Ba1   O31   S    
C55   C57   A    
C52   H56   S    
C25   C27   A    
C75   H2    S    
C13   C14   A    
C78   H25   S    
C9    C22   A    
C58   O14   D    
O28   P4    S    
C54   C55   A    
C12   H1    S    
Ba1   Ba2   S    
O7    P7    S    
C77   O22   S    
C64   H64   S    
C48   C66   A    
C51   H46   S    
Ba2   O27   S    
C45   O3    S    
C62   P2    S    
C32   N1    Am   
C20   H32   S    
C77   H62   S    
C2    C79   A    
C53   H44   S    
Ba1   O15   S    
C6    C7    A    
C63   C65   S    
C78   H28   S    
C48   C50   A    
C21   C22   A    
C1    H15   S    
C61   P3    S    
C16   H16   S    
O31   P7    S    
C7    C8    A    
C36   C46   S    
C63   H53   S    
C66   C70   A    
C58   N2    Am   
O21   P3    D    
C32   O10   D    
C76   H5    S    
C51   C53   A    
C57   C58   A    
Ba2   O5    S    
C47   C62   D    
C47   H57   S    
C43   C70   A    
C75   O12   S    
C2    H37   S    
Ba2   O31   S    
C52   O17   S    
C4    H39   S    
C41   C44   A    
C74   H54   S    
C67   H22   S    
Ba1   P2    S    
C4    C16   S    
C65   N2    S    
C23   H10   S    
C48   C51   A    
C28   H59   S    
C72   C73   A    
C49   C50   A    
C33   O13   D    
C32   C42   A    
O3    P5    S    
C8    C9    A    
O9    P8    S    
C37   C38   D    
C3    C5    A    
O29   P8    S    
C67   H24   S    
C75   H3    S    
C36   P5    S    
C3    H36   S    
Ba2   O32   S    
O12   P2    S    
C41   C42   A    
C12   H8    S    
C35   C36   S    
C52   H45   S    
O23   P3    S    
O20   P3    S    
C29   C30   A    
C28   O30   S    
O19   P2    D    
O18   P6    S    
O5    P2    S    
C60   C61   S    
C67   O9    S    
C56   H19   S    
Ba1   O1    S    
C56   H20   S    
C30   H35   S    
Ba1   O4    S    
C17   C26   A    
C11   H29   S    
C64   H66   S    
C68   C69   A    
C1    C12   S    
O25   S1    D    
C52   C64   S    
C37   P7    S    
C38   C39   S    
Ba2   O28   S    
C41   C68   A    
C11   C13   A    
C71   C74   A    
C59   O11   D    
C18   C31   A    
C57   C73   A    
C19   H31   S    
C42   C43   A    
C76   H7    S    
C71   H49   S    
C16   S1    S    
C23   H11   S    
C14   C20   A    
C28   H58   S    
C5    C79   A    
C54   C59   A    
C46   H55   S    
C26   C29   A    
C40   H23   S    
C3    C6    A    
O32   P5    S    
C73   H52   S    
O30   P4    S    
Ba2   O4    S    
C38   H41   S    
Ba1   O19   S    
C62   C63   D    
Ba2   P4    S    
O4    P1    S    
C30   C31   A    
C45   C56   S    
C2    C19   A    
C34   O22   S    
C34   H14   S    
C77   H60   S    
C39   N1    S    
C59   N2    Am   
C56   H21   S    
H63   O26   S    
Ba1   O20   S    
C15   C17   A    
C35   H48   S    
C15   C79   A    
C33   N1    Am   
C35   C39   D    
Ba1   O5    S    
C7    C10   A    
O8    P8    D    
Ba1   P1    S    
C64   H65   S    
C50   C55   A    
C23   C34   S    
C77   H61   S    
C34   H13   S    
C40   H34   S    
C18   C19   A    
C66   C68   A    
C29   P6    S    
C31   P1    S    
C4    H27   S    
C20   C21   A    
C28   C40   S    
C67   C78   S    
C8    C14   A    
Ba2   O29   S    
C10   C11   A    
C12   O18   S    
C72   H50   S    
C33   C44   A    
Ba1   O28   S    
C44   C71   A    
C37   C46   D    
C23   O7    S    
