data_mof_unit_24916.cif
_audit_creation_date              2013-03-05T16:23:11-0500
_audit_creation_method            fapswitch 2.2
_symmetry_space_group_name_H-M    P1
_symmetry_Int_Tables_number       1
_space_group_crystal_system       triclinic
_cell_length_a                    15.161669
_cell_length_b                    13.855626
_cell_length_c                    15.878184
_cell_angle_alpha                 89.752932
_cell_angle_beta                  90.217945
_cell_angle_gamma                 89.98604
_cell_volume                      3335.54496165

loop_
_atom_site_label
_atom_site_type_symbol
_atom_site_description
_atom_site_fract_x
_atom_site_fract_y
_atom_site_fract_z
_atom_type_partial_charge
O1    O     O_R   0.371450 0.581430 0.500010 -0.592558
O2    O     O_R   0.371450 0.418570 0.500010 -0.580455
C1    C     C_R   0.330107 0.500022 0.499949 0.838688
O3    O     O_R   0.500000 0.581470 0.379440 -0.578484
O4    O     O_R   0.500000 0.418530 0.379440 -0.577066
C2    C     C_R   0.499693 0.500221 0.340108 0.820025
Cu1   Cu    Cu3+1 0.499990 0.596430 0.500000 0.952345
Cu2   Cu    Cu3+1 0.499990 0.403570 0.500000 0.953341
O5    O     O_R   0.628540 0.581440 0.499990 -0.561460
O6    O     O_R   0.628540 0.418560 0.499990 -0.562153
O7    O     O_R   0.499990 0.581400 0.620560 -0.580087
O8    O     O_R   0.499990 0.418600 0.620560 -0.600032
C3    C     C_R   0.670533 0.499922 0.499985 0.854807
C4    C     C_R   0.500784 0.499789 0.659806 0.818667
C5    C     C_3   0.472040 0.602721 0.047091 0.116477
C6    C     C_3   0.428951 0.427674 0.048036 0.137638
C7    C     C_3   0.434313 0.422104 0.949630 0.219447
C8    C     C_3   0.472621 0.601583 0.948248 0.220247
H1    H     H_    0.403398 0.612831 0.925542 0.005035
H2    H     H_    0.367323 0.441299 0.924922 0.009281
H3    H     H_    0.402453 0.616183 0.066345 0.049088
H4    H     H_    0.362569 0.457565 0.063212 0.041815
C9    C     C_1   0.502062 0.499243 0.749230 -0.214370
C10   C     C_3   0.498833 0.501030 0.082628 -0.033468
C11   C     C_3   0.500919 0.499605 0.916774 0.085165
C12   C     C_3   0.593935 0.476100 0.952363 -0.332443
C13   C     C_3   0.591957 0.473478 0.049634 -0.351748
C14   C     C_1   0.502390 0.499055 0.824658 -0.005505
C15   C     C_1   0.498644 0.501281 0.174939 0.054242
C16   C     C_1   0.499034 0.500845 0.250472 -0.119692
H5    H     H_    0.643276 0.522274 0.075311 0.215448
H6    H     H_    0.611782 0.400860 0.072206 0.223552
H7    H     H_    0.642402 0.531193 0.930964 0.215887
H8    H     H_    0.617359 0.405315 0.928287 0.202543
C17   C     C_R   0.096639 0.575003 0.457441 0.429532
C18   C     C_R   0.096439 0.425159 0.539567 0.428990
C19   C     C_R   0.188350 0.576334 0.461456 -0.268048
C20   C     C_R   0.188163 0.423878 0.536969 -0.263298
H9    H     H_    0.223765 0.635413 0.432084 0.167785
H10   H     H_    0.223408 0.364757 0.566733 0.172216
C21   C     C_R   0.234170 0.500109 0.499529 -0.166565
C22   C     C_R   0.049883 0.500127 0.498288 -0.081051
C23   C     C_R   0.906939 0.417879 0.473871 -0.215024
C24   C     C_R   0.907162 0.582645 0.522806 -0.222773
H11   H     H_    0.942361 0.355084 0.451701 0.184579
H12   H     H_    0.942574 0.646501 0.542893 0.186848
C25   C     C_R   0.815290 0.414848 0.478648 0.379227
C26   C     C_R   0.815260 0.584658 0.520084 0.370510
C27   C     C_R   0.767907 0.499654 0.499922 -0.250351
C28   C     C_R   0.953097 0.500275 0.498283 -0.016080
C29   C     C_R   0.527229 0.107445 0.571544 -0.287836
C30   C     C_R   0.558251 0.891628 0.551830 -0.288507
H13   H     H_    0.547657 0.071352 0.628907 0.132215
H14   H     H_    0.606032 0.927397 0.591614 0.130886
C31   C     C_R   0.527352 0.208930 0.569780 0.036214
C32   C     C_R   0.556960 0.790168 0.550957 0.072195
H15   H     H_    0.549917 0.247501 0.624780 0.124914
H16   H     H_    0.602228 0.750410 0.590874 0.155895
N1    N     N_R   0.500020 0.258690 0.500000 -0.175998
N2    N     N_R   0.500020 0.741310 0.500000 -0.180927
C33   C     C_R   0.471984 0.209289 0.430702 0.112674
C34   C     C_R   0.442259 0.790742 0.449972 0.104851
H17   H     H_    0.449398 0.248100 0.375547 0.150791
H18   H     H_    0.396645 0.751433 0.410362 0.124632
C35   C     C_R   0.472134 0.107827 0.429387 -0.262178
C36   C     C_R   0.440568 0.892208 0.449710 -0.263556
H19   H     H_    0.451661 0.072008 0.372187 0.149869
H20   H     H_    0.392248 0.928396 0.410511 0.138062
C37   C     C_R   0.499668 0.054427 0.500567 0.128786
C38   C     C_R   0.499519 0.945109 0.500709 0.126801
O9    O     O_3   0.772877 0.330687 0.455143 -0.586305
C39   C     C_3   0.761541 0.270187 0.526532 0.116243
H21   H     H_    0.699627 0.229145 0.516484 0.185542
H22   H     H_    0.753046 0.310803 0.586620 0.110315
C40   C     C_3   0.837202 0.197471 0.535004 -0.385935
H23   H     H_    0.846856 0.160034 0.473988 0.236155
H24   H     H_    0.899152 0.235523 0.551708 0.240823
C41   C     C_3   0.817841 0.122885 0.603543 -0.930644
H25   H     H_    0.810385 0.158937 0.665466 0.257575
H26   H     H_    0.873262 0.070668 0.607843 0.268359
H27   H     H_    0.756380 0.082646 0.588618 0.256316
O10   O     O_3   0.772498 0.669075 0.541825 -0.602552
C42   C     C_3   0.776188 0.735656 0.473804 0.079700
H28   H     H_    0.710057 0.738771 0.443509 0.182432
H29   H     H_    0.824738 0.716762 0.423603 0.127934
C43   C     C_3   0.799725 0.835536 0.507492 -0.353704
H30   H     H_    0.754819 0.854668 0.559944 0.221752
H31   H     H_    0.868357 0.834333 0.532334 0.224359
C44   C     C_3   0.792364 0.912145 0.438479 -0.888596
H32   H     H_    0.836031 0.893896 0.384823 0.262100
H33   H     H_    0.812796 0.983144 0.463809 0.263605
H34   H     H_    0.723131 0.917754 0.415787 0.267142
N3    N     N_R   0.433891 0.332233 0.089077 0.174551
O11   O     O_R   0.367244 0.301210 0.132908 -0.381442
O12   O     O_R   0.502981 0.277205 0.081907 -0.321253
N4    N     N_R   0.525235 0.681599 0.082857 0.172447
O13   O     O_R   0.487556 0.745799 0.130267 -0.369301
O14   O     O_R   0.608831 0.690559 0.066293 -0.331071
O15   O     O_3   0.462226 0.328593 0.923961 -0.543538
C45   C     C_3   0.406289 0.288354 0.861803 0.090357
H35   H     H_    0.445601 0.234436 0.826450 0.163784
H36   H     H_    0.383300 0.342601 0.814573 0.113898
C46   C     C_3   0.327896 0.236856 0.902749 -0.310262
H37   H     H_    0.352349 0.185223 0.951263 0.265129
H38   H     H_    0.284736 0.290521 0.934109 0.210745
C47   C     C_3   0.273872 0.181915 0.837413 -0.941212
H39   H     H_    0.251406 0.231596 0.786694 0.254456
H40   H     H_    0.215160 0.149283 0.867905 0.268475
H41   H     H_    0.314110 0.123387 0.809283 0.261755
O16   O     O_3   0.531390 0.672138 0.915025 -0.550334
C48   C     C_3   0.486876 0.757111 0.889139 0.142454
H42   H     H_    0.533334 0.818360 0.897384 0.185612
H43   H     H_    0.428170 0.773757 0.928651 0.130469
C49   C     C_3   0.461574 0.750520 0.795756 -0.383589
H44   H     H_    0.520809 0.731192 0.758363 0.242061
H45   H     H_    0.411248 0.693156 0.786920 0.214538
C50   C     C_3   0.424565 0.845917 0.762724 -0.905846
H46   H     H_    0.364827 0.866579 0.798702 0.257615
H47   H     H_    0.406296 0.838163 0.695283 0.269990
H48   H     H_    0.474794 0.903934 0.768232 0.253145
O17   O     O_3   0.053453 0.649862 0.416568 -0.618545
C51   C     C_3   0.027018 0.620135 0.335069 0.064752
H49   H     H_    0.966256 0.660906 0.318395 0.164893
H50   H     H_    0.009269 0.542044 0.331456 0.136285
C52   C     C_3   0.098575 0.644226 0.270401 -0.358066
H51   H     H_    0.115429 0.722143 0.274457 0.233995
H52   H     H_    0.158924 0.601465 0.284276 0.213289
C53   C     C_3   0.067868 0.621463 0.181048 -0.890607
H53   H     H_    0.051877 0.543520 0.175314 0.258374
H54   H     H_    0.121203 0.639262 0.135832 0.256944
H55   H     H_    0.008619 0.664917 0.164634 0.259755
O18   O     O_3   0.052855 0.350409 0.579791 -0.624338
C54   C     C_3   0.027761 0.379304 0.661729 0.064374
H56   H     H_    0.963097 0.345173 0.675670 0.162920
H57   H     H_    0.017763 0.458821 0.668332 0.132443
C55   C     C_3   0.095475 0.343521 0.726452 -0.361535
H58   H     H_    0.103479 0.264146 0.720093 0.234248
H59   H     H_    0.160212 0.378420 0.714485 0.205824
C56   C     C_3   0.066834 0.366522 0.816154 -0.908816
H60   H     H_    0.059400 0.445707 0.824201 0.255677
H61   H     H_    0.117529 0.340040 0.861329 0.262014
H62   H     H_    0.003171 0.330488 0.830564 0.259377

loop_
_geom_bond_atom_site_label_1
_geom_bond_atom_site_label_2
_geom_bond_distance
_ccdc_geom_bond_type
C5    C8    1.569651 S    
C36   H20   1.081301 S    
N3    O11   1.301218 A    
C31   N1    1.365459 A    
C18   C22   1.413174 A    
C48   H42   1.110868 S    
C10   C13   1.555894 S    
C53   H53   1.110928 S    
C49   H44   1.111821 S    
Cu1   Cu2   2.672197 S    
C48   H43   1.115540 S    
C36   C38   1.411313 A    
C11   C14   1.462942 S    
Cu1   O7    1.924675 S    
C12   C13   1.545160 S    
C17   C19   1.391838 A    
C50   H47   1.110725 S    
Cu2   N1    2.007402 S    
O4    C2    1.290377 A    
C56   H62   1.110967 S    
C43   H31   1.111522 S    
C47   H39   1.109703 S    
C7    H2    1.119012 S    
N2    C34   1.362637 A    
C8    H1    1.119091 S    
C33   H17   1.080270 S    
C17   C22   1.413347 A    
O5    C3    1.296441 A    
C10   C15   1.465757 S    
C34   H18   1.081821 S    
O16   C48   1.415612 S    
C12   H8    1.112785 S    
C1    C21   1.454554 S    
C42   H28   1.111171 S    
C30   H14   1.081139 S    
C6    C7    1.567163 S    
C35   H19   1.081362 S    
N4    O14   1.301291 A    
C52   C53   1.525797 S    
O6    C3    1.294827 A    
C44   H33   1.108183 S    
C29   C31   1.406294 A    
C6    C10   1.567877 S    
O1    Cu1   1.959983 S    
C48   C49   1.533261 S    
C8    C11   1.561340 S    
C55   C56   1.525561 S    
C24   H12   1.083585 S    
C32   H16   1.081541 S    
N1    C33   1.364908 A    
C34   C36   1.406076 A    
C13   H5    1.108590 S    
C17   O17   1.384325 S    
C20   C21   1.397746 A    
C39   H22   1.117644 S    
C50   H48   1.110958 S    
C5    N4    1.472998 S    
C41   H25   1.110899 S    
O18   C54   1.416301 S    
O3    Cu1   1.926352 S    
C11   C12   1.551249 S    
C7    O15   1.424616 S    
C45   C46   1.531923 S    
C32   N2    1.363054 A    
O1    C1    1.290560 A    
C4    C9    1.419941 S    
C40   H23   1.111081 S    
C15   C16   1.199302 T    
C54   C55   1.530773 S    
C23   H11   1.083154 S    
C12   H7    1.112688 S    
O15   C45   1.415208 S    
Cu2   O8    1.926461 S    
N4    O13   1.301193 A    
C45   H36   1.114387 S    
C6    N3    1.473475 S    
C46   H38   1.111067 S    
C9    C14   1.197638 T    
C44   H34   1.111097 S    
C40   H24   1.109098 S    
C25   O9    1.383791 S    
O17   C51   1.416186 S    
C22   C28   1.467442 S    
C3    C27   1.476347 S    
C55   H59   1.110932 S    
C5    C10   1.568378 S    
C2    C16   1.423251 S    
O8    C4    1.288380 A    
C31   H15   1.080356 S    
C52   H51   1.111555 S    
O3    C2    1.289736 A    
C51   H50   1.116682 S    
C53   H55   1.110859 S    
Cu1   N2    2.007402 S    
C52   H52   1.110783 S    
C24   C28   1.394535 A    
Cu1   O5    1.960017 S    
C26   C27   1.416691 A    
C6    H4    1.115818 S    
C42   H29   1.118902 S    
C13   H6    1.107737 S    
C43   H30   1.110662 S    
Cu2   O6    1.960117 S    
O2    Cu2   1.959882 S    
C8    O16   1.423876 S    
C39   H21   1.109031 S    
C43   C44   1.526093 S    
C53   H54   1.110462 S    
O4    Cu2   1.924575 S    
C49   H45   1.110890 S    
C56   H60   1.110876 S    
C23   C28   1.394815 A    
C25   C27   1.419793 A    
C7    C11   1.563584 S    
C51   C52   1.532490 S    
C18   O18   1.383879 S    
O2    C1    1.290824 A    
C51   H49   1.111100 S    
O9    C39   1.417899 S    
C19   H9    1.083841 S    
C24   C26   1.394171 A    
C50   H46   1.110796 S    
C20   H10   1.083711 S    
C56   H61   1.110549 S    
C41   H27   1.111349 S    
C39   C40   1.531739 S    
C54   H56   1.111236 S    
C47   H40   1.110328 S    
C35   C37   1.410002 A    
C18   C20   1.391564 A    
C45   H35   1.111045 S    
O7    C4    1.288777 A    
C26   O10   1.382904 S    
C46   C47   1.525543 S    
C41   H26   1.110409 S    
C19   C21   1.398023 A    
C37   C38   1.514659 S    
C40   C41   1.526873 S    
C49   C50   1.525930 S    
C30   C38   1.410641 A    
C33   C35   1.406078 A    
C5    H3    1.115460 S    
C42   C43   1.527680 S    
N3    O12   1.301101 A    
O10   C42   1.418656 S    
C46   H37   1.111572 S    
C54   H57   1.117524 S    
C55   H58   1.111507 S    
C29   C37   1.409977 A    
C29   H13   1.081432 S    
C44   H32   1.110934 S    
C23   C25   1.392539 A    
C30   C32   1.406055 A    
C47   H41   1.110981 S    
