data_mof_unit_31406.cif
_audit_creation_date              2012-12-10T17:36:50-0500
_audit_creation_method            fapswitch 2.2
_symmetry_space_group_name_H-M    P1
_symmetry_Int_Tables_number       1
_space_group_crystal_system       triclinic
_cell_length_a                    10.688531
_cell_length_b                    12.593424
_cell_length_c                    13.493252
_cell_angle_alpha                 117.99014
_cell_angle_beta                  74.96015
_cell_angle_gamma                 102.054354
_cell_volume                      1540.7815223

loop_
_atom_site_label
_atom_site_type_symbol
_atom_type_description
_atom_site_fract_x
_atom_site_fract_y
_atom_site_fract_z
_atom_type_partial_charge
C1    C     C_R   0.505079 0.854809 0.288043 0.851476
C2    C     C_3   0.012800 0.896124 0.504613 -0.142108
C3    C     C_3   0.963519 0.900886 0.408467 -0.308346
C4    C     C_3   0.879117 0.002322 0.499531 -0.141249
C5    C     C_R   0.409714 0.269957 0.035563 0.309216
C6    C     C_R   0.471645 0.229529 0.835802 -0.203831
C7    C     C_R   0.559147 0.810456 0.082924 -0.265954
C8    C     C_R   0.610061 0.730795 0.972226 0.057449
C9    C     C_R   0.596779 0.606859 0.941724 0.366673
C10   C     C_R   0.505404 0.561745 0.015026 -0.072944
C11   C     C_R   0.456881 0.645186 0.128937 0.072193
C12   C     C_R   0.740501 0.001190 0.500271 0.873598
C13   C     C_R   0.466489 0.436683 0.982262 0.080328
C14   C     C_R   0.411726 0.394518 0.065900 0.005378
C15   C     C_R   0.358121 0.478054 0.175060 -0.151213
C16   C     C_R   0.367279 0.600117 0.201549 0.165521
C17   C     C_R   0.471249 0.352538 0.868412 -0.194323
C18   C     C_R   0.461389 0.191879 0.921301 0.325602
C19   C     C_R   0.500883 0.769989 0.165905 -0.081373
C20   C     C_R   0.736095 0.375400 0.379558 0.078365
C21   C     C_R   0.319797 0.762750 0.645579 0.354454
C22   C     C_R   0.284876 0.675796 0.686441 -0.222782
C23   C     C_R   0.484601 0.145323 0.712966 0.853348
C24   C     C_R   0.353465 0.575715 0.640805 0.204081
C25   C     C_R   0.454271 0.553817 0.542479 -0.060803
C26   C     C_R   0.491845 0.648816 0.504284 0.144819
C27   C     C_R   0.527124 0.448300 0.485766 -0.068229
C28   C     C_R   0.641312 0.450034 0.406924 -0.039322
C29   C     C_R   0.657852 0.521214 0.351292 0.371506
C30   C     C_R   0.596004 0.626825 0.405942 0.047625
C31   C     C_R   0.495421 0.338476 0.498166 0.075387
C32   C     C_R   0.695314 0.261867 0.376048 0.613857
C33   C     C_R   0.260384 0.998573 0.499922 0.829988
C34   C     C_3   0.992042 0.098624 0.494226 0.395955
C35   C     C_3   0.075614 0.998370 0.404676 0.347651
C36   C     C_3   0.123357 0.994528 0.499493 -0.121566
C37   C     C_3   0.039883 0.094813 0.590559 -0.307232
C38   C     C_3   0.926648 0.996868 0.595690 -0.132500
Cu1   Cu    Cu3+1 0.529830 0.098270 0.475420 1.100689
Cu2   Cu    Cu3+1 0.470170 0.901730 0.524580 1.024793
H1    H     H_    0.479195 0.383956 0.804944 0.202666
H2    H     H_    0.576362 0.904668 0.105842 0.259524
H3    H     H_    0.405577 0.320052 0.547723 0.148309
H4    H     H_    0.205260 0.688926 0.758527 0.185476
H5    H     H_    0.072650 0.174406 0.665357 0.179135
H6    H     H_    0.867654 0.994495 0.675215 0.227803
H7    H     H_    0.023307 0.812595 0.508913 0.178791
H8    H     H_    0.939132 0.823898 0.328648 0.180659
H9    H     H_    0.303242 0.450836 0.239807 0.174505
N1    N     N_R   0.575030 0.246270 0.438190 -0.248494
N2    N     N_R   0.425760 0.754330 0.561190 -0.174895
O1    O     O_R   0.537510 0.972500 0.318130 -0.509815
O2    O     O_R   0.487140 0.806530 0.359650 -0.578931
O3    O     O_R   0.708330 0.082950 0.479220 -0.504394
O4    O     O_R   0.657960 0.916980 0.520740 -0.547482
O5    O     O_R   0.512860 0.193470 0.640350 -0.590822
O6    O     O_R   0.462490 0.027500 0.681870 -0.503153
O7    O     O_R   0.342040 0.083020 0.479260 -0.562534
O8    O     O_R   0.291670 0.917050 0.520780 -0.581137
S1    S     S_3+6 0.175730 0.989865 0.274219 0.093743
O9    O     O_2   0.281016 0.093132 0.301098 -0.152688
O10   O     O_2   0.236432 0.872726 0.211178 -0.322630
O11   O     O_3   0.086372 0.998162 0.192824 -0.395209
H10   H     H_    0.031192 0.919995 0.166843 0.332831
S2    S     S_3+6 0.717357 0.520541 0.828525 0.008297
O12   O     O_2   0.675394 0.476374 0.716378 -0.257646
O13   O     O_2   0.738773 0.414735 0.842962 -0.299520
O14   O     O_3   0.860191 0.606987 0.825972 -0.488738
H11   H     H_    0.884798 0.631194 0.900185 0.336967
N3    N     N_3   0.686742 0.777356 0.894203 -0.471249
H12   H     H_    0.762218 0.838720 0.932290 0.254407
H13   H     H_    0.628230 0.824821 0.881407 0.259908
N4    N     N_3   0.277118 0.674840 0.296386 -0.537712
H14   H     H_    0.183379 0.641779 0.278390 0.249788
H15   H     H_    0.280330 0.665122 0.368526 0.229268
S3    S     S_3+6 0.758146 0.139049 0.247540 0.104285
O15   O     O_2   0.658084 0.100349 0.174489 -0.248550
O16   O     O_2   0.883720 0.175482 0.184455 -0.207152
O17   O     O_3   0.783493 0.021873 0.264377 -0.523181
H16   H     H_    0.797970 0.955070 0.186200 0.335616
S4    S     S_3+6 0.757485 0.477571 0.210657 0.011318
O18   O     O_2   0.889121 0.548851 0.220920 -0.337807
O19   O     O_2   0.774003 0.345041 0.153081 -0.167768
O20   O     O_3   0.689384 0.503627 0.126072 -0.562377
H17   H     H_    0.762766 0.513340 0.067693 0.389986
N5    N     N_3   0.870448 0.424743 0.372771 -0.523863
H18   H     H_    0.907760 0.420645 0.434992 0.283601
H19   H     H_    0.926506 0.378873 0.292896 0.319560
N6    N     N_3   0.243307 0.862204 0.694069 -0.502062
H20   H     H_    0.149387 0.827433 0.677073 0.196654
H21   H     H_    0.235390 0.904007 0.782751 0.254970
S5    S     S_3+6 0.996956 0.237970 0.489933 0.019668
O21   O     O_2   0.128355 0.307615 0.506644 -0.340591
O22   O     O_2   0.975045 0.213248 0.375813 -0.213100
O23   O     O_3   0.881465 0.319045 0.592925 -0.462506
H22   H     H_    0.915066 0.347321 0.663950 0.397301
N7    N     N_3   0.326024 0.508510 0.706355 -0.584487
H23   H     H_    0.262816 0.431229 0.671033 0.252612
H24   H     H_    0.412153 0.490488 0.715820 0.232216
N8    N     N_3   0.659085 0.716676 0.370252 -0.485692
H25   H     H_    0.755647 0.731401 0.380207 0.230092
H26   H     H_    0.659251 0.688116 0.284320 0.260901
S6    S     S_3+6 0.542545 0.066704 0.889777 0.076963
O24   O     O_2   0.653344 0.049058 0.790706 -0.300073
O25   O     O_2   0.597783 0.090588 0.990649 -0.189758
O26   O     O_3   0.438968 0.939833 0.856138 -0.537021
H27   H     H_    0.442546 0.905873 0.908114 0.373999
S7    S     S_3+6 0.343151 0.213474 0.138381 0.116913
O27   O     O_2   0.334496 0.078193 0.085098 -0.151207
O28   O     O_2   0.428535 0.265977 0.226676 -0.260295
O29   O     O_3   0.191472 0.253895 0.200754 -0.472212
H28   H     H_    0.190289 0.291248 0.283882 0.401844

loop_
_geom_bond_atom_site_label_1
_geom_bond_atom_site_label_2
_ccdc_geom_bond_type
C33   O7    A    
C34   C37   S    
N4    H14   S    
C35   C36   S    
S3    O17   S    
N7    H23   S    
C7    C8    A    
C21   N6    S    
C11   C19   A    
C37   C38   S    
C31   H3    S    
S1    O11   S    
C28   C29   A    
S3    O16   D    
N5    H19   S    
Cu1   O3    S    
O26   H27   S    
C15   C16   A    
C30   N8    S    
C3    H8    S    
C33   C36   S    
S7    O27   D    
S1    O10   D    
C34   C35   S    
C7    H2    S    
C1    O2    A    
S5    O21   D    
S6    O24   D    
S4    O19   D    
O20   H17   S    
C22   H4    S    
O29   H28   S    
O14   H11   S    
S2    O13   D    
C20   N5    S    
N3    H12   S    
C4    C12   S    
C9    C10   A    
S2    O14   S    
Cu1   O1    S    
C33   O8    A    
Cu2   O8    S    
C21   C22   A    
N4    H15   S    
S5    O22   D    
N7    H24   S    
S4    O18   D    
C17   H1    S    
C6    C18   A    
C4    C34   S    
C1    C19   S    
C27   C31   A    
C24   N7    S    
C23   O5    A    
S3    O15   D    
Cu1   Cu2   S    
N5    H18   S    
C8    C9    A    
C5    C18   A    
C20   C28   A    
C25   C26   A    
Cu1   O7    S    
S5    O23   S    
C16   N4    S    
C35   S1    S    
C29   S4    S    
C29   C30   A    
C11   C16   A    
C2    C38   S    
Cu1   O5    S    
C3    C35   S    
Cu2   O4    S    
C9    S2    S    
N8    H26   S    
S6    O25   D    
C24   C25   A    
C32   N1    A    
C5    C14   A    
C4    C38   S    
C26   C30   A    
C7    C19   A    
C22   C24   A    
N6    H21   S    
C31   N1    A    
C37   H5    S    
C3    C4    S    
C21   N2    A    
S4    O20   S    
C20   C32   A    
C2    C36   S    
C23   O6    A    
C6    C17   A    
C36   C37   S    
Cu2   O6    S    
O11   H10   S    
C10   C13   A    
C32   S3    S    
C2    H7    S    
C25   C27   A    
Cu2   N2    S    
C8    N3    S    
S7    O29   S    
C13   C17   A    
C2    C3    S    
S2    O12   D    
C26   N2    A    
C6    C23   S    
N8    H25   S    
S7    O28   D    
S6    O26   S    
C18   S6    S    
C15   H9    S    
C1    O1    A    
C34   S5    S    
C38   H6    S    
C12   O4    A    
C10   C11   A    
O17   H16   S    
Cu1   N1    S    
Cu2   O2    S    
O23   H22   S    
C14   C15   A    
S1    O9    D    
N3    H13   S    
N6    H20   S    
C13   C14   A    
C12   O3    A    
C27   C28   A    
C5    S7    S    
