data_mof_unit_56196.cif
_audit_creation_date              2012-10-26T20:06:16-0400
_audit_creation_method            fapswitch 2.2
_symmetry_space_group_name_H-M    P1
_symmetry_Int_Tables_number       1
_space_group_crystal_system       triclinic
_cell_length_a                    9.578763
_cell_length_b                    10.836261
_cell_length_c                    13.411167
_cell_angle_alpha                 91.506641
_cell_angle_beta                  71.907705
_cell_angle_gamma                 89.795238
_cell_volume                      1322.6670595

loop_
_atom_site_label
_atom_site_type_symbol
_atom_type_description
_atom_site_fract_x
_atom_site_fract_y
_atom_site_fract_z
_atom_type_partial_charge
C1    C     C_R   0.499527 0.737600 0.500730 0.551736
C2    C     C_R   0.370477 0.496339 0.816039 -0.054433
C3    C     C_R   0.607050 0.934846 0.532416 -0.118431
C4    C     C_R   0.420559 0.496242 0.700353 0.531164
C5    C     C_R   0.608378 0.063650 0.534416 0.248615
C6    C     C_R   0.500014 0.128038 0.504456 0.057917
C7    C     C_R   0.390699 0.063394 0.476344 -0.174615
C8    C     C_R   0.389794 0.935816 0.475752 -0.151758
C9    C     C_R   0.498693 0.871296 0.502788 -0.012900
C10   C     C_R   0.903043 0.591314 0.551664 -0.037203
C11   C     C_R   0.051471 0.591337 0.551561 -0.041399
C12   C     C_R   0.429302 0.488198 0.980779 0.035752
C13   C     C_R   0.095506 0.407121 0.449650 0.416399
C14   C     C_R   0.948766 0.407426 0.449424 0.413623
C15   C     C_R   0.499747 0.262223 0.501675 0.575331
C16   C     C_R   0.579914 0.498528 0.299306 0.534934
C17   C     C_R   0.768343 0.367425 0.028166 -0.053591
C18   C     C_R   0.627757 0.484453 0.183628 -0.012148
C19   C     C_R   0.233497 0.549926 0.870216 -0.067167
C20   C     C_R   0.189161 0.566075 0.978842 0.239635
C21   C     C_R   0.286944 0.535571 0.033906 -0.056527
C22   C     C_R   0.462551 0.454262 0.873003 -0.004031
C23   C     C_R   0.537481 0.467848 0.031857 0.068880
C24   C     C_R   0.661921 0.392624 0.979995 -0.038846
C25   C     C_R   0.681231 0.344590 0.879134 -0.130023
C26   C     C_R   0.584317 0.376151 0.825762 -0.096907
C27   C     C_R   0.530328 0.523994 0.129994 0.197908
C28   C     C_R   0.753279 0.412575 0.128835 0.221725
Cu1   Cu    Cu3+1 0.359340 0.499980 0.500000 0.961857
Cu2   Cu    Cu3+1 0.640660 0.500020 0.500000 0.979013
H1    H     H_    0.305185 0.887763 0.452684 0.152096
H2    H     H_    0.280124 0.342216 0.360378 0.357730
H3    H     H_    0.834924 0.344378 0.365115 0.375974
H4    H     H_    0.470808 0.672221 0.219618 0.339425
H5    H     H_    0.160585 0.580824 0.827989 0.157234
H6    H     H_    0.246987 0.543777 0.118398 0.176030
H7    H     H_    0.038117 0.625535 0.104640 0.323124
H8    H     H_    0.603545 0.334887 0.748324 0.176169
H9    H     H_    0.829313 0.664579 0.593416 0.130881
H10   H     H_    0.774167 0.284766 0.840035 0.125955
H11   H     H_    0.864279 0.311491 0.987480 0.155415
H12   H     H_    0.689697 0.884421 0.555191 0.111565
H13   H     H_    0.885382 0.458246 0.205003 0.336396
H14   H     H_    0.778794 0.067880 0.584925 0.321396
H15   H     H_    0.306597 0.111253 0.453461 0.192072
H16   H     H_    0.088493 0.664629 0.593181 0.129942
N1    N     N_R   0.147940 0.499970 0.499970 -0.264117
N2    N     N_R   0.852060 0.500060 0.499990 -0.276966
O1    O     O_R   0.381250 0.680340 0.500010 -0.509501
O2    O     O_3   0.712124 0.127407 0.566895 -0.657892
O3    O     O_3   0.182471 0.310111 0.396856 -0.661667
O4    O     O_3   0.908658 0.312127 0.394872 -0.603353
O5    O     O_3   0.435974 0.623164 0.168755 -0.712862
O6    O     O_3   0.051135 0.615054 0.028610 -0.686653
O7    O     O_R   0.618820 0.680370 0.500010 -0.510080
O8    O     O_R   0.323240 0.499950 0.650980 -0.502753
O9    O     O_R   0.560810 0.499980 0.650980 -0.499447
O10   O     O_R   0.381180 0.319630 0.499990 -0.510683
O11   O     O_R   0.618750 0.319660 0.499990 -0.435889
O12   O     O_R   0.439190 0.500020 0.349020 -0.506530
O13   O     O_R   0.676760 0.500050 0.349020 -0.529626
O14   O     O_3   0.861973 0.382220 0.171195 -0.677899

loop_
_geom_bond_atom_site_label_1
_geom_bond_atom_site_label_2
_ccdc_geom_bond_type
C4    O9    A    
C2    C22   A    
C2    C4    S    
C23   C24   A    
C27   O5    S    
H2    O3    S    
C6    C7    A    
C3    C9    A    
Cu1   O8    S    
C23   C27   A    
C8    C9    A    
Cu2   O7    S    
C11   N1    A    
C19   C20   A    
Cu1   O12   S    
Cu2   O11   S    
C1    O7    A    
C24   C25   A    
C1    C9    S    
C7    C8    A    
C3    H12   S    
C21   H6    S    
Cu1   O1    S    
C13   C14   A    
Cu1   O10   S    
H3    O4    S    
C17   C28   A    
C12   C23   A    
Cu1   Cu2   S    
C15   O11   A    
Cu1   N1    S    
H7    O6    S    
C7    H15   S    
Cu2   N2    S    
C25   C26   A    
C19   H5    S    
C25   H10   S    
C10   N2    A    
C5    C6    A    
C15   O10   A    
C17   H11   S    
C5    O2    S    
C17   C24   A    
C10   C11   A    
C22   C26   A    
Cu2   O9    S    
C12   C22   A    
C4    O8    A    
C18   C28   A    
C20   C21   A    
H4    O5    S    
C20   O6    S    
C16   O12   A    
Cu2   O13   S    
H14   O2    S    
C13   N1    A    
C26   H8    S    
C11   H16   S    
C14   N2    A    
C16   O13   A    
C6    C15   S    
C2    C19   A    
C8    H1    S    
C1    O1    A    
C12   C21   A    
C16   C18   S    
C14   O4    S    
C18   C27   A    
H13   O14   S    
C28   O14   S    
C10   H9    S    
C3    C5    A    
C13   O3    S    
