data_mof_unit_43127.cif
_audit_creation_date              2012-12-11T15:26:36-0500
_audit_creation_method            fapswitch 2.2
_symmetry_space_group_name_H-M    P1
_symmetry_Int_Tables_number       1
_space_group_crystal_system       triclinic
_cell_length_a                    7.223322
_cell_length_b                    12.140275
_cell_length_c                    29.097942
_cell_angle_alpha                 90.000054
_cell_angle_beta                  89.967453
_cell_angle_gamma                 90.23178
_cell_volume                      2551.66789802

loop_
_atom_site_label
_atom_site_type_symbol
_atom_type_description
_atom_site_fract_x
_atom_site_fract_y
_atom_site_fract_z
_atom_type_partial_charge
O1    O     O_R   0.647170 0.849180 0.201220 -0.536859
O2    O     O_R   0.352830 0.150820 0.798780 -0.536859
O3    O     O_R   0.352830 0.150820 0.701220 -0.536859
O4    O     O_R   0.647170 0.849180 0.298780 -0.536859
O5    O     O_R   0.147170 0.650820 0.298780 -0.537280
O6    O     O_R   0.852830 0.349180 0.701220 -0.537280
O7    O     O_R   0.852830 0.349180 0.798780 -0.537266
O8    O     O_R   0.147170 0.650820 0.201220 -0.537266
O9    O     O_R   0.317430 0.862210 0.298450 -0.540186
O10   O     O_R   0.682570 0.137790 0.701550 -0.540186
O11   O     O_R   0.682570 0.137790 0.798450 -0.540192
O12   O     O_R   0.317430 0.862210 0.201550 -0.540192
O13   O     O_R   0.817430 0.637790 0.201550 -0.539985
O14   O     O_R   0.182570 0.362210 0.798450 -0.539985
O15   O     O_R   0.182570 0.362210 0.701550 -0.539998
O16   O     O_R   0.817430 0.637790 0.298450 -0.539998
C1    C     C_R   0.486011 0.887769 0.313326 0.682308
C2    C     C_R   0.513989 0.112231 0.686674 0.682308
C3    C     C_R   0.513908 0.112232 0.813325 0.682342
C4    C     C_R   0.486092 0.887768 0.186675 0.682343
C5    C     C_R   0.985487 0.612188 0.186661 0.682575
C6    C     C_R   0.014513 0.387812 0.813339 0.682575
C7    C     C_R   0.014593 0.387812 0.686658 0.682578
C8    C     C_R   0.985406 0.612188 0.313342 0.682578
H1    H     H_    0.957417 0.260940 0.373446 0.124660
H2    H     H_    0.042583 0.739060 0.626554 0.124660
H3    H     H_    0.036248 0.739299 0.873384 0.124594
H4    H     H_    0.963752 0.260701 0.126616 0.124594
H5    H     H_    0.538313 0.238469 0.126850 0.124633
H6    H     H_    0.461687 0.761531 0.873150 0.124633
H7    H     H_    0.467830 0.761210 0.626870 0.124568
H8    H     H_    0.532170 0.238790 0.373130 0.124568
O17   O     O_3   0.480630 0.680630 0.250000 -0.376857
O18   O     O_3   0.519370 0.319370 0.750000 -0.376857
O19   O     O_3   0.980630 0.819370 0.250000 -0.376790
O20   O     O_3   0.019370 0.180630 0.750000 -0.376790
V1    V     V_3+5 0.205800 0.762860 0.250000 1.422833
V2    V     V_3+5 0.794200 0.237140 0.750000 1.422833
V3    V     V_3+5 0.705800 0.737140 0.250000 1.424201
V4    V     V_3+5 0.294200 0.262860 0.750000 1.424201
H9    H     H_    0.974202 0.283476 0.532581 0.129553
H10   H     H_    0.025798 0.716524 0.467419 0.129553
H11   H     H_    0.021162 0.716761 0.032536 0.129558
H12   H     H_    0.978838 0.283239 0.967464 0.129558
H13   H     H_    0.533944 0.216338 0.967638 0.129746
H14   H     H_    0.466056 0.783662 0.032362 0.129746
H15   H     H_    0.470567 0.783425 0.467653 0.129748
H16   H     H_    0.529433 0.216575 0.532347 0.129748
C9    C     C_R   0.991123 0.534413 0.351708 -0.026132
C10   C     C_R   0.008877 0.465587 0.648291 -0.026132
C11   C     C_R   0.008464 0.465552 0.851712 -0.025962
C12   C     C_R   0.991536 0.534448 0.148288 -0.025961
C13   C     C_R   0.495265 0.965317 0.148277 -0.025484
C14   C     C_R   0.504735 0.034683 0.851723 -0.025484
C15   C     C_R   0.505148 0.034677 0.648276 -0.025407
C16   C     C_R   0.494852 0.965323 0.351724 -0.025407
C17   C     C_R   0.970602 0.348343 0.380437 -0.169453
C18   C     C_R   0.029398 0.651657 0.619563 -0.169453
C19   C     C_R   0.025169 0.651791 0.880398 -0.169435
C20   C     C_R   0.974831 0.348209 0.119602 -0.169435
C21   C     C_R   0.524109 0.151167 0.119756 -0.168982
C22   C     C_R   0.475891 0.848833 0.880244 -0.168982
C23   C     C_R   0.480015 0.848629 0.619766 -0.169036
C24   C     C_R   0.519985 0.151371 0.380234 -0.169036
C25   C     C_R   0.974046 0.421578 0.343640 -0.178716
C26   C     C_R   0.025954 0.578422 0.656360 -0.178716
C27   C     C_R   0.022819 0.578512 0.843610 -0.178852
C28   C     C_R   0.977181 0.421488 0.156390 -0.178852
C29   C     C_R   0.513461 0.078009 0.156507 -0.179125
C30   C     C_R   0.486539 0.921991 0.843492 -0.179125
C31   C     C_R   0.489565 0.921839 0.656514 -0.179133
C32   C     C_R   0.510435 0.078161 0.343486 -0.179133
C33   C     C_R   0.003601 0.574360 0.396722 -0.217645
C34   C     C_R   0.996399 0.425640 0.603278 -0.217645
C35   C     C_R   0.997546 0.425534 0.896741 -0.217559
C36   C     C_R   0.002454 0.574466 0.103259 -0.217559
C37   C     C_R   0.488063 0.925436 0.103192 -0.217545
C38   C     C_R   0.511937 0.074564 0.896807 -0.217545
C39   C     C_R   0.510888 0.074636 0.603189 -0.217490
C40   C     C_R   0.489112 0.925364 0.396811 -0.217490
C41   C     C_R   0.997259 0.501942 0.434930 0.081606
C42   C     C_R   0.002741 0.498057 0.565070 0.081606
C43   C     C_R   0.002530 0.498026 0.934932 0.081663
C44   C     C_R   0.997470 0.501974 0.065068 0.081663
C45   C     C_R   0.499251 0.997853 0.065063 0.081581
C46   C     C_R   0.500749 0.002147 0.934936 0.081581
C47   C     C_R   0.501002 0.002146 0.565064 0.081634
C48   C     C_R   0.498998 0.997854 0.434936 0.081634
C49   C     C_R   0.981368 0.387341 0.425801 0.130789
C50   C     C_R   0.018631 0.612658 0.574199 0.130789
C51   C     C_R   0.015761 0.612744 0.925776 0.130707
C52   C     C_R   0.984238 0.387256 0.074224 0.130707
C53   C     C_R   0.517194 0.112294 0.074322 0.130739
C54   C     C_R   0.482806 0.887706 0.925678 0.130739
C55   C     C_R   0.485647 0.887570 0.574330 0.130686
C56   C     C_R   0.514353 0.112430 0.425670 0.130686
C57   C     C_R   0.004268 0.539244 0.481635 0.053618
C58   C     C_R   0.995732 0.460756 0.518365 0.053618
C59   C     C_R   0.996541 0.460707 0.981645 0.053626
C60   C     C_R   0.003459 0.539292 0.018355 0.053626
C61   C     C_R   0.493739 0.960745 0.018323 0.053546
C62   C     C_R   0.506261 0.039254 0.981677 0.053546
C63   C     C_R   0.505487 0.039298 0.518321 0.053580
C64   C     C_R   0.494513 0.960702 0.481679 0.053580
C65   C     C_R   0.981271 0.347685 0.507154 -0.194374
C66   C     C_R   0.018729 0.652315 0.492845 -0.194374
C67   C     C_R   0.015405 0.652466 0.007122 -0.194393
C68   C     C_R   0.984595 0.347534 0.992878 -0.194393
C69   C     C_R   0.523584 0.152133 0.992999 -0.194238
C70   C     C_R   0.476416 0.847867 0.007001 -0.194238
C71   C     C_R   0.479668 0.847700 0.493010 -0.194316
C72   C     C_R   0.520332 0.152300 0.506990 -0.194316
C73   C     C_R   0.974678 0.312194 0.461886 -0.200176
C74   C     C_R   0.025322 0.687806 0.538114 -0.200176
C75   C     C_R   0.021015 0.687970 0.961846 -0.200282
C76   C     C_R   0.978985 0.312029 0.038154 -0.200282
C77   C     C_R   0.528571 0.187441 0.038306 -0.200297
C78   C     C_R   0.471429 0.812559 0.961694 -0.200297
C79   C     C_R   0.475689 0.812350 0.538319 -0.200408
C80   C     C_R   0.524311 0.187650 0.461681 -0.200408
H17   H     H_    0.962916 0.224598 0.455069 0.139637
H18   H     H_    0.037084 0.775402 0.544931 0.139637
H19   H     H_    0.030801 0.775658 0.955010 0.139522
H20   H     H_    0.969199 0.224342 0.044990 0.139522
H21   H     H_    0.542165 0.274906 0.045212 0.139721
H22   H     H_    0.457835 0.725094 0.954788 0.139721
H23   H     H_    0.464040 0.724781 0.545231 0.139622
H24   H     H_    0.535960 0.275219 0.454769 0.139622
H25   H     H_    0.037336 0.609630 0.691135 0.101194
H26   H     H_    0.962664 0.390370 0.308865 0.101194
H27   H     H_    0.967145 0.390208 0.191183 0.101132
H28   H     H_    0.032855 0.609792 0.808817 0.101132
H29   H     H_    0.480387 0.890819 0.808633 0.100893
H30   H     H_    0.519613 0.109181 0.191367 0.100893
H31   H     H_    0.515331 0.109410 0.308621 0.100875
H32   H     H_    0.484669 0.890590 0.691379 0.100875
H33   H     H_    0.985068 0.337618 0.599560 0.096885
H34   H     H_    0.014932 0.662382 0.400440 0.096885
H35   H     H_    0.011802 0.662571 0.099524 0.096758
H36   H     H_    0.988198 0.337429 0.900476 0.096758
H37   H     H_    0.525651 0.162445 0.900613 0.096435
H38   H     H_    0.474349 0.837555 0.099387 0.096435
H39   H     H_    0.477270 0.837375 0.400624 0.096364
H40   H     H_    0.522730 0.162625 0.599376 0.096364

loop_
_geom_bond_atom_site_label_1
_geom_bond_atom_site_label_2
_ccdc_geom_bond_type
C48   C56   A    
C61   C62   A    
O5    V1    S    
C28   H27   S    
C27   H28   S    
C68   C76   A    
C7    C10   S    
C24   C32   A    
C13   C29   A    
C36   C44   A    
C39   C47   A    
C25   H26   S    
C69   C77   A    
C59   C68   A    
O11   C3    A    
C29   H30   S    
C58   C65   A    
C17   C49   A    
C66   C74   A    
O18   V4    S    
C65   C73   A    
O19   V1    S    
C11   C35   A    
C35   H36   S    
C10   C34   A    
C21   C53   A    
C33   H34   S    
C23   C55   A    
C22   C30   A    
O3    C2    A    
C71   C79   A    
O12   V1    S    
C37   H38   S    
C46   C54   A    
C19   C27   A    
O17   V3    S    
C45   C53   A    
C18   C26   A    
C39   H40   S    
C16   C32   A    
C47   C55   A    
C30   H29   S    
O6    V2    S    
C12   C28   A    
C26   H25   S    
C41   C49   A    
C38   C46   A    
O15   C7    A    
C37   C45   A    
O16   C8    A    
C43   C59   A    
C42   C58   A    
C70   C78   A    
C53   C77   A    
C34   C42   A    
C33   C41   A    
C48   C64   A    
C57   C58   A    
C49   C73   A    
H12   C68   S    
C34   H33   S    
H5    C21   S    
C75   H19   S    
C44   C60   A    
H7    C23   S    
H8    C24   S    
C60   C67   A    
C38   H37   S    
H2    C18   S    
C31   H32   S    
C72   C80   A    
C32   H31   S    
H11   C67   S    
C55   C79   A    
C61   C70   A    
C63   C72   A    
C74   H18   S    
O11   V2    S    
C13   C37   A    
C15   C39   A    
C59   C60   A    
C14   C30   A    
O4    V3    S    
C16   C40   A    
C40   H39   S    
O12   C4    A    
O9    V1    S    
O8    C5    A    
O13   C5    A    
C11   C27   A    
C10   C26   A    
C1    C16   S    
C67   C75   A    
H4    C20   S    
C9    C25   A    
C2    C15   S    
C18   C50   A    
C47   C63   A    
C57   C66   A    
C3    C14   S    
O9    C1    A    
H16   C72   S    
C23   C31   A    
O3    V4    S    
C22   C54   A    
C9    C33   A    
O8    V1    S    
O4    C1    A    
C46   C62   A    
H1    C17   S    
C45   C61   A    
C19   C51   A    
C36   H35   S    
C21   C29   A    
C8    C9    S    
O1    C4    A    
C76   H20   S    
O2    C3    A    
C56   C80   A    
C17   C25   A    
C4    C13   S    
C12   C36   A    
C42   C50   A    
C64   C71   A    
C80   H24   S    
C78   H22   S    
O7    C6    A    
C43   C51   A    
C52   C76   A    
O10   V2    S    
O14   C6    A    
H6    C22   S    
C40   C48   A    
H14   C70   S    
H3    C19   S    
C54   C78   A    
C35   C43   A    
O5    C8    A    
C41   C57   A    
O10   C2    A    
H15   C71   S    
O6    C7    A    
O20   V2    S    
O7    V2    S    
C51   C75   A    
C24   C56   A    
H13   C69   S    
C50   C74   A    
O15   V4    S    
O13   V3    S    
O1    V3    S    
O16   V3    S    
O14   V4    S    
H10   C66   S    
O2    V4    S    
C73   H17   S    
H9    C65   S    
C20   C28   A    
C63   C64   A    
C62   C69   A    
C44   C52   A    
C20   C52   A    
C77   H21   S    
C5    C12   S    
C15   C31   A    
C6    C11   S    
C14   C38   A    
C79   H23   S    
