data_mof_unit_41503.cif
_audit_creation_date              2012-12-10T18:47:07-0500
_audit_creation_method            fapswitch 2.2
_symmetry_space_group_name_H-M    P1
_symmetry_Int_Tables_number       1
_space_group_crystal_system       triclinic
_cell_length_a                    10.699467
_cell_length_b                    10.021113
_cell_length_c                    14.967125
_cell_angle_alpha                 90.101512
_cell_angle_beta                  94.205465
_cell_angle_gamma                 90.01869
_cell_volume                      1600.46006151

loop_
_atom_site_label
_atom_site_type_symbol
_atom_type_description
_atom_site_fract_x
_atom_site_fract_y
_atom_site_fract_z
_atom_type_partial_charge
C1    C     C_R   0.260462 0.499955 0.500143 0.879482
C2    C     C_R   0.127637 0.499897 0.499639 0.009432
C3    C     C_R   0.581047 0.072079 0.557882 0.178347
C4    C     C_R   0.418974 0.928621 0.442238 0.223078
C5    C     C_R   0.418963 0.071707 0.442110 0.182510
C6    C     C_R   0.581010 0.929016 0.557761 0.222037
C7    C     C_R   0.496834 0.499566 0.327509 1.007835
C8    C     C_R   0.503268 0.499785 0.672612 0.996815
C9    C     C_R   0.618500 0.489834 0.820111 0.395324
C10   C     C_R   0.382346 0.486283 0.180573 0.389849
C11   C     C_R   0.504051 0.498620 0.768132 -0.299323
C12   C     C_R   0.739429 0.499955 0.498858 0.872969
C13   C     C_R   0.496524 0.497548 0.232216 -0.296244
C14   C     C_R   0.388919 0.500761 0.806432 0.439693
C15   C     C_R   0.611557 0.500861 0.194063 0.437320
C16   C     C_R   0.387467 0.498993 0.899549 -0.032343
C17   C     C_R   0.612986 0.501490 0.100998 -0.031363
C18   C     C_R   0.501675 0.497974 0.953429 -0.094110
C19   C     C_R   0.498863 0.496984 0.047101 -0.091868
C20   C     C_R   0.618411 0.496577 0.913788 -0.073686
C21   C     C_R   0.382281 0.488822 0.086746 -0.073992
C22   C     C_R   0.273281 0.496832 0.939236 -0.297020
C23   C     C_R   0.269386 0.483969 0.031418 0.532554
C24   C     C_R   0.727170 0.506134 0.061498 -0.303511
C25   C     C_3   0.781908 0.568070 0.743458 -0.224414
C26   C     C_3   0.215921 0.577817 0.247991 -0.215382
C27   C     C_3   0.230355 0.381184 0.734080 -0.331054
C28   C     C_3   0.771338 0.383136 0.265647 -0.338650
C29   C     C_3   0.102281 0.350544 0.052684 -0.231089
C30   C     C_3   0.907015 0.628667 0.950095 -0.309577
C31   C     C_3   0.672603 0.143196 0.623549 -0.776638
C32   C     C_3   0.327528 0.858127 0.377037 -0.873517
C33   C     C_3   0.327456 0.142473 0.376449 -0.787052
C34   C     C_R   0.731589 0.504306 0.968814 0.555396
C35   C     C_3   0.672476 0.858956 0.622919 -0.873915
C36   C     C_R   0.063932 0.378175 0.500220 -0.219524
C37   C     C_R   0.935861 0.621603 0.497826 -0.189985
C38   C     C_R   0.936008 0.378182 0.499947 -0.220350
C39   C     C_R   0.063801 0.621600 0.498337 -0.195161
C40   C     C_R   0.872191 0.499905 0.498747 0.008467
H1    H     H_    0.185265 0.501938 0.898831 0.202048
H2    H     H_    0.257404 0.671239 0.222398 0.132124
H3    H     H_    0.218637 0.581175 0.321855 0.138373
H4    H     H_    0.115505 0.575462 0.223596 0.216425
H5    H     H_    0.135695 0.390746 0.699180 0.203139
H6    H     H_    0.220173 0.322314 0.796114 0.153218
H7    H     H_    0.289725 0.325467 0.689071 0.196317
H8    H     H_    0.865347 0.393611 0.301413 0.203657
H9    H     H_    0.783390 0.325858 0.203091 0.153240
H10   H     H_    0.711839 0.325515 0.309490 0.195745
H11   H     H_    0.166731 0.271632 0.081162 0.159741
H12   H     H_    0.814736 0.509220 0.102507 0.199102
H13   H     H_    0.077615 0.331673 0.980284 0.167734
H14   H     H_    0.014472 0.344206 0.087541 0.187843
H15   H     H_    0.944965 0.635799 0.021006 0.196916
H16   H     H_    0.843622 0.714483 0.932851 0.137139
H17   H     H_    0.987552 0.636569 0.907822 0.194160
H18   H     H_    0.668670 0.251221 0.620308 0.299529
H19   H     H_    0.653887 0.116438 0.693227 0.223984
H20   H     H_    0.770149 0.115570 0.610863 0.202702
H21   H     H_    0.334088 0.750993 0.381474 0.284857
H22   H     H_    0.229855 0.884472 0.390229 0.211820
H23   H     H_    0.112385 0.283201 0.501246 0.162151
H24   H     H_    0.345666 0.884651 0.307219 0.218902
H25   H     H_    0.331681 0.250518 0.379638 0.300693
H26   H     H_    0.346009 0.115218 0.306764 0.220309
H27   H     H_    0.229882 0.115097 0.389234 0.203295
H28   H     H_    0.665480 0.751955 0.618433 0.284350
H29   H     H_    0.770168 0.884953 0.609547 0.212887
H30   H     H_    0.654589 0.885839 0.692787 0.219250
H31   H     H_    0.887421 0.716585 0.496837 0.162886
H32   H     H_    0.887667 0.283202 0.500556 0.162801
H33   H     H_    0.112121 0.716588 0.497705 0.161860
H34   H     H_    0.753793 0.665035 0.772731 0.131735
H35   H     H_    0.759814 0.567605 0.670543 0.135094
H36   H     H_    0.885266 0.559609 0.754261 0.207871
N1    N     N_R   0.500000 0.857200 0.500000 -0.116969
N2    N     N_R   0.500000 0.142800 0.500000 -0.126713
O1    O     O_R   0.316770 0.614620 0.499990 -0.634356
O2    O     O_3   0.273575 0.458426 0.222022 -0.591714
O3    O     O_3   0.278208 0.510587 0.752361 -0.608661
O4    O     O_3   0.722010 0.512012 0.248292 -0.607373
O5    O     O_3   0.153854 0.479035 0.067024 -0.603353
O6    O     O_3   0.847025 0.504728 0.932432 -0.573245
O7    O     O_R   0.683230 0.385380 0.500010 -0.644894
O8    O     O_R   0.683230 0.614620 0.500010 -0.636056
O9    O     O_R   0.316770 0.385380 0.499990 -0.644537
O10   O     O_R   0.499980 0.614680 0.367850 -0.621217
O11   O     O_R   0.500020 0.385320 0.632150 -0.632549
O12   O     O_R   0.500020 0.614680 0.632150 -0.622185
O13   O     O_R   0.499980 0.385320 0.367850 -0.634504
O14   O     O_3   0.727126 0.454872 0.780581 -0.572740
Zn1   Zn    Zn3+2 0.500000 0.653120 0.500000 0.947543
Zn2   Zn    Zn3+2 0.500000 0.346880 0.500000 0.928286

loop_
_geom_bond_atom_site_label_1
_geom_bond_atom_site_label_2
_ccdc_geom_bond_type
C1    O9    A    
C30   H17   S    
C24   H12   S    
C3    C6    A    
C33   H25   S    
C37   H31   S    
C26   H2    S    
C23   O5    S    
C12   O7    A    
C31   H18   S    
C19   C21   A    
C32   H21   S    
O1    Zn1   S    
C37   C40   A    
C11   C14   A    
C22   H1    S    
C29   H14   S    
C27   H7    S    
O9    Zn2   S    
C6    C35   S    
C25   H34   S    
C28   H9    S    
C31   H19   S    
O11   Zn2   S    
C28   H10   S    
C2    C39   A    
C35   H30   S    
C5    C33   S    
C33   H26   S    
C36   H23   S    
C20   C34   A    
C27   H5    S    
C26   H4    S    
C34   O6    S    
C9    O14   S    
C26   H3    S    
C15   O4    S    
C10   C21   A    
C38   H32   S    
C17   C24   A    
C28   O4    S    
C27   O3    S    
C32   H24   S    
C10   O2    S    
C18   C19   A    
C6    N1    A    
C30   H16   S    
C26   O2    S    
C25   H35   S    
C31   H20   S    
C12   C40   S    
O8    Zn1   S    
O7    Zn2   S    
C9    C20   A    
C7    O10   A    
C7    O13   A    
C3    C31   S    
C9    C11   A    
C4    C32   S    
C27   H6    S    
C13   C15   A    
C1    O1    A    
C14   C16   A    
C8    O12   A    
C33   H27   S    
O12   Zn1   S    
C29   H11   S    
C2    C36   A    
C15   C17   A    
O10   Zn1   S    
C28   H8    S    
C25   O14   S    
C16   C22   A    
C4    C5    A    
C10   C13   A    
C29   O5    S    
C30   H15   S    
C12   O8    A    
C25   H36   S    
C21   C23   A    
C32   H22   S    
C4    N1    A    
C37   C39   A    
O13   Zn2   S    
C38   C40   A    
N1    Zn1   S    
C29   H13   S    
C35   H28   S    
N2    Zn2   S    
C8    C11   S    
C1    C2    S    
C36   C38   A    
C17   C19   A    
C18   C20   A    
C39   H33   S    
C30   O6    S    
C24   C34   A    
C7    C13   S    
C35   H29   S    
C16   C18   A    
C22   C23   A    
C8    O11   A    
C14   O3    S    
C5    N2    A    
C3    N2    A    
