data_mof_unit_21104.cif
_audit_creation_date              2012-12-10T17:34:25-0500
_audit_creation_method            fapswitch 2.2
_symmetry_space_group_name_H-M    P1
_symmetry_Int_Tables_number       1
_space_group_crystal_system       triclinic
_cell_length_a                    12.345296
_cell_length_b                    13.105244
_cell_length_c                    14.337065
_cell_angle_alpha                 78.830819
_cell_angle_beta                  101.036307
_cell_angle_gamma                 116.257724
_cell_volume                      2026.02707934

loop_
_atom_site_label
_atom_site_type_symbol
_atom_type_description
_atom_site_fract_x
_atom_site_fract_y
_atom_site_fract_z
_atom_type_partial_charge
C1    C     C_R   0.854797 0.286390 0.507461 0.774920
C2    C     C_1   0.999932 0.500294 0.228817 -0.207682
C3    C     C_R   0.273659 0.022181 0.379495 -0.188758
C4    C     C_R   0.227677 0.834782 0.469217 -0.048539
C5    C     C_R   0.815513 0.085096 0.568266 -0.183036
C6    C     C_R   0.736861 0.970711 0.587708 -0.155690
C7    C     C_R   0.613277 0.933243 0.556153 -0.171019
C8    C     C_R   0.565764 0.009560 0.500567 0.082508
C9    C     C_R   0.648644 0.123493 0.471965 0.082146
C10   C     C_R   0.438978 0.976297 0.471455 0.075756
C11   C     C_R   0.398301 0.053667 0.408524 0.166736
C12   C     C_R   0.000052 0.499740 0.668786 0.810216
C13   C     C_R   0.482464 0.160344 0.372947 -0.239543
C14   C     C_R   0.605700 0.193827 0.402500 -0.195331
C15   C     C_R   0.350944 0.868420 0.503148 -0.238559
C16   C     C_R   0.188673 0.912875 0.409210 -0.192305
C17   C     C_R   0.772556 0.163241 0.512766 -0.112823
C18   C     C_R   0.340284 0.319837 0.640078 -0.388728
C19   C     C_R   0.761567 0.644852 0.375529 -0.009681
C20   C     C_R   0.661797 0.668742 0.338676 -0.322771
C21   C     C_R   0.552351 0.607234 0.378000 0.463552
C22   C     C_R   0.547101 0.528533 0.463010 -0.113531
C23   C     C_R   0.144982 0.713522 0.487307 0.793172
C24   C     C_R   0.650830 0.503323 0.494940 0.226968
C25   C     C_R   0.443668 0.471035 0.515838 -0.025836
C26   C     C_R   0.441190 0.381264 0.590019 0.109060
C27   C     C_R   0.540664 0.354666 0.616047 -0.247460
C28   C     C_R   0.644682 0.417105 0.571837 -0.142481
C29   C     C_R   0.343512 0.499996 0.500969 -0.081028
C30   C     C_R   0.243011 0.350803 0.620728 0.667875
C31   C     C_R   0.999995 0.500239 0.331216 0.801134
C32   C     C_1   0.000380 0.499605 0.771241 -0.220756
C33   C     C_1   0.000567 0.499607 0.856728 -0.016447
C34   C     C_1   0.000604 0.499774 0.957408 0.000861
C35   C     C_1   0.000448 0.499983 0.042803 -0.008467
C36   C     C_1   0.000174 0.500198 0.143420 -0.018987
Cu1   Cu    Cu3+1 0.098280 0.475420 0.520190 0.961161
Cu2   Cu    Cu3+1 0.901720 0.524580 0.479810 0.920410
H1    H     H_    0.093482 0.887974 0.382141 0.147881
H2    H     H_    0.539861 0.287313 0.673788 0.149416
H3    H     H_    0.337370 0.248681 0.694227 0.154405
H4    H     H_    0.341357 0.572848 0.452678 0.210644
H5    H     H_    0.844110 0.689957 0.341629 0.150980
H6    H     H_    0.667617 0.731588 0.276178 0.162611
H7    H     H_    0.718384 0.394376 0.600446 0.199522
H8    H     H_    0.452987 0.218160 0.321465 0.140225
H9    H     H_    0.242291 0.080993 0.331440 0.131669
H10   H     H_    0.375628 0.807545 0.553487 0.144701
H11   H     H_    0.909841 0.112901 0.598958 0.192583
H12   H     H_    0.558189 0.843450 0.574984 0.130023
H13   H     H_    0.771345 0.911120 0.630174 0.145532
H14   H     H_    0.666504 0.274485 0.367800 0.174793
N1    N     N_R   0.246290 0.438200 0.550780 -0.223957
N2    N     N_R   0.754310 0.561180 0.449760 -0.194510
O1    O     O_R   0.972510 0.318130 0.525390 -0.523958
O2    O     O_R   0.806530 0.359650 0.491290 -0.602692
O3    O     O_R   0.083010 0.479240 0.641000 -0.539691
O4    O     O_R   0.917030 0.520750 0.606900 -0.573495
O5    O     O_R   0.193470 0.640350 0.508710 -0.585888
O6    O     O_R   0.027490 0.681870 0.474610 -0.581446
O7    O     O_R   0.082970 0.479250 0.393100 -0.566461
O8    O     O_R   0.916990 0.520760 0.359000 -0.568474
O9    O     O_3   0.452350 0.624132 0.329407 -0.631383
C37   C     C_3   0.376912 0.531674 0.275945 0.046895
H15   H     H_    0.281443 0.519372 0.273567 0.179678
H16   H     H_    0.379579 0.448214 0.309099 0.128441
C38   C     C_3   0.408863 0.560130 0.173168 -0.345433
H17   H     H_    0.403997 0.642383 0.140535 0.232241
H18   H     H_    0.503060 0.569925 0.173676 0.211997
C39   C     C_3   0.321744 0.465810 0.112258 -0.917782
H19   H     H_    0.327165 0.383254 0.142522 0.250698
H20   H     H_    0.346736 0.489070 0.038176 0.255212
H21   H     H_    0.226830 0.455140 0.109439 0.263658
O10   O     O_3   0.138884 0.288297 0.665663 -0.567567
C40   C     C_3   0.164759 0.284023 0.766661 0.049577
H22   H     H_    0.112486 0.321960 0.791617 0.177453
H23   H     H_    0.262190 0.333213 0.793854 0.114822
C41   C     C_3   0.122026 0.159624 0.811902 -0.836557
H24   H     H_    0.172515 0.118535 0.788892 0.242248
H25   H     H_    0.138222 0.155751 0.891150 0.212872
H26   H     H_    0.023186 0.111664 0.789920 0.251502

loop_
_geom_bond_atom_site_label_1
_geom_bond_atom_site_label_2
_ccdc_geom_bond_type
C29   H4    S    
C31   O7    A    
C19   C20   A    
C18   C26   A    
C9    C14   A    
C7    C8    A    
C23   O5    A    
C26   C27   A    
C1    O2    A    
C10   C15   A    
C5    C6    A    
C30   O10   S    
C41   H25   S    
C5    C17   A    
C24   N2    A    
C34   C35   T    
Cu2   O4    S    
C14   H14   S    
C35   C36   S    
C8    C9    A    
C22   C25   A    
C39   H19   S    
C18   C30   A    
C6    H13   S    
C12   O4    A    
C21   C22   A    
C12   C32   S    
C31   O8    A    
C5    H11   S    
C15   H10   S    
C20   H6    S    
C19   H5    S    
C25   C29   A    
C23   O6    A    
C30   N1    A    
C28   H7    S    
O10   C40   S    
C38   H17   S    
C37   C38   S    
C18   H3    S    
C4    C23   S    
C41   H24   S    
C25   C26   A    
C2    C31   S    
C38   H18   S    
C37   H16   S    
C4    C16   A    
C40   H22   S    
Cu1   Cu2   S    
Cu2   N2    S    
C27   H2    S    
C39   H21   S    
C33   C34   S    
C40   H23   S    
Cu1   O5    S    
Cu2   O6    S    
C12   O3    A    
C19   N2    A    
C9    C17   A    
C22   C24   A    
C2    C36   T    
C24   C28   A    
C7    H12   S    
Cu1   O7    S    
C6    C7    A    
C1    C17   S    
C38   C39   S    
C32   C33   T    
C4    C15   A    
C1    O1    A    
Cu1   N1    S    
C37   H15   S    
C11   C13   A    
C41   H26   S    
C13   H8    S    
C29   N1    A    
C3    H9    S    
C40   C41   S    
C21   O9    S    
C3    C11   A    
C10   C11   A    
C16   H1    S    
O9    C37   S    
Cu1   O1    S    
Cu2   O2    S    
C20   C21   A    
C8    C10   A    
C27   C28   A    
C39   H20   S    
C13   C14   A    
Cu1   O3    S    
C3    C16   A    
Cu2   O8    S    
