data_mof_unit_45010.cif
_audit_creation_date              2013-03-05T16:25:01-0500
_audit_creation_method            fapswitch 2.2
_symmetry_space_group_name_H-M    P1
_symmetry_Int_Tables_number       1
_space_group_crystal_system       triclinic
_cell_length_a                    15.107182
_cell_length_b                    13.829932
_cell_length_c                    9.078828
_cell_angle_alpha                 90.000603
_cell_angle_beta                  89.996732
_cell_angle_gamma                 90.000012
_cell_volume                      1896.85133125

loop_
_atom_site_label
_atom_site_type_symbol
_atom_site_description
_atom_site_fract_x
_atom_site_fract_y
_atom_site_fract_z
_atom_type_partial_charge
O1    O     O_R   0.371460 0.581430 0.500010 -0.576483
O2    O     O_R   0.628540 0.418570 0.499990 -0.576510
O3    O     O_R   0.628540 0.581430 0.499990 -0.576479
O4    O     O_R   0.371460 0.418570 0.500010 -0.576520
C1    C     C_R   0.329939 0.500000 0.500012 0.934328
C2    C     C_R   0.670061 0.500000 0.499988 0.934324
O5    O     O_R   0.500000 0.581420 0.288390 -0.570527
O6    O     O_R   0.500000 0.418580 0.711610 -0.570506
O7    O     O_R   0.500000 0.581420 0.711610 -0.570528
O8    O     O_R   0.500000 0.418580 0.288390 -0.570504
C3    C     C_R   0.434600 0.106662 0.577897 0.375576
C4    C     C_R   0.434621 0.893340 0.422048 0.375623
C5    C     C_R   0.565384 0.106653 0.422102 0.375607
C6    C     C_R   0.565360 0.893348 0.577948 0.375634
C7    C     C_R   0.500002 0.500000 0.220453 0.938978
C8    C     C_R   0.499998 0.500000 0.779547 0.938970
Cu1   Cu    Cu3+1 0.500000 0.596430 0.500000 1.032241
Cu2   Cu    Cu3+1 0.500000 0.403570 0.500000 1.032258
H1    H     H_    0.391414 0.250417 0.644512 0.179314
H2    H     H_    0.391466 0.749565 0.355422 0.179232
H3    H     H_    0.608584 0.250406 0.355488 0.179302
H4    H     H_    0.608534 0.749583 0.644581 0.179252
N1    N     N_R   0.500000 0.258690 0.500000 -0.224072
N2    N     N_R   0.500000 0.741310 0.500000 -0.224004
C9    C     C_R   0.499988 0.054665 0.499998 0.056818
C10   C     C_R   0.499987 0.945332 0.500000 0.056908
C11   C     C_1   0.500001 0.499999 0.065486 -0.050210
C12   C     C_1   0.499999 0.500000 0.934514 -0.050208
C13   C     C_R   0.094120 0.546115 0.386687 -0.189123
C14   C     C_R   0.905887 0.453872 0.386686 -0.189132
C15   C     C_R   0.905879 0.546116 0.613310 -0.189127
C16   C     C_R   0.094113 0.453874 0.613319 -0.189127
H5    H     H_    0.057544 0.580924 0.298735 0.193886
H6    H     H_    0.942469 0.419060 0.298739 0.193882
H7    H     H_    0.942454 0.580926 0.701260 0.193878
H8    H     H_    0.057532 0.419063 0.701270 0.193879
C17   C     C_R   0.186558 0.546454 0.384661 0.287913
C18   C     C_R   0.813450 0.453541 0.384654 0.287870
C19   C     C_R   0.813442 0.546452 0.615335 0.287926
C20   C     C_R   0.186550 0.453543 0.615351 0.287848
C21   C     C_R   0.233301 0.500000 0.500008 -0.267957
C22   C     C_R   0.766699 0.499999 0.499992 -0.267956
C23   C     C_R   0.048275 0.499993 0.500001 -0.001629
C24   C     C_R   0.951725 0.499993 0.500000 -0.001641
C25   C     C_R   0.438053 0.209442 0.579334 -0.051138
C26   C     C_R   0.438078 0.790554 0.420621 -0.051310
C27   C     C_R   0.561942 0.209435 0.420666 -0.051151
C28   C     C_R   0.561917 0.790563 0.579377 -0.051246
N3    N     N_R   0.231436 0.591567 0.262931 0.124324
O9    O     O_R   0.196777 0.666714 0.198812 -0.367274
O10   O     O_R   0.299041 0.549576 0.201541 -0.367810
N4    N     N_R   0.768579 0.408430 0.262927 0.124323
O11   O     O_R   0.701008 0.450454 0.201489 -0.367750
O12   O     O_R   0.803227 0.333265 0.198841 -0.367161
N5    N     N_R   0.768563 0.591562 0.737062 0.124335
O13   O     O_R   0.803198 0.666739 0.801134 -0.367276
O14   O     O_R   0.700973 0.549558 0.798473 -0.367798
N6    N     N_R   0.231421 0.408434 0.737083 0.124318
O15   O     O_R   0.298992 0.450462 0.798521 -0.367746
O16   O     O_R   0.196774 0.333263 0.801173 -0.367149
O17   O     O_3   0.373460 0.054922 0.660935 -0.561697
C29   C     C_3   0.287103 0.092039 0.642709 -0.239220
H9    H     H_    0.272694 0.112282 0.526289 0.157763
H10   H     H_    0.275994 0.154362 0.717482 0.205290
H11   H     H_    0.239081 0.034963 0.674198 0.190103
O18   O     O_3   0.373512 0.945114 0.338986 -0.561906
C30   C     C_3   0.287199 0.907749 0.356484 -0.239336
H12   H     H_    0.272597 0.887144 0.472676 0.157612
H13   H     H_    0.276381 0.845626 0.281239 0.205545
H14   H     H_    0.239125 0.964796 0.325101 0.190051
O19   O     O_3   0.626515 0.054899 0.339066 -0.561722
C31   C     C_3   0.712878 0.092031 0.357209 -0.239299
H15   H     H_    0.727314 0.112303 0.473611 0.157745
H16   H     H_    0.723965 0.154335 0.282384 0.205320
H17   H     H_    0.760897 0.034952 0.325725 0.190080
O20   O     O_3   0.626460 0.945126 0.661017 -0.561844
C32   C     C_3   0.712808 0.907830 0.643391 -0.239345
H18   H     H_    0.727391 0.887308 0.527141 0.157636
H19   H     H_    0.723702 0.845667 0.718562 0.205506
H20   H     H_    0.760856 0.964892 0.674804 0.190022

loop_
_geom_bond_atom_site_label_1
_geom_bond_atom_site_label_2
_geom_bond_distance
_ccdc_geom_bond_type
C8    C12   1.406921 S    
H4    C28   1.080586 S    
N5    O13   1.301200 A    
N1    C25   1.363227 A    
O2    Cu2   1.952925 S    
C31   H16   1.109950 S    
O3    C2    1.289083 A    
C5    C9    1.411755 A    
C32   H18   1.114878 S    
O1    C1    1.289078 A    
C16   H8    1.083847 S    
O7    C8    1.283895 A    
C18   C22   1.417055 A    
O8    C7    1.283893 A    
C18   N4    1.438799 S    
C3    C9    1.411748 A    
N6    O16   1.301262 A    
C13   H5    1.083847 S    
C14   C18   1.396595 A    
C29   H10   1.109904 S    
C19   N5    1.438791 S    
N3    O10   1.300363 A    
O4    Cu2   1.952928 S    
O5    C7    1.283891 A    
O18   C30   1.411560 S    
O6    C8    1.283890 A    
C13   C23   1.394573 A    
C14   C24   1.394550 A    
O2    C2    1.289079 A    
C31   H17   1.109531 S    
N4    O12   1.301181 A    
C19   C22   1.417064 A    
C32   H19   1.109940 S    
Cu1   N2    2.003679 S    
C20   N6    1.438836 S    
C15   C24   1.394543 A    
C14   H6    1.083823 S    
C30   H12   1.114731 S    
N2    C28   1.363209 A    
N1    C27   1.363222 A    
O20   C32   1.411848 S    
C4    C26   1.422542 A    
C5    C27   1.422479 A    
O4    C1    1.289082 A    
C6    C28   1.422522 A    
C5    O19   1.390473 S    
O5    Cu1   1.932352 S    
N6    O15   1.300415 A    
C4    O18   1.390589 S    
O6    Cu2   1.932350 S    
Cu2   N1    2.003679 S    
C4    C10   1.411776 A    
C30   H13   1.109742 S    
C6    O20   1.390549 S    
C23   C24   1.458604 S    
C29   H9    1.114879 S    
C17   N3    1.438835 S    
C7    C11   1.406921 S    
Cu1   Cu2   2.667242 S    
C6    C10   1.411772 A    
O7    Cu1   1.932355 S    
C20   C21   1.417091 A    
N5    O14   1.300344 A    
C15   H7    1.083824 S    
C3    C25   1.422463 A    
N4    O11   1.300390 A    
C32   H20   1.109502 S    
C1    C21   1.459922 S    
C29   H11   1.109556 S    
C31   H15   1.114895 S    
C3    O17   1.390481 S    
H1    C25   1.080588 S    
O1    Cu1   1.952928 S    
C30   H14   1.109562 S    
N2    C26   1.363217 A    
C9    C10   1.512071 S    
O19   C31   1.411773 S    
O8    Cu2   1.932356 S    
C16   C23   1.394581 A    
C15   C19   1.396590 A    
O3    Cu1   1.952925 S    
C16   C20   1.396594 A    
C17   C21   1.417102 A    
O17   C29   1.411715 S    
N3    O9    1.301215 A    
C2    C22   1.459925 S    
C13   C17   1.396597 A    
C11   C12   1.189070 T    
H2    C26   1.080579 S    
H3    C27   1.080589 S    
