data_mof_unit_44382.cif
_audit_creation_date              2012-12-10T20:31:40-0500
_audit_creation_method            fapswitch 2.2
_symmetry_space_group_name_H-M    P1
_symmetry_Int_Tables_number       1
_space_group_crystal_system       triclinic
_cell_length_a                    21.651798
_cell_length_b                    21.954175
_cell_length_c                    21.273933
_cell_angle_alpha                 91.417624
_cell_angle_beta                  119.39014
_cell_angle_gamma                 120.268541
_cell_volume                      7094.91132422

loop_
_atom_site_label
_atom_site_type_symbol
_atom_type_description
_atom_site_fract_x
_atom_site_fract_y
_atom_site_fract_z
_atom_type_partial_charge
C1    C     C_R   0.501278 0.413261 0.414269 0.966598
C2    C     C_R   0.738039 0.757219 0.762925 0.245153
C3    C     C_R   0.209377 0.783680 0.149059 0.437177
C4    C     C_R   0.260998 0.766923 0.140682 -0.037895
C5    C     C_R   0.339141 0.783406 0.207697 -0.109160
C6    C     C_R   0.370250 0.823498 0.281958 -0.162594
C7    C     C_R   0.317459 0.838421 0.289939 -0.187611
C8    C     C_R   0.312978 0.820119 0.061552 0.421079
C9    C     C_R   0.311208 0.812893 0.995479 -0.061162
C10   C     C_R   0.242487 0.747458 0.928185 -0.131251
C11   C     C_R   0.178882 0.684407 0.930779 0.409416
C12   C     C_R   0.186474 0.688203 0.000619 -0.156913
C13   C     C_R   0.823573 0.571189 0.818182 0.467996
C14   C     C_R   0.251453 0.757162 0.065763 -0.195291
C15   C     C_R   0.183081 0.761616 0.798370 -0.138631
C16   C     C_R   0.167785 0.749273 0.724932 -0.152088
C17   C     C_R   0.197680 0.713101 0.705545 0.456607
C18   C     C_R   0.250188 0.695238 0.761473 -0.218740
C19   C     C_R   0.271003 0.712477 0.836800 -0.180321
C20   C     C_R   0.236358 0.744563 0.854907 -0.054471
C21   C     C_R   0.824118 0.507745 0.809748 -0.178814
C22   C     C_R   0.769134 0.451122 0.735872 -0.136919
C23   C     C_R   0.697162 0.446971 0.676063 0.463454
C24   C     C_R   0.690614 0.505828 0.687443 -0.142960
C25   C     C_R   0.756874 0.571112 0.755555 -0.138381
C26   C     C_R   0.853962 0.441534 0.694479 0.386575
C27   C     C_R   0.877229 0.400744 0.670141 -0.179857
C28   C     C_R   0.837991 0.324249 0.663209 0.302574
C29   C     C_R   0.620877 0.503274 0.622435 0.997679
C30   C     C_R   0.779071 0.289713 0.684466 -0.257590
C31   C     C_R   0.758665 0.331103 0.711577 0.267768
C32   C     C_R   0.795702 0.407118 0.715835 0.002253
C33   C     C_R   0.421165 0.103731 0.132295 -0.119190
C34   C     C_R   0.499812 0.129422 0.140470 -0.179572
C35   C     C_R   0.580636 0.195227 0.201118 0.439180
C36   C     C_R   0.585611 0.234613 0.258942 -0.076714
C37   C     C_R   0.506204 0.212362 0.248025 0.038619
C38   C     C_R   0.424771 0.143254 0.189104 -0.069033
C39   C     C_R   0.667090 0.294450 0.328046 -0.162533
C40   C     C_R   0.499653 0.585977 0.586864 0.842768
C41   C     C_R   0.667990 0.341398 0.375651 0.417955
C42   C     C_R   0.588454 0.330027 0.352895 0.044519
C43   C     C_R   0.507738 0.260611 0.294539 -0.037300
C44   C     C_R   0.428070 0.239662 0.281689 -0.124894
C45   C     C_R   0.352756 0.163623 0.237624 0.366928
C46   C     C_R   0.350719 0.115420 0.191047 -0.065234
C47   C     C_R   0.587037 0.382827 0.390873 -0.125637
C48   C     C_R   0.505725 0.363813 0.372012 -0.223739
C49   C     C_R   0.426559 0.294165 0.315759 0.389575
C50   C     C_R   0.530370 0.585494 0.272794 0.242068
C51   C     C_R   0.379863 0.499177 0.379721 0.878698
C52   C     C_R   0.462855 0.579356 0.273854 0.450774
C53   C     C_R   0.385951 0.507617 0.248499 -0.195199
C54   C     C_R   0.374409 0.441050 0.219456 0.273396
C55   C     C_R   0.442053 0.447000 0.218397 -0.137711
C56   C     C_R   0.521651 0.519111 0.248506 0.244247
C57   C     C_R   0.252124 0.506089 0.186934 0.452594
C58   C     C_R   0.186632 0.502220 0.189713 -0.064162
C59   C     C_R   0.188145 0.502725 0.257277 -0.048475
C60   C     C_R   0.252817 0.501836 0.320380 -0.096070
C61   C     C_R   0.313770 0.499832 0.314838 -0.169047
C62   C     C_R   0.773854 0.747991 0.725959 0.330989
C63   C     C_R   0.315945 0.504069 0.249918 -0.005908
C64   C     C_R   0.141901 0.574325 0.292851 -0.108820
C65   C     C_R   0.092545 0.578315 0.315944 -0.120584
C66   C     C_R   0.032051 0.513961 0.320198 0.413070
C67   C     C_R   0.015443 0.443486 0.295401 -0.106901
C68   C     C_R   0.059836 0.437781 0.266520 -0.126818
C69   C     C_R   0.123130 0.503558 0.264823 -0.016883
C70   C     C_R   0.523934 0.821549 0.886966 0.462841
C71   C     C_R   0.497715 0.867416 0.859636 -0.275979
C72   C     C_R   0.466805 0.865421 0.782676 -0.198456
C73   C     C_R   0.783291 0.689081 0.726041 -0.126844
C74   C     C_R   0.474252 0.824351 0.737780 0.031021
C75   C     C_R   0.488297 0.770345 0.762632 0.062756
C76   C     C_R   0.504051 0.764274 0.834108 -0.079024
C77   C     C_R   0.470484 0.836110 0.670682 -0.118202
C78   C     C_R   0.486832 0.798163 0.633741 -0.063650
C79   C     C_R   0.489142 0.737551 0.653076 0.074972
C80   C     C_R   0.486093 0.721815 0.716234 0.025128
C81   C     C_R   0.480182 0.657458 0.733132 -0.031549
C82   C     C_R   0.476035 0.643329 0.796255 0.358084
C83   C     C_R   0.495996 0.700057 0.850337 0.295389
C84   C     C_R   0.755263 0.638278 0.761989 -0.231854
C85   C     C_R   0.491215 0.690627 0.609269 0.415414
C86   C     C_R   0.492174 0.630723 0.629836 -0.279415
C87   C     C_R   0.479559 0.609936 0.686951 -0.146466
C88   C     C_R   0.879160 0.379624 0.999390 0.870518
C89   C     C_R   0.883109 0.502371 0.878673 0.929604
C90   C     C_R   0.122117 0.620619 0.002062 0.994880
C91   C     C_R   0.118463 0.499117 0.121173 0.974380
C92   C     C_R   0.379277 0.877722 0.996611 1.025528
C93   C     C_R   0.500371 0.086007 0.088086 0.970643
C94   C     C_R   0.620513 0.119358 0.000294 0.886128
C95   C     C_R   0.730520 0.653876 0.807540 0.413764
C96   C     C_R   0.500186 0.914649 0.911625 0.913323
C97   C     C_R   0.722413 0.465313 0.035441 0.402166
C98   C     C_R   0.754738 0.421815 0.048574 -0.055136
C99   C     C_R   0.731568 0.370599 0.985727 -0.072929
C100  C     C_R   0.674993 0.363260 0.909062 0.377843
C101  C     C_R   0.637505 0.402790 0.895820 -0.240433
C102  C     C_R   0.659343 0.452685 0.958908 -0.226937
C103  C     C_R   0.687111 0.249370 0.004732 0.446115
C104  C     C_R   0.688817 0.186311 0.004040 -0.094533
C105  C     C_R   0.752632 0.185506 0.002456 0.000981
C106  C     C_R   0.723401 0.714453 0.809096 -0.141995
C107  C     C_R   0.815307 0.248956 0.000029 -0.075782
C108  C     C_R   0.812826 0.312440 0.999202 -0.212864
C109  C     C_R   0.746394 0.311087 0.998473 0.011416
C110  C     C_R   0.783516 0.094243 0.056343 -0.134390
C111  C     C_R   0.774567 0.025728 0.043374 0.327564
C112  C     C_R   0.744454 0.985411 0.970080 0.482656
C113  C     C_R   0.714961 0.009172 0.907477 -0.250767
C114  C     C_R   0.711425 0.071015 0.917262 -0.227217
C115  C     C_R   0.746404 0.114216 0.991907 -0.077402
C116  C     C_R   0.235642 0.816039 0.223438 -0.122157
O1    O     O_R   0.551770 0.485660 0.433950 -0.649089
O2    O     O_R   0.908390 0.371060 0.962700 -0.594224
O3    O     O_R   0.908320 0.537260 0.945670 -0.570179
O4    O     O_R   0.908390 0.462700 0.871100 -0.621020
O5    O     O_R   0.091570 0.628900 0.037300 -0.611414
O6    O     O_R   0.091640 0.554330 0.962730 -0.545504
O7    O     O_R   0.091560 0.537260 0.128900 -0.608645
O8    O     O_R   0.091630 0.462690 0.054330 -0.572177
O9    O     O_R   0.460070 0.908340 0.051740 -0.565718
O10   O     O_R   0.356610 0.908380 0.948360 -0.589951
O11   O     O_R   0.551760 0.066040 0.117810 -0.556711
O12   O     O_R   0.448310 0.382210 0.433960 -0.546083
O13   O     O_R   0.448290 0.066080 0.014430 -0.617901
O14   O     O_R   0.643290 0.091520 0.051640 -0.619333
O15   O     O_R   0.539830 0.091560 0.948260 -0.573611
O16   O     O_R   0.551610 0.933820 0.985570 -0.569783
O17   O     O_R   0.448150 0.933870 0.882190 -0.628804
O18   O     O_R   0.643350 0.551720 0.591610 -0.633027
O19   O     O_R   0.539890 0.448280 0.591620 -0.570015
O20   O     O_R   0.551690 0.617790 0.566040 -0.592125
O21   O     O_R   0.448230 0.514340 0.566050 -0.608874
O22   O     O_R   0.460110 0.551720 0.408380 -0.603906
O23   O     O_R   0.356650 0.448280 0.408390 -0.575554
O24   O     O_R   0.908320 0.445630 0.037270 -0.609286
Zn1   Zn    Zn3+2 0.569080 0.569070 0.500000 1.091255
Zn2   Zn    Zn3+2 0.430920 0.430930 0.500000 1.158633
Zn3   Zn    Zn3+2 0.999930 0.549770 0.049790 1.105911
Zn4   Zn    Zn3+2 0.000030 0.450190 0.950210 1.125113
Zn5   Zn    Zn3+2 0.569030 0.999920 0.069030 1.122577
Zn6   Zn    Zn3+2 0.430870 0.999980 0.930970 1.123366
O25   O     O_3   0.716854 0.807624 0.754634 -0.646094
H1    H     H_    0.699972 0.811850 0.703312 0.381568
O26   O     O_3   0.859817 0.285441 0.636536 -0.660105
H2    H     H_    0.813587 0.230374 0.615536 0.363640
C117  C     C_2   0.739564 0.210199 0.680530 1.046460
O27   O     O_2   0.787258 0.191030 0.714957 -0.523131
O28   O     O_R   0.648320 0.156505 0.637779 -0.743812
H3    H     H_    0.614707 0.177188 0.608439 0.340035
O29   O     O_3   0.702429 0.295286 0.733217 -0.725209
H4    H     H_    0.694112 0.330379 0.751693 0.364582
C118  C     C_2   0.335454 0.041762 0.059831 0.949337
O30   O     O_2   0.319437 0.979897 0.040181 -0.572796
O31   O     O_R   0.272998 0.054573 0.014528 -0.768658
H5    H     H_    0.217180 0.008264 0.966984 0.363714
O32   O     O_3   0.651565 0.223154 0.197512 -0.722688
H6    H     H_    0.682466 0.278535 0.210737 0.350864
C119  C     C_2   0.751286 0.306458 0.354396 0.959098
O33   O     O_2   0.755056 0.252731 0.353241 -0.540318
O34   O     O_R   0.826632 0.379637 0.382341 -0.749966
H7    H     H_    0.880754 0.381160 0.402483 0.360467
O35   O     O_3   0.744669 0.395321 0.446818 -0.725257
H8    H     H_    0.779667 0.375695 0.470621 0.359143
C120  C     C_2   0.668787 0.459422 0.446371 1.075101
O36   O     O_2   0.709040 0.503211 0.424000 -0.538377
O37   O     O_R   0.699650 0.481005 0.523898 -0.761970
H9    H     H_    0.755942 0.534336 0.556008 0.358347
O38   O     O_3   0.348550 0.283500 0.291630 -0.711787
H10   H     H_    0.304236 0.251150 0.236025 0.403878
O39   O     O_3   0.283565 0.132809 0.244298 -0.689743
H11   H     H_    0.306970 0.158983 0.297582 0.377244
O40   O     O_3   0.803546 0.797772 0.692111 -0.688506
H12   H     H_    0.820259 0.847256 0.717170 0.364957
C121  C     C_2   0.276246 0.033738 0.155023 1.032319
O41   O     O_2   0.200353 0.013633 0.117769 -0.513459
O42   O     O_R   0.293418 0.980009 0.165239 -0.806504
H13   H     H_    0.237529 0.926464 0.137187 0.358632
O43   O     O_3   0.589534 0.523403 0.252706 -0.649559
H14   H     H_    0.646215 0.568683 0.297762 0.379785
O44   O     O_3   0.602853 0.656716 0.293907 -0.742365
H15   H     H_    0.626987 0.653015 0.265900 0.374351
O45   O     O_3   0.468864 0.642389 0.298325 -0.683349
H16   H     H_    0.526392 0.689185 0.316075 0.397243
O46   O     O_3   0.298919 0.369545 0.192863 -0.665244
H17   H     H_    0.257517 0.372491 0.198083 0.359098
C122  C     C_2   0.429525 0.377240 0.185892 1.056200
O47   O     O_2   0.493087 0.377818 0.204723 -0.560527
O48   O     O_R   0.344862 0.310608 0.133022 -0.721441
H18   H     H_    0.345372 0.267331 0.116196 0.349183
O49   O     O_3   0.252521 0.514033 0.122525 -0.701780
H19   H     H_    0.299298 0.513564 0.125662 0.357097
C123  C     C_2   0.258316 0.506305 0.393316 0.875393
O50   O     O_2   0.238075 0.451170 0.412687 -0.535015
O51   O     O_R   0.282641 0.572591 0.437452 -0.790368
H20   H     H_    0.282738 0.568511 0.484862 0.369002
C124  C     C_2   0.223887 0.645136 0.311862 1.005742
O52   O     O_2   0.273874 0.696054 0.374700 -0.515520
O53   O     O_R   0.247226 0.651199 0.260715 -0.805973
H21   H     H_    0.312598 0.688627 0.287957 0.367105
C125  C     C_2   0.104982 0.650699 0.337268 1.074440
O54   O     O_2   0.114004 0.691184 0.299309 -0.611392
O55   O     O_R   0.106194 0.672533 0.400415 -0.654612
H22   H     H_    0.115415 0.722911 0.408966 0.378929
C126  C     C_2   0.825045 0.682637 0.689935 1.069727
O56   O     O_2   0.872286 0.661870 0.718089 -0.571491
O57   O     O_R   0.810331 0.700406 0.623597 -0.715227
H23   H     H_    0.841882 0.693470 0.604530 0.353753
O58   O     O_3   0.989568 0.522293 0.347803 -0.689551
H24   H     H_    0.958116 0.477063 0.358131 0.349730
C127  C     C_2   0.950436 0.375434 0.298417 0.948383
O59   O     O_2   0.875463 0.330691 0.240202 -0.543663
O60   O     O_R   0.975876 0.362351 0.367885 -0.747364
H25   H     H_    0.926701 0.313061 0.362363 0.376589
C128  C     C_2   0.049363 0.365614 0.247656 0.981573
O61   O     O_2   0.037122 0.324338 0.284267 -0.559209
O62   O     O_R   0.059170 0.347206 0.191488 -0.793854
H26   H     H_    0.059370 0.301111 0.189858 0.391312
O63   O     O_3   0.564296 0.830732 0.964355 -0.652753
H27   H     H_    0.610984 0.823719 0.980221 0.377518
C129  C     C_2   0.422911 0.902041 0.748359 0.980744
O64   O     O_2   0.465200 0.970950 0.771483 -0.559840
O65   O     O_R   0.332958 0.857081 0.688821 -0.716436
H28   H     H_    0.310051 0.888074 0.670065 0.366105
C130  C     C_2   0.459737 0.893454 0.642235 0.913177
O66   O     O_2   0.388913 0.873255 0.584508 -0.498773
O67   O     O_R   0.531289 0.969685 0.679542 -0.790649
H29   H     H_    0.515972 0.003045 0.654088 0.382942
C131  C     C_2   0.508773 0.827418 0.579822 1.061507
O68   O     O_2   0.452944 0.822393 0.518205 -0.539667
O69   O     O_R   0.593789 0.860655 0.600309 -0.736835
H30   H     H_    0.601261 0.878807 0.559533 0.359747
O70   O     O_3   0.487203 0.701149 0.543825 -0.712964
H31   H     H_    0.450425 0.651457 0.502875 0.361455
C132  C     C_2   0.466328 0.538535 0.697261 1.123151
O71   O     O_2   0.392913 0.483512 0.674241 -0.515434
O72   O     O_R   0.535954 0.532793 0.727820 -0.789407
H32   H     H_    0.517597 0.480342 0.728203 0.384878
O73   O     O_3   0.454185 0.575098 0.805827 -0.749058
H33   H     H_    0.419770 0.562113 0.827621 0.373358
O74   O     O_3   0.715072 0.612388 0.852681 -0.633614
H34   H     H_    0.707268 0.564800 0.837657 0.355130
O75   O     O_3   0.500670 0.690568 0.916196 -0.731591
H35   H     H_    0.524758 0.661307 0.933704 0.355171
C133  C     C_2   0.612709 0.487914 0.945681 0.984680
O76   O     O_2   0.587717 0.489994 0.985740 -0.543107
O77   O     O_R   0.596375 0.517844 0.887203 -0.732202
H36   H     H_    0.563345 0.539221 0.883773 0.403514
O78   O     O_3   0.753299 0.519265 0.099019 -0.664269
H37   H     H_    0.749262 0.559958 0.083473 0.358868
C134  C     C_2   0.808587 0.426974 0.128832 1.042127
O79   O     O_2   0.872079 0.426663 0.150680 -0.645317
O80   O     O_R   0.785354 0.430697 0.178861 -0.689080
H38   H     H_    0.823596 0.429525 0.230518 0.364400
O81   O     O_3   0.646633 0.311445 0.845240 -0.732201
H39   H     H_    0.684990 0.294758 0.860734 0.361001
C135  C     C_2   0.569165 0.385567 0.814567 1.111262
O82   O     O_2   0.496069 0.363574 0.795403 -0.522002
O83   O     O_R   0.586443 0.392526 0.758929 -0.754126
H40   H     H_    0.649863 0.414170 0.781725 0.283675
O84   O     O_3   0.626505 0.251722 0.009091 -0.726066
H41   H     H_    0.609378 0.219585 0.037566 0.345658
C136  C     C_2   0.878911 0.244807 0.993927 0.962731
O85   O     O_2   0.932219 0.239295 0.046933 -0.601307
O86   O     O_R   0.871750 0.239435 0.924703 -0.731263
H42   H     H_    0.916594 0.234165 0.926878 0.365433
C137  C     C_2   0.838092 0.146493 0.137801 0.980572
O87   O     O_2   0.825087 0.190758 0.153729 -0.554880
O88   O     O_R   0.906017 0.145525 0.196719 -0.735472
H43   H     H_    0.935355 0.180148 0.249895 0.389087
O89   O     O_3   0.794701 0.996630 0.101284 -0.716074
H44   H     H_    0.781589 0.010650 0.135421 0.359255
C138  C     C_2   0.699627 0.732793 0.858527 1.028425
O90   O     O_2   0.704930 0.790824 0.867928 -0.497791
O91   O     O_R   0.672516 0.684787 0.895715 -0.720355
H45   H     H_    0.660674 0.704771 0.928766 0.330275
O92   O     O_3   0.741436 0.921531 0.957494 -0.662370
H46   H     H_    0.768414 0.913508 0.006631 0.386691
C139  C     C_2   0.686738 0.969841 0.830536 0.837978
O93   O     O_2   0.675717 0.909762 0.812173 -0.371664
O94   O     O_R   0.730605 0.941790 0.823466 -0.491959
H47   H     H_    0.797274 0.986624 0.843199 0.344705
C140  C     C_2   0.677297 0.094505 0.850403 0.993961
O95   O     O_2   0.627946 0.111502 0.839277 -0.551329
O96   O     O_R   0.704025 0.099563 0.801692 -0.737284
H48   H     H_    0.678092 0.118012 0.760020 0.407547
C141  C     C_2   0.345263 0.873619 0.368132 1.062605
O97   O     O_2   0.299256 0.839095 0.390001 -0.508998
O98   O     O_R   0.422148 0.947026 0.415481 -0.716682
H49   H     H_    0.433662 0.964615 0.467046 0.371494
C142  C     C_2   0.178949 0.831599 0.229646 1.058066
O99   O     O_2   0.211785 0.891406 0.275505 -0.584377
O100  O     O_R   0.087467 0.778047 0.181635 -0.699578
H50   H     H_    0.055950 0.795047 0.190851 0.364352
O101  O     O_3   0.136484 0.774995 0.086353 -0.715319
H51   H     H_    0.129289 0.760175 0.037730 0.359923
C143  C     C_2   0.390951 0.762839 0.198497 1.017811
O102  O     O_2   0.353239 0.700071 0.154376 -0.575927
O103  O     O_R   0.482080 0.815398 0.238813 -0.746204
H52   H     H_    0.509316 0.794471 0.227313 0.367688
C144  C     C_2   0.456186 0.846563 0.351559 1.024436
O104  O     O_2   0.514321 0.913236 0.392951 -0.525598
O105  O     O_R   0.471666 0.792435 0.368178 -0.773932
H53   H     H_    0.532874 0.815276 0.416202 0.367488
O106  O     O_3   0.376810 0.890054 0.121416 -0.710235
H54   H     H_    0.354647 0.896791 0.150064 0.368921
O107  O     O_3   0.107387 0.618683 0.866364 -0.694069
H55   H     H_    0.103166 0.625799 0.819187 0.382415
O108  O     O_3   0.890911 0.632710 0.887329 -0.700622
H56   H     H_    0.891942 0.677729 0.882079 0.362415
C145  C     C_2   0.135197 0.784013 0.812865 1.004405
O109  O     O_2   0.057452 0.754556 0.762725 -0.566632
O110  O     O_R   0.177980 0.837505 0.883673 -0.760084
H57   H     H_    0.137860 0.846907 0.886282 0.356492
C146  C     C_2   0.120637 0.774542 0.667645 1.034214
O111  O     O_2   0.067694 0.735018 0.598865 -0.523879
O112  O     O_R   0.137569 0.844167 0.692563 -0.787830
H58   H     H_    0.101677 0.855170 0.648442 0.367464
O113  O     O_3   0.178240 0.698962 0.632433 -0.609482
H59   H     H_    0.143716 0.643440 0.608472 0.382446
C147  C     C_2   0.288755 0.662503 0.744897 0.751148
O114  O     O_2   0.288890 0.658046 0.687168 -0.406110
O115  O     O_R   0.243678 0.608415 0.671935 -0.575315
H60   H     H_    0.189280 0.553399 0.660552 0.333466
C148  C     C_2   0.325312 0.693033 0.895717 0.959231
O116  O     O_2   0.385722 0.739067 0.961595 -0.573762
O117  O     O_R   0.307083 0.621920 0.875701 -0.778438
H61   H     H_    0.348306 0.615439 0.920625 0.383924
O118  O     O_3   0.635290 0.389389 0.604052 -0.718135
H62   H     H_    0.638974 0.346371 0.606871 0.345677
O119  O     O_3   0.884622 0.514535 0.695990 -0.671433
H63   H     H_    0.896988 0.522251 0.656725 0.363822
C149  C     C_2   0.943188 0.437728 0.652326 1.022368
O120  O     O_2   0.932395 0.402980 0.597719 -0.548998
O121  O     O_R   0.018343 0.512133 0.698605 -0.795425
H64   H     H_    0.058162 0.530988 0.680752 0.335382

loop_
_geom_bond_atom_site_label_1
_geom_bond_atom_site_label_2
_ccdc_geom_bond_type
C134  O80   S    
C118  O30   D    
C54   O46   S    
O3    Zn3   S    
C141  O97   D    
O4    Zn4   S    
C55   C56   A    
C49   O38   S    
C149  O120  D    
C39   C41   A    
O118  H62   S    
C57   O49   S    
C119  O34   S    
C5    C6    A    
C88   C108  S    
O23   Zn2   S    
C137  O87   D    
C11   O107  S    
C108  C109  A    
O15   Zn6   S    
C34   C35   A    
C40   C86   S    
C61   C63   A    
C110  C111  A    
O19   Zn2   S    
C19   C20   A    
C10   C20   S    
C50   C52   A    
C140  O96   S    
C52   O45   S    
C58   C91   S    
C26   O119  S    
O48   H18   S    
C94   C104  S    
C59   C60   A    
C21   C22   A    
C76   C83   A    
C104  C105  A    
C114  C115  A    
C15   C20   A    
C145  O110  S    
O113  H59   S    
O83   H40   S    
C77   C78   A    
C35   C36   A    
C55   C122  S    
C43   C44   A    
C37   C38   A    
O65   H28   S    
C89   O4    A    
C70   O63   S    
C13   C21   A    
C3    O101  S    
O11   Zn5   S    
C29   O19   A    
C72   C129  S    
C79   C85   A    
C111  C112  A    
C46   C121  S    
C4    C5    A    
O22   Zn1   S    
C1    C48   S    
C6    C7    A    
C77   C130  S    
C33   C38   A    
C66   O58   S    
C2    O25   S    
O39   H11   S    
O18   Zn1   S    
C33   C34   A    
C103  O84   S    
C4    C14   S    
O119  H63   S    
C51   O22   A    
O115  H60   S    
O112  H58   S    
C83   O75   S    
O29   H4    S    
C22   C23   A    
C5    C143  S    
C131  O68   D    
O21   Zn2   S    
C146  O112  S    
C116  C142  S    
C26   C32   A    
O25   H1    S    
O24   Zn3   S    
C92   O9    A    
C97   C98   A    
O108  H56   S    
C142  O100  S    
C85   C86   A    
C105  C107  A    
C133  O76   D    
C94   O14   A    
C22   C32   S    
O16   Zn5   S    
C12   C90   S    
C36   C37   A    
C141  O98   S    
C3    C116  A    
C45   O39   S    
O78   H37   S    
C65   C125  S    
C123  O51   S    
O72   H32   S    
C147  O115  S    
C88   O24   A    
C15   C145  S    
C99   C100  A    
C144  O105  S    
C74   C77   A    
C107  C108  A    
C62   C73   A    
C9    C10   A    
C117  O28   S    
C66   C67   A    
C100  O81   S    
C28   O26   S    
C91   O7    A    
C138  O90   D    
C124  O53   S    
O46   H17   S    
C9    C92   S    
C98   C134  S    
C47   C120  S    
C57   C63   A    
C125  O55   S    
C87   C132  S    
C68   C69   A    
O60   H25   S    
C2    C106  A    
C50   C56   A    
C146  O111  D    
C84   C95   A    
C7    C116  A    
O98   H49   S    
C95   C106  A    
C31   C32   A    
C27   C149  S    
C117  O27   D    
C17   C18   A    
C132  O72   S    
C1    O1    A    
C64   C69   A    
C98   C99   A    
O105  H53   S    
C90   O5    A    
C88   O2    A    
C3    C4    A    
C52   C53   A    
C97   O78   S    
C120  O37   S    
C122  O47   D    
C54   C55   A    
C105  C115  S    
C36   C39   A    
C136  O85   D    
C53   C54   A    
O49   H19   S    
C124  O52   D    
C71   C72   A    
C142  O99   D    
O9    Zn5   S    
C95   O74   S    
C70   C76   A    
C53   C63   S    
C57   C58   A    
C100  C101  A    
C129  O65   S    
O20   Zn1   S    
C82   O73   S    
C123  O50   D    
C38   C46   A    
C10   C11   A    
O38   H10   S    
C19   C148  S    
C139  O93   D    
O74   H34   S    
C134  O79   D    
C51   O23   A    
C64   C124  S    
O121  H64   S    
C101  C102  A    
C102  C133  S    
C41   C42   A    
C132  O71   D    
C1    O12   A    
O37   H9    S    
C62   O40   S    
O32   H6    S    
O77   H36   S    
C21   C89   S    
O42   H13   S    
C40   O20   A    
C26   C27   A    
C30   C31   A    
O73   H33   S    
C99   C109  S    
C18   C19   A    
O100  H50   S    
C24   C29   S    
C7    C141  S    
C89   O3    A    
C16   C17   A    
O69   H30   S    
C70   C71   A    
C97   C102  A    
C29   O18   A    
C145  O109  D    
C118  O31   S    
O86   H42   S    
O14   Zn5   S    
C93   O13   A    
C149  O121  S    
C33   C118  S    
C143  O103  S    
C6    C144  S    
C67   C68   A    
C120  O36   D    
C68   C128  S    
O63   H27   S    
C126  O56   D    
C128  O61   D    
C86   C87   A    
C71   C96   S    
C58   C59   A    
C125  O54   D    
C82   C83   A    
O55   H22   S    
C60   C61   A    
C37   C43   A    
O1    Zn1   S    
O101  H51   S    
C122  O48   S    
O94   H47   S    
O57   H23   S    
O58   H24   S    
O75   H35   S    
C40   O21   A    
C106  C138  S    
C35   O32   S    
O13   Zn6   S    
C81   C87   A    
C60   C123  S    
C72   C74   A    
C48   C49   A    
C59   C69   S    
C42   C43   A    
C39   C119  S    
O35   H8    S    
C44   C45   A    
C113  C114  A    
C73   C126  S    
C143  O102  D    
C92   O10   A    
C31   O29   S    
C56   O43   S    
C94   O15   A    
C103  C109  A    
C64   C65   A    
C18   C147  S    
O91   H45   S    
O45   H16   S    
C130  O67   S    
O117  H61   S    
O26   H2    S    
C136  O86   S    
O44   H15   S    
C135  O82   D    
C85   O70   S    
C112  O92   S    
C127  O59   D    
C147  O114  D    
C121  O41   D    
O40   H12   S    
C103  C104  A    
O17   Zn6   S    
C110  C115  A    
C44   C49   A    
O107  H55   S    
O34   H7    S    
C101  C135  S    
C139  O94   S    
C148  O116  D    
O5    Zn3   S    
C67   C127  S    
C119  O33   D    
C51   C61   S    
C34   C93   S    
O6    Zn4   S    
C75   C76   A    
C81   C82   A    
O10   Zn6   S    
O106  H54   S    
C23   O118  S    
C130  O66   D    
C144  O104  D    
O80   H38   S    
O2    Zn4   S    
C127  O60   S    
C110  C137  S    
C114  C140  S    
C15   C16   A    
O31   H5    S    
C8    C9    A    
C8    O106  S    
C25   C84   S    
C111  O89   S    
O84   H41   S    
C73   C84   A    
C96   O16   A    
O103  H52   S    
C90   O6    A    
C13   C25   A    
C112  C113  A    
C133  O77   S    
C17   O113  S    
C74   C75   A    
C24   C25   A    
C135  O83   S    
C78   C79   A    
O92   H46   S    
C93   O11   A    
O43   H14   S    
C128  O62   S    
O62   H26   S    
C47   C48   A    
C23   C24   A    
C129  O64   D    
C148  O117  S    
C131  O69   S    
C113  C139  S    
O89   H44   S    
C12   C14   A    
C91   O8    A    
C138  O91   S    
C140  O95   D    
C107  C136  S    
C13   O108  S    
O81   H39   S    
O67   H29   S    
O96   H48   S    
C75   C80   A    
C137  O88   S    
C8    C14   A    
C80   C81   A    
C11   C12   A    
C96   O17   A    
C16   C146  S    
C28   C30   A    
C30   C117  S    
C78   C131  S    
C41   O35   S    
C126  O57   S    
O51   H20   S    
C42   C47   A    
O110  H57   S    
C79   C80   A    
C45   C46   A    
C65   C66   A    
O7    Zn3   S    
C27   C28   A    
O8    Zn4   S    
O53   H21   S    
O28   H3    S    
O70   H31   S    
C50   O44   S    
O12   Zn2   S    
C2    C62   A    
C121  O42   S    
O88   H43   S    
