data_mof_unit_6130.cif
_audit_creation_date              2012-12-10T19:25:52-0500
_audit_creation_method            fapswitch 2.2
_symmetry_space_group_name_H-M    P1
_symmetry_Int_Tables_number       1
_space_group_crystal_system       triclinic
_cell_length_a                    9.783183
_cell_length_b                    10.47872
_cell_length_c                    16.671863
_cell_angle_alpha                 91.01881
_cell_angle_beta                  83.723176
_cell_angle_gamma                 90.951574
_cell_volume                      1698.4207706

loop_
_atom_site_label
_atom_site_type_symbol
_atom_type_description
_atom_site_fract_x
_atom_site_fract_y
_atom_site_fract_z
_atom_type_partial_charge
C1    C     C_R   0.500885 0.742308 0.499440 0.941437
C2    C     C_3   0.602286 0.959983 0.444024 -0.337557
C3    C     C_3   0.950343 0.607380 0.525527 0.182386
C4    C     C_3   0.049678 0.392634 0.474376 0.187440
C5    C     C_3   0.059557 0.588280 0.453735 -0.116660
C6    C     C_3   0.940499 0.411762 0.546215 -0.120890
C7    C     C_3   0.035766 0.519958 0.571923 -0.139373
C8    C     C_3   0.964291 0.480105 0.427882 -0.115328
C9    C     C_R   0.479268 0.496171 0.654030 0.896332
C10   C     C_R   0.520843 0.493860 0.346537 0.880596
C11   C     C_R   0.467923 0.468383 0.741315 -0.158743
C12   C     C_R   0.499077 0.257778 0.500700 0.935273
C13   C     C_R   0.534669 0.447909 0.262624 -0.122407
C14   C     C_R   0.590594 0.434785 0.772118 -0.328200
C15   C     C_R   0.433999 0.359644 0.241967 -0.290719
C16   C     C_R   0.592019 0.393330 0.850797 0.572176
C17   C     C_R   0.441476 0.302952 0.165168 0.561346
C18   C     C_R   0.467697 0.389721 0.901622 0.021687
C19   C     C_R   0.556610 0.329707 0.110355 0.013109
C20   C     C_R   0.345231 0.424130 0.872414 -0.262315
C21   C     C_R   0.660557 0.413161 0.131038 -0.270942
C22   C     C_R   0.342009 0.465400 0.792951 0.106999
C23   C     C_3   0.376375 0.955558 0.481601 -0.291952
C24   C     C_R   0.650406 0.475408 0.206392 0.088471
C25   C     C_2   0.461318 0.370209 0.988786 -0.151319
C26   C     C_2   0.550743 0.302377 0.024969 -0.096183
C27   C     C_3   0.892740 0.735886 0.556772 -0.374119
C28   C     C_3   0.004817 0.818401 0.590604 -0.380844
C29   C     C_3   0.952164 0.949863 0.617995 -0.888985
C30   C     C_3   0.107039 0.263580 0.444126 -0.384182
C31   C     C_3   0.998028 0.183993 0.405287 -0.389284
C32   C     C_3   0.049270 0.050810 0.381065 -0.888787
C33   C     C_3   0.762419 0.571090 0.222873 -0.399097
C34   C     C_3   0.623458 0.044809 0.518825 -0.292868
C35   C     C_3   0.709418 0.708132 0.230870 -0.333576
C36   C     C_3   0.825124 0.801547 0.247032 -0.916582
C37   C     C_3   0.207045 0.506562 0.764223 -0.395971
C38   C     C_3   0.086170 0.526442 0.830630 -0.382565
C39   C     C_3   0.961677 0.583413 0.797505 -0.831491
C40   C     C_3   0.207623 0.260267 0.166087 -0.371144
C41   C     C_3   0.781460 0.266548 0.840820 -0.413382
C42   C     C_3   0.443252 0.994510 0.296662 -0.354197
C43   C     C_3   0.556432 0.006718 0.703865 -0.359344
C44   C     C_3   0.477588 0.039503 0.428243 0.632840
C45   C     C_3   0.522219 0.960897 0.572240 0.634233
C46   C     C_3   0.498254 0.122928 0.501514 -0.122506
C47   C     C_3   0.501581 0.877332 0.498914 -0.128140
C48   C     C_3   0.397493 0.040408 0.556398 -0.332088
H1    H     H_    0.688196 0.441310 0.735041 0.178647
H2    H     H_    0.720538 0.087368 0.536025 0.152067
H3    H     H_    0.315781 0.077937 0.601729 0.152533
H4    H     H_    0.684115 0.922547 0.398859 0.164862
H5    H     H_    0.113879 0.663010 0.415432 0.119274
H6    H     H_    0.886156 0.337257 0.584711 0.112694
H7    H     H_    0.924079 0.003353 0.565645 0.260369
H8    H     H_    0.861364 0.940828 0.663798 0.280605
H9    H     H_    0.034324 0.004469 0.645126 0.243642
H10   H     H_    0.042058 0.770858 0.642829 0.222439
H11   H     H_    0.093287 0.830208 0.543690 0.226115
H12   H     H_    0.350210 0.332965 0.286389 0.179744
H13   H     H_    0.853521 0.786304 0.506087 0.218223
H14   H     H_    0.806980 0.718956 0.605008 0.242729
H15   H     H_    0.144562 0.056896 0.338510 0.283263
H16   H     H_    0.069757 0.997620 0.435214 0.261039
H17   H     H_    0.969397 0.997731 0.351059 0.251641
H18   H     H_    0.903515 0.175095 0.448252 0.233622
H19   H     H_    0.970983 0.232172 0.350446 0.218601
H20   H     H_    0.197117 0.279630 0.398891 0.230286
H21   H     H_    0.140165 0.211556 0.496021 0.218262
H22   H     H_    0.864680 0.779343 0.305134 0.258311
H23   H     H_    0.070700 0.541785 0.631189 0.129599
H24   H     H_    0.910694 0.795958 0.197548 0.266886
H25   H     H_    0.786208 0.900565 0.250527 0.247641
H26   H     H_    0.667748 0.734814 0.174154 0.223612
H27   H     H_    0.625807 0.716225 0.281304 0.202844
H28   H     H_    0.808675 0.544924 0.277588 0.214902
H29   H     H_    0.847923 0.568077 0.173078 0.187351
H30   H     H_    0.988619 0.678069 0.771007 0.244472
H31   H     H_    0.923740 0.518681 0.751191 0.251791
H32   H     H_    0.877678 0.596316 0.847272 0.282801
H33   H     H_    0.053586 0.433327 0.857996 0.234485
H34   H     H_    0.930974 0.460162 0.367616 0.105312
H35   H     H_    0.118548 0.592487 0.878203 0.228274
H36   H     H_    0.225892 0.598847 0.732696 0.218521
H37   H     H_    0.175961 0.432104 0.721315 0.203324
H38   H     H_    0.197450 0.364683 0.157105 0.148112
H39   H     H_    0.174676 0.234881 0.229713 0.181286
H40   H     H_    0.136235 0.210519 0.128240 0.202015
H41   H     H_    0.828219 0.291090 0.779204 0.173279
H42   H     H_    0.709826 0.183095 0.838265 0.156554
H43   H     H_    0.866170 0.237227 0.875287 0.199063
H44   H     H_    0.362498 0.922497 0.316818 0.152226
H45   H     H_    0.630440 0.245765 0.992129 0.183549
H46   H     H_    0.544043 0.947878 0.281872 0.168495
H47   H     H_    0.414647 0.036405 0.240418 0.238658
H48   H     H_    0.456571 0.055998 0.717388 0.168620
H49   H     H_    0.639596 0.076705 0.684149 0.153178
H50   H     H_    0.582111 0.964480 0.760783 0.196314
H51   H     H_    0.383408 0.424075 0.026273 0.143828
H52   H     H_    0.252388 0.419980 0.913888 0.148189
H53   H     H_    0.745182 0.436270 0.085774 0.171452
H54   H     H_    0.279298 0.914023 0.463748 0.152198
N1    N     N_3   0.136700 0.499970 0.500060 -0.092247
N2    N     N_3   0.863300 0.500030 0.499940 -0.092061
O1    O     O_R   0.383390 0.686040 0.500000 -0.626933
O2    O     O_3   0.716422 0.373084 0.880677 -0.623199
O3    O     O_3   0.452247 0.093107 0.354409 -0.621172
O4    O     O_3   0.547077 0.907748 0.646318 -0.613188
O5    O     O_R   0.616610 0.313960 0.500000 -0.629445
O6    O     O_R   0.616650 0.686050 0.499970 -0.623317
O7    O     O_R   0.383350 0.313950 0.500030 -0.629427
O8    O     O_R   0.369590 0.500020 0.615820 -0.629577
O9    O     O_R   0.630410 0.499980 0.384180 -0.613004
O10   O     O_R   0.602840 0.500020 0.615790 -0.618310
O11   O     O_R   0.397160 0.499980 0.384210 -0.627011
O12   O     O_3   0.342200 0.217128 0.142122 -0.614303
Zn1   Zn    Zn3+2 0.344250 0.499990 0.500020 0.921521
Zn2   Zn    Zn3+2 0.655750 0.500010 0.499980 0.931286

loop_
_geom_bond_atom_site_label_1
_geom_bond_atom_site_label_2
_ccdc_geom_bond_type
C3    N2    S    
C31   H18   S    
C41   H41   S    
C5    N1    S    
C35   H26   S    
C38   H35   S    
C15   H12   S    
C35   C36   S    
C43   H50   S    
C4    C8    S    
O6    Zn2   S    
C31   H19   S    
C35   H27   S    
C8    H34   S    
C9    O10   A    
C40   H39   S    
C37   H37   S    
C28   C29   S    
C19   C21   A    
C3    C7    S    
C7    H23   S    
C30   C31   S    
C11   C14   A    
C28   H11   S    
C14   H1    S    
C4    N1    S    
C40   H38   S    
C19   C26   S    
C27   H13   S    
C17   C19   A    
C25   H51   S    
C48   H3    S    
C2    C44   S    
O11   Zn1   S    
C37   H36   S    
C34   C46   S    
C6    N2    S    
C42   O3    S    
C18   C20   A    
C45   O4    S    
C16   O2    S    
C21   H53   S    
C2    C34   S    
C9    O8    A    
C41   H42   S    
C7    N1    S    
O1    Zn1   S    
N1    Zn1   S    
C18   C25   S    
C6    H6    S    
C12   O5    A    
C44   C46   S    
O5    Zn2   S    
N2    Zn2   S    
C45   C47   S    
C38   C39   S    
C46   C48   S    
C34   H2    S    
C23   C47   S    
C41   O2    S    
C42   H47   S    
C39   H30   S    
C32   H16   S    
C12   C46   S    
C1    C47   S    
C29   H7    S    
C25   C26   D    
C22   C37   S    
C23   C44   S    
C13   C24   A    
C39   H31   S    
C37   C38   S    
C27   H14   S    
C1    O6    A    
C9    C11   S    
C33   H28   S    
C31   C32   S    
C20   H52   S    
C44   O3    S    
C43   H48   S    
C34   C45   S    
C8    N2    S    
O10   Zn2   S    
C10   O9    A    
C2    H4    S    
C4    C6    S    
C36   H22   S    
C20   C22   A    
C13   C15   A    
C38   H33   S    
C14   C16   A    
C30   H21   S    
C45   C48   S    
C5    H5    S    
C15   C17   A    
C23   C48   S    
C41   H43   S    
C42   H46   S    
C43   H49   S    
C32   H15   S    
C29   H9    S    
C3    C5    S    
C10   C13   S    
C5    C8    S    
C6    C7    S    
C29   H8    S    
C28   H10   S    
C2    C47   S    
C11   C22   A    
C24   C33   S    
O8    Zn1   S    
O7    Zn1   S    
C39   H32   S    
C40   H40   S    
C3    C27   S    
C33   H29   S    
C40   O12   S    
C26   H45   S    
C33   C35   S    
C42   H44   S    
C43   O4    S    
C4    C30   S    
C36   H25   S    
O9    Zn2   S    
C23   H54   S    
C16   C18   A    
C21   C24   A    
C27   C28   S    
C12   O7    A    
C30   H20   S    
C10   O11   A    
C36   H24   S    
C17   O12   S    
C1    O1    A    
C32   H17   S    
