data_mof_unit_47486.cif
_audit_creation_date              2012-12-10T17:17:29-0500
_audit_creation_method            fapswitch 2.2
_symmetry_space_group_name_H-M    P1
_symmetry_Int_Tables_number       1
_space_group_crystal_system       triclinic
_cell_length_a                    10.193441
_cell_length_b                    10.834918
_cell_length_c                    12.302152
_cell_angle_alpha                 90.655178
_cell_angle_beta                  109.303915
_cell_angle_gamma                 95.995055
_cell_volume                      1273.78033814

loop_
_atom_site_label
_atom_site_type_symbol
_atom_type_description
_atom_site_fract_x
_atom_site_fract_y
_atom_site_fract_z
_atom_type_partial_charge
C1    C     C_R   0.053592 0.732594 0.495550 0.940669
C2    C     C_R   0.207949 0.528272 0.837637 -0.115903
C3    C     C_2   0.089631 0.865386 0.502421 -0.385525
C4    C     C_R   0.135241 0.516564 0.713796 0.854902
C5    C     C_2   0.007939 0.936258 0.534349 -0.145272
C6    C     C_2   0.926747 0.136559 0.525654 -0.383261
C7    C     C_2   0.030210 0.068324 0.531135 -0.143276
C8    C     C_2   0.432451 0.512227 0.508550 -0.122953
C9    C     C_2   0.567258 0.488855 0.490076 -0.128552
C10   C     C_R   0.949853 0.267815 0.510353 0.950523
C11   C     C_R   0.866212 0.489304 0.286092 0.874340
C12   C     C_R   0.428381 0.527524 0.992437 0.087677
C13   C     C_R   0.793485 0.598746 0.987768 -0.202091
C14   C     C_R   0.797525 0.501343 0.164052 -0.055779
C15   C     C_R   0.134955 0.489042 0.912137 -0.195500
C16   C     C_R   0.207525 0.473839 0.027459 -0.152374
C17   C     C_R   0.353038 0.489942 0.067315 -0.187183
C18   C     C_R   0.353672 0.561175 0.880793 0.092523
C19   C     C_R   0.575286 0.532647 0.024367 0.082708
C20   C     C_R   0.646914 0.589495 0.953224 0.181796
C21   C     C_R   0.571366 0.638509 0.850204 -0.256477
C22   C     C_R   0.426306 0.624696 0.814305 -0.205684
C23   C     C_R   0.652822 0.480853 0.124754 -0.251798
C24   C     C_R   0.869112 0.557178 0.094645 -0.205924
H1    H     H_    0.917847 0.896985 0.556452 0.187594
H2    H     H_    0.022368 0.465827 0.880394 0.161901
H3    H     H_    0.403469 0.475217 0.157448 0.128959
H4    H     H_    0.151257 0.443924 0.085066 0.144658
H5    H     H_    0.371388 0.665529 0.734552 0.155342
H6    H     H_    0.130200 0.108806 0.526066 0.190167
H7    H     H_    0.982167 0.574827 0.125548 0.155311
H8    H     H_    0.179441 0.905082 0.480295 0.150210
H9    H     H_    0.826969 0.095635 0.530624 0.149679
H10   H     H_    0.564825 0.415481 0.428422 0.156218
H11   H     H_    0.434696 0.586811 0.568850 0.158871
H12   H     H_    0.684481 0.622225 0.603003 0.153527
H13   H     H_    0.315753 0.376601 0.398178 0.155968
H14   H     H_    0.624216 0.685860 0.796513 0.133951
H15   H     H_    0.849333 0.643012 0.934768 0.139861
H16   H     H_    0.603089 0.428638 0.177536 0.138853
N1    N     N_2   0.313640 0.446500 0.454900 -0.193377
N2    N     N_2   0.686360 0.553430 0.545150 -0.189682
O1    O     O_R   0.936910 0.692950 0.509080 -0.607033
O2    O     O_R   0.138320 0.658600 0.480130 -0.617083
O3    O     O_R   0.002900 0.525670 0.675280 -0.612918
O4    O     O_R   0.204310 0.491320 0.646330 -0.602488
O5    O     O_R   0.861680 0.341400 0.519870 -0.609339
O6    O     O_R   0.063090 0.307050 0.490920 -0.606583
O7    O     O_R   0.795690 0.508680 0.353670 -0.605709
O8    O     O_R   0.997100 0.474330 0.324720 -0.613927
Zn1   Zn    Zn3+2 0.865520 0.522940 0.519330 0.935523
Zn2   Zn    Zn3+2 0.134480 0.477060 0.480670 0.933959

loop_
_geom_bond_atom_site_label_1
_geom_bond_atom_site_label_2
_ccdc_geom_bond_type
C12   C17   A    
C6    C10   S    
O8    Zn2   S    
C16   H4    S    
C6    C7    D    
C11   O7    A    
C22   H5    S    
C2    C18   A    
N1    Zn2   S    
C2    C4    S    
C19   C20   A    
C6    H9    S    
N2    Zn1   S    
C3    C5    D    
O2    Zn2   S    
C24   H7    S    
C11   O8    A    
C4    O4    A    
C21   C22   A    
C20   C21   A    
C10   O6    A    
C2    C15   A    
O1    Zn1   S    
C9    N2    D    
C3    H8    S    
C5    H1    S    
C12   C19   A    
C14   C23   A    
C4    O3    A    
H13   N1    S    
C9    H10   S    
C11   C14   S    
C13   H15   S    
O3    Zn1   S    
C14   C24   A    
C23   H16   S    
C17   H3    S    
O4    Zn2   S    
O6    Zn2   S    
C8    N1    D    
C7    H6    S    
C12   C18   A    
C10   O5    A    
C5    C7    S    
C19   C23   A    
C16   C17   A    
C15   H2    S    
O5    Zn1   S    
C1    O2    A    
C13   C20   A    
O7    Zn1   S    
C18   C22   A    
H12   N2    S    
C1    O1    A    
C21   H14   S    
C15   C16   A    
C13   C24   A    
C8    C9    S    
C1    C3    S    
C8    H11   S    
