data_mof_unit_9045.cif
_audit_creation_date              2012-12-10T16:41:54-0500
_audit_creation_method            fapswitch 2.2
_symmetry_space_group_name_H-M    P1
_symmetry_Int_Tables_number       1
_space_group_crystal_system       triclinic
_cell_length_a                    10.893228
_cell_length_b                    8.703414
_cell_length_c                    7.537152
_cell_angle_alpha                 103.43677
_cell_angle_beta                  94.259725
_cell_angle_gamma                 94.022635
_cell_volume                      690.28379659

loop_
_atom_site_label
_atom_site_type_symbol
_atom_type_description
_atom_site_fract_x
_atom_site_fract_y
_atom_site_fract_z
_atom_type_partial_charge
C1    C     C_R   0.495742 0.199795 0.452941 0.860606
C2    C     C_2   0.505243 0.968671 0.572616 -0.359518
C3    C     C_R   0.265385 0.495147 0.501104 0.850241
C4    C     C_R   0.503634 0.800174 0.547049 0.875790
C5    C     C_R   0.734372 0.499606 0.497769 0.881539
C6    C     C_2   0.922336 0.443519 0.343817 0.433768
C7    C     C_2   0.867264 0.505452 0.494984 -0.330715
C8    C     C_2   0.058099 0.459262 0.348464 -0.265722
C9    C     C_2   0.132513 0.479534 0.503664 -0.358439
C10   C     C_2   0.493237 0.031254 0.427293 -0.356616
Cu1   Cu    Cu3+1 0.513740 0.517380 0.684380 0.947962
Cu2   Cu    Cu3+1 0.486260 0.482620 0.315620 0.960687
H1    H     H_    0.920031 0.566500 0.622470 0.103800
H2    H     H_    0.097148 0.451105 0.218389 0.167308
H3    H     H_    0.097106 0.478237 0.634006 0.143612
H4    H     H_    0.481758 0.958422 0.287805 0.179042
H5    H     H_    0.516784 0.041561 0.711991 0.182283
H6    H     H_    0.607492 0.609183 0.046373 0.226283
N1    N     N_2   0.465540 0.456420 0.038510 -0.108787
N2    N     N_2   0.534460 0.543580 0.961490 -0.199291
O1    O     O_R   0.508930 0.286130 0.619780 -0.596778
O2    O     O_R   0.485720 0.256780 0.308360 -0.599813
O3    O     O_R   0.333540 0.514670 0.655670 -0.623776
O4    O     O_R   0.310330 0.485320 0.344250 -0.597498
O5    O     O_R   0.514280 0.743220 0.691640 -0.584291
O6    O     O_R   0.491070 0.713870 0.380220 -0.587751
O7    O     O_R   0.689670 0.514680 0.655750 -0.589471
O8    O     O_R   0.666460 0.485330 0.344330 -0.525698
O9    O     O_3   0.851686 0.368657 0.182568 -0.704156
H7    H     H_    0.907798 0.328637 0.087898 0.313048
C11   C     C_3   0.350974 0.369790 0.941021 -0.047448
C12   C     C_3   0.316737 0.213714 0.995410 -0.387422
C13   C     C_3   0.209097 0.115546 0.867771 -0.947396
H8    H     H_    0.126805 0.184355 0.870863 0.256582
H9    H     H_    0.235056 0.081298 0.724987 0.261621
H10   H     H_    0.184739 0.005612 0.913219 0.266587
H11   H     H_    0.397369 0.141736 0.986561 0.236289
H12   H     H_    0.286965 0.235455 0.135177 0.257200
H13   H     H_    0.273987 0.447397 0.962917 0.145354
H14   H     H_    0.359327 0.327795 0.797189 0.220986

loop_
_geom_bond_atom_site_label_1
_geom_bond_atom_site_label_2
_ccdc_geom_bond_type
C2    C4    S    
Cu1   Cu2   S    
C1    O1    A    
C6    C7    D    
C3    C9    S    
C12   H12   S    
C5    O8    A    
Cu2   O4    S    
C4    O6    A    
C11   C12   S    
Cu1   O7    S    
N1    C11   S    
C12   C13   S    
C13   H10   S    
C4    O5    A    
C9    H3    S    
C1    O2    A    
C10   H4    S    
C12   H11   S    
C2    H5    S    
C3    O4    A    
O9    H7    S    
Cu2   O8    S    
Cu2   N1    S    
Cu1   O3    S    
C13   H9    S    
C11   H13   S    
C13   H8    S    
H6    N2    S    
C8    H2    S    
Cu1   N2    S    
Cu1   O5    S    
C2    C10   D    
Cu2   O2    S    
C7    H1    S    
C6    O9    S    
C11   H14   S    
C5    C7    S    
C6    C8    S    
C5    O7    A    
C3    O3    A    
Cu1   O1    S    
C1    C10   S    
N1    N2    D    
Cu2   O6    S    
C8    C9    D    
