data_mof_unit_63694.cif
_audit_creation_date              2012-12-11T17:26:03-0500
_audit_creation_method            fapswitch 2.2
_symmetry_space_group_name_H-M    P1
_symmetry_Int_Tables_number       1
_space_group_crystal_system       triclinic
_cell_length_a                    6.947165
_cell_length_b                    18.96067
_cell_length_c                    20.746447
_cell_angle_alpha                 107.613827
_cell_angle_beta                  90.247611
_cell_angle_gamma                 90.545301
_cell_volume                      2604.47071165

loop_
_atom_site_label
_atom_site_type_symbol
_atom_type_description
_atom_site_fract_x
_atom_site_fract_y
_atom_site_fract_z
_atom_type_partial_charge
O1    O     O_R   0.505770 0.444240 0.557370 -0.536428
O2    O     O_R   0.169820 0.415250 0.421330 -0.535836
O3    O     O_R   0.005590 0.555760 0.442630 -0.535169
C1    C     C_R   0.338714 0.393616 0.395299 0.718234
O4    O     O_R   0.175660 0.435500 0.555540 -0.535971
O5    O     O_R   0.011460 0.576150 0.577800 -0.532655
C2    C     C_R   0.344524 0.421171 0.575582 0.724279
O6    O     O_R   0.499890 0.423850 0.422200 -0.533835
O7    O     O_3   0.341200 0.546120 0.507150 -0.364472
V1    V     V_3+5 0.063980 0.491440 0.498670 1.439878
O8    O     O_R   0.682100 0.584750 0.578670 -0.536042
C3    C     C_R   0.852040 0.606248 0.604596 0.724086
O9    O     O_R   0.676270 0.564500 0.444460 -0.532305
C4    C     C_R   0.845102 0.578874 0.424384 0.722131
V2    V     V_3+5 0.564720 0.508560 0.501330 1.446057
O10   O     O_3   0.837360 0.453880 0.492850 -0.368276
H1    H     H_    0.148662 0.667131 0.255861 0.159115
C5    C     C_R   0.042976 0.746915 0.210197 -0.198593
H2    H     H_    0.168955 0.742507 0.178676 0.137724
C6    C     C_R   0.893836 0.794664 0.206095 0.076258
C7    C     C_R   0.728403 0.799073 0.247183 0.062296
C8    C     C_R   0.720396 0.756529 0.293712 0.325908
C9    C     C_R   0.871120 0.707950 0.295824 0.068890
C10   C     C_R   0.031344 0.703797 0.254174 -0.223427
C11   C     C_1   0.913064 0.838523 0.159266 -0.026090
C12   C     C_1   0.862977 0.662565 0.341524 0.046370
C13   C     C_1   0.855075 0.624620 0.379449 -0.175377
C14   C     C_1   0.925926 0.875736 0.120842 -0.194842
C15   C     C_1   0.916347 0.831651 0.833061 -0.193161
C16   C     C_1   0.900983 0.780219 0.780787 0.010405
C17   C     C_1   0.881459 0.719827 0.719175 0.012055
C18   C     C_1   0.866093 0.668374 0.666915 -0.188933
C19   C     C_1   0.352947 0.331263 0.332795 -0.194863
C20   C     C_1   0.375715 0.280021 0.280691 0.009126
C21   C     C_1   0.406773 0.219964 0.219320 0.009345
C22   C     C_1   0.429532 0.168737 0.167206 -0.194192
C23   C     C_R   0.563161 0.256937 0.792422 0.325359
C24   C     C_R   0.410271 0.207506 0.795547 -0.068451
C25   C     C_R   0.246258 0.202584 0.753426 0.130604
C26   C     C_R   0.236370 0.246542 0.709631 -0.190796
H3    H     H_    0.110420 0.242675 0.677625 0.157142
C27   C     C_R   0.386550 0.294884 0.705917 -0.074988
C28   C     C_R   0.551896 0.299885 0.747606 0.365500
C29   C     C_1   0.420508 0.162348 0.841601 -0.029202
C30   C     C_1   0.367414 0.338754 0.659232 -0.011993
C31   C     C_1   0.354718 0.375891 0.620797 -0.184648
C32   C     C_1   0.429010 0.124542 0.879552 -0.193160
O11   O     O_R   0.282550 0.076220 0.077760 -0.533218
O12   O     O_R   0.606940 0.064510 0.944450 -0.538564
O13   O     O_R   0.770980 0.923830 0.922210 -0.533142
C33   C     C_R   0.438175 0.078867 0.924406 0.728611
O14   O     O_R   0.612630 0.084760 0.078660 -0.534687
O15   O     O_R   0.776710 0.944230 0.057380 -0.534531
C34   C     C_R   0.443743 0.106404 0.104689 0.720972
O16   O     O_R   0.276820 0.055820 0.942590 -0.533414
O17   O     O_3   0.441200 0.953910 0.992830 -0.366477
V3    V     V_3+5 0.718480 0.008550 0.001330 1.431832
O18   O     O_R   0.106020 0.935440 0.055580 -0.537429
C35   C     C_R   0.937075 0.921101 0.075632 0.727059
O19   O     O_R   0.100330 0.915180 0.921370 -0.536067
C36   C     C_R   0.930399 0.893739 0.895406 0.722077
V4    V     V_3+5 0.217720 0.991360 0.998720 1.433908
O20   O     O_3   0.945130 0.046090 0.007170 -0.365957
C37   C     C_3   0.559557 0.846039 0.238834 -0.373618
C38   C     C_3   0.586827 0.926446 0.281992 -0.747883
H4    H     H_    0.599884 0.930252 0.336304 0.222473
H5    H     H_    0.718207 0.950710 0.266438 0.232183
H6    H     H_    0.460656 0.959138 0.275312 0.219021
H7    H     H_    0.542273 0.843808 0.184984 0.190203
H8    H     H_    0.421486 0.824046 0.251839 0.186880
O21   O     O_3   0.568289 0.760401 0.337328 -0.649322
H9    H     H_    0.508790 0.809671 0.347652 0.295701
O22   O     O_3   0.706892 0.346005 0.746759 -0.613568
H10   H     H_    0.685354 0.372478 0.713029 0.291566
O23   O     O_3   0.727361 0.265759 0.832257 -0.619219
H11   H     H_    0.722042 0.233145 0.861427 0.289262
C39   C     C_3   0.079068 0.150975 0.754223 -0.284869
C40   C     C_3   0.124605 0.071323 0.713773 -0.776358
H12   H     H_    0.250109 0.050848 0.735865 0.233706
H13   H     H_    0.998481 0.035149 0.714463 0.218130
H14   H     H_    0.156283 0.067734 0.660440 0.230258
H15   H     H_    0.042564 0.154028 0.807085 0.192413
H16   H     H_    0.948062 0.167790 0.731867 0.195011

loop_
_geom_bond_atom_site_label_1
_geom_bond_atom_site_label_2
_ccdc_geom_bond_type
O18   V4    S    
C28   O22   S    
O22   H10   S    
C21   C22   T    
C1    O6    A    
O15   C35   A    
C39   C40   S    
C11   C14   T    
O11   C34   A    
C12   C13   T    
C15   C16   T    
C5    C10   A    
C25   C39   S    
C23   C24   A    
C5    H2    S    
O5    C3    A    
C16   C17   S    
C40   H13   S    
C6    C11   S    
C39   H16   S    
V2    O10   S    
O16   V4    S    
O12   V3    S    
O17   V3    S    
O19   V4    S    
C20   C21   S    
C9    C12   S    
C7    C37   S    
O8    V2    S    
C38   H5    S    
C9    C10   A    
O1    V2    S    
C37   H8    S    
C4    C13   S    
O7    V1    S    
C33   O16   A    
C29   C32   T    
C26   C27   A    
C23   O23   S    
O9    C4    A    
C3    C18   S    
O14   C34   A    
V3    O20   S    
C15   C36   S    
H1    C10   S    
C2    C31   S    
C25   C26   A    
O4    C2    A    
O15   V3    S    
C40   H12   S    
C32   C33   S    
O12   C33   A    
O18   C35   A    
C30   C31   T    
O19   C36   A    
C27   C30   S    
C23   C28   A    
O2    C1    A    
O23   H11   S    
C24   C29   S    
V4    O20   S    
O11   V4    S    
C17   C18   T    
C38   H6    S    
C19   C20   T    
C37   H7    S    
O3    C4    A    
C26   H3    S    
O6    V2    S    
O9    V2    S    
O17   V4    S    
C27   C28   A    
O2    V1    S    
C8    O21   S    
C14   C35   S    
C1    C19   S    
O1    C2    A    
O13   V3    S    
O5    V1    S    
O8    C3    A    
C37   C38   S    
O7    V2    S    
O4    V1    S    
O3    V1    S    
V1    O10   S    
C40   H14   S    
C24   C25   A    
C39   H15   S    
C5    C6    A    
C22   C34   S    
O14   V3    S    
O21   H9    S    
C6    C7    A    
C38   H4    S    
O13   C36   A    
C8    C9    A    
C7    C8    A    
