data_mof_unit_20792.cif
_audit_creation_date              2013-03-05T16:26:38-0500
_audit_creation_method            fapswitch 2.2
_symmetry_space_group_name_H-M    P1
_symmetry_Int_Tables_number       1
_space_group_crystal_system       triclinic
_cell_length_a                    18.342885
_cell_length_b                    18.334927
_cell_length_c                    34.444156
_cell_angle_alpha                 90.001654
_cell_angle_beta                  90.011874
_cell_angle_gamma                 89.943475
_cell_volume                      11584.0961906

loop_
_atom_site_label
_atom_site_type_symbol
_atom_site_description
_atom_site_fract_x
_atom_site_fract_y
_atom_site_fract_z
_atom_type_partial_charge
Zn1   Zn    Zn3+2 0.000000 0.586730 0.032740 1.002809
Zn2   Zn    Zn3+2 0.413270 0.000000 0.032740 0.988240
Zn3   Zn    Zn3+2 0.000000 0.413270 0.032740 1.004686
Zn4   Zn    Zn3+2 0.586730 0.000000 0.032740 0.985636
Zn5   Zn    Zn3+2 0.500000 0.086730 0.532740 0.986483
Zn6   Zn    Zn3+2 0.913270 0.500000 0.532740 1.002944
Zn7   Zn    Zn3+2 0.500000 0.913270 0.532740 0.986514
Zn8   Zn    Zn3+2 0.086730 0.500000 0.532740 1.001257
Zn9   Zn    Zn3+2 0.913250 0.500000 0.967240 0.961190
Zn10  Zn    Zn3+2 0.500000 0.913250 0.967240 0.974020
Zn11  Zn    Zn3+2 0.086750 0.500000 0.967240 0.958388
Zn12  Zn    Zn3+2 0.500000 0.086750 0.967240 0.993244
Zn13  Zn    Zn3+2 0.413250 0.000000 0.467240 0.986510
Zn14  Zn    Zn3+2 1.000000 0.413250 0.467240 0.979823
Zn15  Zn    Zn3+2 0.586750 0.000000 0.467240 0.995241
Zn16  Zn    Zn3+2 1.000000 0.586750 0.467240 0.976491
O1    O     O_3   0.000000 0.500000 0.999990 -0.508677
O2    O     O_3   0.500000 0.000000 0.999990 -0.507664
O3    O     O_3   0.500000 0.000000 0.499990 -0.508888
O4    O     O_3   0.000000 0.500000 0.499990 -0.514575
O5    O     O_R   0.060740 0.500000 0.912560 -0.647120
O6    O     O_R   0.500000 0.060740 0.912560 -0.635781
O7    O     O_R   0.939260 0.500000 0.912560 -0.649551
O8    O     O_R   0.500000 0.939260 0.912560 -0.648700
O9    O     O_R   0.560740 0.000000 0.412560 -0.639466
O10   O     O_R   0.000000 0.560740 0.412560 -0.643111
O11   O     O_R   0.439260 0.000000 0.412560 -0.642051
O12   O     O_R   1.000000 0.439260 0.412560 -0.640661
O13   O     O_R   1.000000 0.560680 0.087420 -0.647138
O14   O     O_R   0.439320 0.000000 0.087420 -0.648703
O15   O     O_R   1.000000 0.439320 0.087420 -0.637811
O16   O     O_R   0.560680 0.000000 0.087420 -0.649316
O17   O     O_R   0.500000 0.060680 0.587420 -0.649420
O18   O     O_R   0.939320 0.500000 0.587420 -0.642349
O19   O     O_R   0.500000 0.939320 0.587420 -0.648540
O20   O     O_R   0.060680 0.500000 0.587420 -0.641855
O21   O     O_R   0.853840 0.585430 0.977070 -0.628874
O22   O     O_R   0.414570 0.853840 0.977070 -0.651400
O23   O     O_R   0.146160 0.414570 0.977070 -0.644777
O24   O     O_R   0.585430 0.146160 0.977070 -0.652473
O25   O     O_R   0.146160 0.585430 0.977070 -0.662101
O26   O     O_R   0.585430 0.853840 0.977070 -0.624089
O27   O     O_R   0.853840 0.414570 0.977070 -0.662012
O28   O     O_R   0.414570 0.146160 0.977070 -0.624394
O29   O     O_R   0.353840 0.085430 0.477070 -0.656795
O30   O     O_R   0.914570 0.353840 0.477070 -0.622364
O31   O     O_R   0.646160 0.914570 0.477070 -0.652226
O32   O     O_R   0.085430 0.646160 0.477070 -0.624662
O33   O     O_R   0.646160 0.085430 0.477070 -0.617246
O34   O     O_R   0.085430 0.353840 0.477070 -0.657650
O35   O     O_R   0.353840 0.914570 0.477070 -0.621874
O36   O     O_R   0.914570 0.646160 0.477070 -0.655791
O37   O     O_R   0.085450 0.353820 0.022910 -0.589014
O38   O     O_R   0.646180 0.085450 0.022910 -0.604116
O39   O     O_R   0.914550 0.646180 0.022910 -0.597513
O40   O     O_R   0.353820 0.914550 0.022910 -0.603095
O41   O     O_R   0.914550 0.353820 0.022910 -0.593894
O42   O     O_R   0.353820 0.085450 0.022910 -0.603432
O43   O     O_R   0.085450 0.646180 0.022910 -0.590175
O44   O     O_R   0.646180 0.914550 0.022910 -0.623274
O45   O     O_R   0.585450 0.853820 0.522910 -0.605827
O46   O     O_R   0.146180 0.585450 0.522910 -0.592325
O47   O     O_R   0.414550 0.146180 0.522910 -0.606944
O48   O     O_R   0.853820 0.414550 0.522910 -0.592073
O49   O     O_R   0.414550 0.853820 0.522910 -0.610759
O50   O     O_R   0.853820 0.585450 0.522910 -0.592061
O51   O     O_R   0.585450 0.146180 0.522910 -0.612882
O52   O     O_R   0.146180 0.414550 0.522910 -0.592553
C1    C     C_R   0.999998 0.500163 0.894141 0.823016
C2    C     C_R   0.499882 0.999991 0.894110 0.822416
C3    C     C_R   0.499991 0.000069 0.394129 0.806064
C4    C     C_R   0.999872 0.499997 0.394136 0.802538
C5    C     C_R   0.000087 0.500001 0.105865 0.783069
C6    C     C_R   0.500007 0.999965 0.105849 0.795615
C7    C     C_R   0.499750 0.000028 0.605863 0.797801
C8    C     C_R   0.000032 0.499906 0.605849 0.781451
C9    C     C_R   0.860503 0.640277 0.999768 0.860049
C10   C     C_R   0.359951 0.859984 0.000198 0.882925
C11   C     C_R   0.138997 0.358954 0.999372 0.865455
C12   C     C_R   0.639490 0.140320 0.000453 0.900905
C13   C     C_R   0.140370 0.639656 0.000404 0.880385
C14   C     C_R   0.640407 0.860456 0.999901 0.883249
C15   C     C_R   0.859672 0.360686 0.000441 0.883426
C16   C     C_R   0.359369 0.139553 0.999822 0.866781
C17   C     C_R   0.359418 0.139547 0.500514 0.895689
C18   C     C_R   0.859438 0.360556 0.499569 0.862839
C19   C     C_R   0.640477 0.860347 0.500452 0.892651
C20   C     C_R   0.140598 0.639413 0.499569 0.861123
C21   C     C_R   0.639652 0.140520 0.499814 0.878615
C22   C     C_R   0.139308 0.359314 0.500507 0.880892
C23   C     C_R   0.360271 0.859558 0.499896 0.872596
C24   C     C_R   0.860673 0.640653 0.500499 0.879384
C25   C     C_R   0.259584 0.687810 0.979129 -0.141773
C26   C     C_R   0.301577 0.248547 0.971308 -0.004365
C27   C     C_R   0.754510 0.297540 0.971856 -0.087963
C28   C     C_R   0.679881 0.732299 0.993890 -0.144153
C29   C     C_R   0.732300 0.679337 0.994128 -0.137819
C30   C     C_R   0.702772 0.245608 0.971878 -0.090102
C31   C     C_R   0.248243 0.301065 0.970763 -0.014291
C32   C     C_R   0.312285 0.740783 0.979171 -0.134993
C33   C     C_R   0.757985 0.188935 0.478265 0.001525
C34   C     C_R   0.808086 0.755291 0.475662 -0.147080
C35   C     C_R   0.242952 0.810156 0.477414 -0.006898
C36   C     C_R   0.192923 0.245730 0.475011 -0.149002
C37   C     C_R   0.245971 0.193041 0.475075 -0.149211
C38   C     C_R   0.189946 0.757098 0.477225 -0.010056
C39   C     C_R   0.755129 0.808093 0.475745 -0.147566
C40   C     C_R   0.811051 0.241909 0.478165 -0.000652
C41   C     C_R   0.199261 0.692221 0.003642 -0.189083
C42   C     C_R   0.298655 0.190503 0.997362 -0.320451
C43   C     C_R   0.802117 0.307264 0.002579 -0.241557
C44   C     C_R   0.696591 0.804933 0.001510 -0.170940
C45   C     C_R   0.805228 0.696469 0.000645 -0.170854
C46   C     C_R   0.693612 0.197508 0.002508 -0.235800
C47   C     C_R   0.188998 0.297678 0.996014 -0.319587
C48   C     C_R   0.306457 0.801859 0.003072 -0.181965
C49   C     C_R   0.691950 0.200025 0.497461 -0.321600
C50   C     C_R   0.809458 0.700752 0.503816 -0.179550
C51   C     C_R   0.307955 0.800068 0.497736 -0.323543
C52   C     C_R   0.190391 0.299072 0.503786 -0.179485
C53   C     C_R   0.299797 0.191594 0.503650 -0.171414
C54   C     C_R   0.200286 0.691131 0.496592 -0.321577
C55   C     C_R   0.699898 0.808082 0.503564 -0.174437
C56   C     C_R   0.799839 0.308755 0.496493 -0.319966
C57   C     C_R   0.198859 0.746701 0.032813 0.387817
C58   C     C_R   0.233671 0.180033 0.019063 0.401707
C59   C     C_R   0.791753 0.263335 0.036057 0.396095
C60   C     C_R   0.768003 0.821837 0.014467 0.382796
C61   C     C_R   0.823182 0.768500 0.011862 0.390484
C62   C     C_R   0.739373 0.206464 0.035523 0.385531
C63   C     C_R   0.177245 0.231919 0.016685 0.397797
C64   C     C_R   0.250046 0.803654 0.031277 0.375809
C65   C     C_R   0.676230 0.270290 0.512556 0.402052
C66   C     C_R   0.762959 0.707934 0.536358 0.386540
C67   C     C_R   0.322729 0.730705 0.514236 0.406961
C68   C     C_R   0.235219 0.290264 0.536895 0.391131
C69   C     C_R   0.292361 0.238599 0.536152 0.378469
C70   C     C_R   0.270214 0.674941 0.511587 0.395592
C71   C     C_R   0.705647 0.759258 0.535405 0.375407
C72   C     C_R   0.729127 0.325826 0.510072 0.397885
C73   C     C_3   0.326251 0.733034 0.936570 0.397393
C74   C     C_3   0.300739 0.360750 0.961567 0.349759
C75   C     C_3   0.678346 0.262376 0.931565 0.380906
C76   C     C_3   0.692741 0.633751 0.964925 0.395890
C77   C     C_3   0.634024 0.693631 0.964606 0.392829
C78   C     C_3   0.737909 0.322209 0.931598 0.381264
C79   C     C_3   0.360508 0.302324 0.962761 0.358519
C80   C     C_3   0.267154 0.674055 0.936517 0.409848
C81   C     C_3   0.871445 0.187875 0.482714 0.359680
C82   C     C_3   0.752910 0.811933 0.432351 0.385134
C83   C     C_3   0.129323 0.811260 0.480250 0.364405
C84   C     C_3   0.250390 0.191367 0.431707 0.373812
C85   C     C_3   0.190870 0.250120 0.431688 0.390221
C86   C     C_3   0.188171 0.870380 0.480469 0.359227
C87   C     C_3   0.811963 0.752722 0.432338 0.379080
C88   C     C_3   0.812513 0.128811 0.482793 0.355078
H1    H     H_    0.382350 0.711706 0.931060 -0.020607
H2    H     H_    0.304676 0.401630 0.985560 -0.032470
H3    H     H_    0.621437 0.283622 0.931215 -0.024574
H4    H     H_    0.673944 0.581313 0.978068 -0.037366
H5    H     H_    0.580754 0.676520 0.977398 -0.031552
H6    H     H_    0.716275 0.379169 0.931378 -0.027454
H7    H     H_    0.399317 0.307481 0.987607 -0.031303
H8    H     H_    0.288795 0.618281 0.930725 -0.039039
H9    H     H_    0.900229 0.194589 0.511097 -0.042935
H10   H     H_    0.772239 0.866142 0.421779 0.013509
H11   H     H_    0.099027 0.805610 0.508239 -0.040916
H12   H     H_    0.232125 0.137544 0.420075 0.018360
H13   H     H_    0.137285 0.230975 0.420168 0.013105
H14   H     H_    0.193103 0.900273 0.508635 -0.043931
H15   H     H_    0.866149 0.771860 0.421679 0.013912
H16   H     H_    0.806024 0.099972 0.511172 -0.040147
C89   C     C_R   0.497401 0.066103 0.831356 -0.156164
C90   C     C_R   0.065943 0.495789 0.831448 -0.162745
C91   C     C_R   0.495718 0.934034 0.831288 -0.164001
C92   C     C_R   0.934253 0.505412 0.831368 -0.165807
C93   C     C_R   0.992952 0.434197 0.331418 -0.161578
C94   C     C_R   0.433973 0.001503 0.331357 -0.166423
C95   C     C_R   0.002300 0.565927 0.331416 -0.167950
C96   C     C_R   0.565990 0.002146 0.331384 -0.160919
C97   C     C_R   0.497985 0.000010 0.851588 -0.074413
C98   C     C_R   0.000044 0.500456 0.851655 -0.078035
C99   C     C_R   0.998421 0.500023 0.351658 -0.090043
C100  C     C_R   0.499978 0.001217 0.351626 -0.087711
C101  C     C_R   0.493331 0.933159 0.790691 -0.052489
C102  C     C_R   0.933410 0.507048 0.790771 -0.045635
C103  C     C_R   0.493293 0.067404 0.790785 -0.046924
C104  C     C_R   0.066990 0.493489 0.790851 -0.045574
C105  C     C_R   0.001725 0.567051 0.290815 -0.050496
C106  C     C_R   0.567118 0.004132 0.290779 -0.047011
C107  C     C_R   0.990488 0.433253 0.290816 -0.045974
C108  C     C_R   0.432896 0.002153 0.290742 -0.050594
C109  C     C_R   0.491896 0.000306 0.770345 -0.014256
C110  C     C_R   0.000205 0.500017 0.770402 -0.016051
C111  C     C_R   0.996876 0.500110 0.270413 -0.014923
C112  C     C_R   0.500006 0.002436 0.270359 -0.014748
C113  C     C_R   0.491599 0.866506 0.770157 0.208077
C114  C     C_R   0.867156 0.514565 0.770204 0.195499
C115  C     C_R   0.492403 0.134221 0.770263 0.189335
C116  C     C_R   0.133362 0.485947 0.770344 0.185346
C117  C     C_R   0.008387 0.633530 0.270359 0.190611
C118  C     C_R   0.633836 0.006211 0.270234 0.180343
C119  C     C_R   0.983341 0.366884 0.270250 0.176815
C120  C     C_R   0.366145 0.000273 0.270240 0.196603
C121  C     C_R   0.016143 0.632581 0.229780 0.414835
C122  C     C_R   0.633410 0.006922 0.229450 0.417542
C123  C     C_R   0.982311 0.367461 0.229459 0.420091
C124  C     C_R   0.366503 0.993583 0.229605 0.405333
C125  C     C_R   0.486563 0.866688 0.729511 0.416869
C126  C     C_R   0.867632 0.515783 0.729453 0.419062
C127  C     C_R   0.491222 0.133860 0.729463 0.419369
C128  C     C_R   0.132808 0.484007 0.729556 0.419594
C129  C     C_R   0.007803 0.566401 0.209305 -0.023766
C130  C     C_R   0.566828 0.002746 0.209173 -0.023053
C131  C     C_R   0.991599 0.433556 0.209198 -0.023756
C132  C     C_R   0.433148 0.997151 0.209204 -0.024066
C133  C     C_R   0.490240 0.933348 0.709140 -0.026883
C134  C     C_R   0.933731 0.507010 0.709179 -0.024595
C135  C     C_R   0.492849 0.067152 0.709153 -0.024462
C136  C     C_R   0.066665 0.492372 0.709216 -0.023655
C137  C     C_R   0.998657 0.500033 0.229675 -0.065281
C138  C     C_R   0.499990 0.000823 0.229620 -0.063243
C139  C     C_R   0.491261 0.000284 0.729584 -0.064313
C140  C     C_R   0.000205 0.499761 0.729642 -0.065921
C141  C     C_R   0.007245 0.565621 0.168690 -0.188453
C142  C     C_R   0.566018 0.001176 0.168605 -0.182318
C143  C     C_R   0.993148 0.434294 0.168620 -0.181956
C144  C     C_R   0.434036 0.998383 0.168611 -0.191962
C145  C     C_R   0.494380 0.934165 0.668607 -0.183279
C146  C     C_R   0.934468 0.506233 0.668606 -0.184110
C147  C     C_R   0.495978 0.066246 0.668596 -0.180552
C148  C     C_R   0.065862 0.492980 0.668616 -0.186297
C149  C     C_R   0.000235 0.499976 0.148363 -0.084128
C150  C     C_R   0.500024 0.999795 0.148327 -0.079391
C151  C     C_R   0.497145 0.000149 0.648335 -0.079578
C152  C     C_R   0.000135 0.499678 0.648326 -0.084990
H17   H     H_    0.500604 0.116457 0.847564 0.195904
H18   H     H_    0.116310 0.493622 0.847711 0.197766
H19   H     H_    0.495467 0.883341 0.847373 0.180384
H20   H     H_    0.883774 0.508355 0.847514 0.185409
H21   H     H_    0.991195 0.383751 0.347644 0.207327
H22   H     H_    0.383463 0.999265 0.347522 0.204072
H23   H     H_    0.008124 0.616167 0.347593 0.205080
H24   H     H_    0.616428 0.000598 0.347609 0.203682
H25   H     H_    0.012046 0.616226 0.152676 0.202353
H26   H     H_    0.616858 0.001833 0.152609 0.201532
H27   H     H_    0.987985 0.383714 0.152598 0.210894
H28   H     H_    0.383259 0.998513 0.152568 0.200607
H29   H     H_    0.496011 0.883325 0.652623 0.200945
H30   H     H_    0.883865 0.511372 0.652608 0.208473
H31   H     H_    0.497923 0.117100 0.652617 0.202101
H32   H     H_    0.116448 0.487824 0.652615 0.209077
O53   O     O_3   0.144380 0.749454 0.060510 -0.560510
C153  C     C_3   0.169376 0.713462 0.094124 -0.232050
H33   H     H_    0.216022 0.743000 0.107496 0.162426
H34   H     H_    0.184645 0.655812 0.087925 0.119239
H35   H     H_    0.124357 0.712482 0.115563 0.187408
O54   O     O_3   0.223835 0.118597 0.041837 -0.588811
C154  C     C_3   0.239441 0.136577 0.080819 -0.180787
H36   H     H_    0.198042 0.174600 0.092913 0.191916
H37   H     H_    0.295011 0.160274 0.084028 0.130273
H38   H     H_    0.237751 0.085901 0.098391 0.186384
O55   O     O_3   0.833469 0.274190 0.069005 -0.573014
C155  C     C_3   0.797107 0.324598 0.093101 -0.258941
H39   H     H_    0.744054 0.302457 0.103402 0.171477
H40   H     H_    0.788767 0.377825 0.078172 0.121038
H41   H     H_    0.831498 0.334961 0.118992 0.178476
O56   O     O_3   0.786298 0.892272 0.025093 -0.589804
C156  C     C_3   0.793211 0.894887 0.065890 -0.183738
H42   H     H_    0.838549 0.859811 0.076433 0.193236
H43   H     H_    0.741361 0.879360 0.080508 0.150866
H44   H     H_    0.806189 0.951565 0.074531 0.160220
O57   O     O_3   0.894497 0.787579 0.020158 -0.577479
C157  C     C_3   0.927881 0.812182 0.985697 -0.185777
H45   H     H_    0.900652 0.862103 0.974363 0.175725
H46   H     H_    0.928585 0.768827 0.963068 0.134983
H47   H     H_    0.985342 0.826477 0.992246 0.185984
O58   O     O_3   0.728191 0.164970 0.068562 -0.595043
C158  C     C_3   0.784147 0.112412 0.071480 -0.193896
H48   H     H_    0.837614 0.137959 0.078072 0.187678
H49   H     H_    0.788330 0.078686 0.044672 0.169226
H50   H     H_    0.770928 0.075331 0.095923 0.168078
O59   O     O_3   0.114086 0.220637 0.037754 -0.570255
C159  C     C_3   0.064452 0.182246 0.014131 -0.169678
H51   H     H_    0.085811 0.127281 0.006407 0.158556
H52   H     H_    0.050813 0.213546 0.987383 0.138929
H53   H     H_    0.013110 0.174380 0.030624 0.188032
O60   O     O_3   0.245259 0.859736 0.058085 -0.593010
C160  C     C_3   0.193236 0.910895 0.044921 -0.135117
H54   H     H_    0.137340 0.887518 0.045008 0.174572
H55   H     H_    0.206850 0.931834 0.015450 0.151191
H56   H     H_    0.193278 0.958142 0.065034 0.195236
O61   O     O_3   0.608703 0.285715 0.528522 -0.583419
C161  C     C_3   0.614988 0.284898 0.569386 -0.174022
H57   H     H_    0.648098 0.331471 0.580073 0.194544
H58   H     H_    0.638293 0.232531 0.580138 0.141042
H59   H     H_    0.559790 0.290545 0.582088 0.165064
O62   O     O_3   0.769268 0.661615 0.567855 -0.569029
C162  C     C_3   0.817594 0.693460 0.594756 -0.239265
H60   H     H_    0.795113 0.745365 0.606508 0.171992
H61   H     H_    0.872395 0.702815 0.581772 0.114009
H62   H     H_    0.824783 0.655271 0.619410 0.180594
O63   O     O_3   0.388802 0.716405 0.532129 -0.577067
C163  C     C_3   0.379128 0.720955 0.572744 -0.205571
H63   H     H_    0.344685 0.675635 0.583765 0.190798
H64   H     H_    0.355435 0.774397 0.581593 0.131008
H65   H     H_    0.433135 0.716108 0.586926 0.168152
O64   O     O_3   0.227128 0.335029 0.568910 -0.571565
C164  C     C_3   0.177321 0.301922 0.594573 -0.260361
H66   H     H_    0.198962 0.249265 0.605819 0.167433
H67   H     H_    0.123183 0.293581 0.580631 0.118878
H68   H     H_    0.169029 0.338724 0.619731 0.181293
O65   O     O_3   0.337529 0.231116 0.568119 -0.600108
C165  C     C_3   0.389523 0.287814 0.567880 -0.172770
H69   H     H_    0.363848 0.341930 0.572770 0.187832
H70   H     H_    0.421528 0.288463 0.540412 0.173716
H71   H     H_    0.428199 0.278375 0.592109 0.166183
O66   O     O_3   0.285820 0.606979 0.526901 -0.572095
C166  C     C_3   0.315750 0.563442 0.497173 -0.178689
H72   H     H_    0.368042 0.586565 0.486361 0.163003
H73   H     H_    0.276614 0.556288 0.472749 0.134436
H74   H     H_    0.327554 0.508554 0.509202 0.188856
O67   O     O_3   0.658061 0.763902 0.566497 -0.589627
C167  C     C_3   0.606191 0.707337 0.563542 -0.135759
H75   H     H_    0.631654 0.652738 0.567115 0.182150
H76   H     H_    0.575881 0.709827 0.535557 0.164236
H77   H     H_    0.566033 0.714004 0.587321 0.174200
O68   O     O_3   0.712855 0.394685 0.523987 -0.573307
C168  C     C_3   0.685478 0.436761 0.492990 -0.179542
H78   H     H_    0.633951 0.413287 0.481369 0.165554
H79   H     H_    0.726506 0.442478 0.469363 0.135596
H80   H     H_    0.673033 0.492305 0.503935 0.187768
O69   O     O_3   0.305633 0.796888 0.916211 -0.556522
C169  C     C_3   0.346304 0.802039 0.881623 -0.206894
H81   H     H_    0.338792 0.752895 0.863100 0.167376
H82   H     H_    0.405120 0.810488 0.888069 0.156720
H83   H     H_    0.326890 0.850052 0.864963 0.185556
O70   O     O_3   0.287887 0.387421 0.923593 -0.499683
C170  C     C_3   0.296801 0.463645 0.922833 -0.190354
H84   H     H_    0.352529 0.479597 0.932343 0.099420
H85   H     H_    0.254930 0.490811 0.941166 0.169952
H86   H     H_    0.289259 0.482994 0.892579 0.209553
O71   O     O_3   0.694062 0.203478 0.906402 -0.547361
C171  C     C_3   0.647347 0.206616 0.873965 -0.180135
H87   H     H_    0.652652 0.259487 0.858366 0.163690
H88   H     H_    0.589740 0.197464 0.882794 0.160585
H89   H     H_    0.662628 0.162484 0.853485 0.191407
O72   O     O_3   0.732004 0.629374 0.929617 -0.522255
C172  C     C_3   0.719007 0.561278 0.912000 -0.166468
H90   H     H_    0.659944 0.553353 0.905959 0.124305
H91   H     H_    0.740404 0.516076 0.930305 0.137011
H92   H     H_    0.748483 0.559358 0.883972 0.230345
O73   O     O_3   0.631517 0.732790 0.929229 -0.524806
C173  C     C_3   0.566384 0.716131 0.909493 -0.149810
H93   H     H_    0.518275 0.736455 0.925925 0.130639
H94   H     H_    0.561543 0.656522 0.903969 0.127834
H95   H     H_    0.566841 0.744302 0.881056 0.233357
O74   O     O_3   0.796867 0.306488 0.906465 -0.543962
C174  C     C_3   0.798818 0.358292 0.876269 -0.212026
H96   H     H_    0.811724 0.413433 0.887831 0.155693
H97   H     H_    0.746533 0.359473 0.859889 0.161305
H98   H     H_    0.842727 0.343029 0.855664 0.194380
O75   O     O_3   0.391791 0.287655 0.926068 -0.495989
C175  C     C_3   0.458862 0.324505 0.923049 -0.170265
H99   H     H_    0.482294 0.313794 0.893906 0.207353
H100  H     H_    0.498225 0.303959 0.945028 0.115632
H101  H     H_    0.451577 0.384457 0.926134 0.127641
O76   O     O_3   0.203352 0.695150 0.916245 -0.552439
C176  C     C_3   0.194724 0.650949 0.883098 -0.229072
H102  H     H_    0.184059 0.593367 0.891515 0.166203
H103  H     H_    0.243201 0.654182 0.863759 0.159852
H104  H     H_    0.146808 0.670625 0.866458 0.188700
O77   O     O_3   0.915423 0.186643 0.448967 -0.493797
C177  C     C_3   0.986836 0.165082 0.458809 -0.207900
H105  H     H_    0.987319 0.111788 0.474260 0.106622
H106  H     H_    0.013984 0.207654 0.476702 0.146862
H107  H     H_    0.018818 0.158486 0.431712 0.189036
O78   O     O_3   0.685047 0.787140 0.417896 -0.554843
C178  C     C_3   0.670315 0.821057 0.382036 -0.225558
H108  H     H_    0.714783 0.810990 0.360721 0.164582
H109  H     H_    0.661553 0.880649 0.385977 0.172337
H110  H     H_    0.619380 0.797727 0.369936 0.182638
O79   O     O_3   0.087000 0.810953 0.445907 -0.500063
C179  C     C_3   0.016242 0.836631 0.454151 -0.207801
H111  H     H_    0.017485 0.891123 0.468360 0.110652
H112  H     H_    0.986225 0.796882 0.472571 0.143202
H113  H     H_    0.985986 0.842460 0.426443 0.193827
O80   O     O_3   0.318777 0.217467 0.418695 -0.563430
C180  C     C_3   0.335552 0.185937 0.382491 -0.184030
H114  H     H_    0.292110 0.197130 0.360735 0.176232
H115  H     H_    0.344561 0.126187 0.385502 0.180395
H116  H     H_    0.386909 0.210339 0.371567 0.180285
O81   O     O_3   0.215964 0.318818 0.418535 -0.554943
C181  C     C_3   0.182708 0.335780 0.382782 -0.240429
H117  H     H_    0.123057 0.344283 0.386547 0.174367
H118  H     H_    0.193210 0.292649 0.360745 0.163339
H119  H     H_    0.206228 0.387469 0.371725 0.181946
O82   O     O_3   0.188583 0.913168 0.446270 -0.500751
C182  C     C_3   0.166530 0.984939 0.455060 -0.208823
H120  H     H_    0.208108 0.012741 0.473322 0.148972
H121  H     H_    0.112450 0.985938 0.469682 0.108290
H122  H     H_    0.161415 0.015979 0.427556 0.192935
O83   O     O_3   0.786857 0.684787 0.418103 -0.564955
C183  C     C_3   0.821082 0.669191 0.382447 -0.189787
H123  H     H_    0.880572 0.660246 0.386620 0.184370
H124  H     H_    0.811389 0.713298 0.360860 0.176152
H125  H     H_    0.797679 0.618094 0.370564 0.178648
O84   O     O_3   0.813663 0.084590 0.449131 -0.493280
C184  C     C_3   0.839129 0.014340 0.458756 -0.206211
H126  H     H_    0.798626 0.985159 0.477084 0.143232
H127  H     H_    0.892922 0.016489 0.473649 0.109472
H128  H     H_    0.846318 0.982656 0.431595 0.188729
N1    N     N_R   0.498736 0.798293 0.790182 0.218889
O85   O     O_R   0.560098 0.781616 0.806912 -0.380628
O86   O     O_R   0.446451 0.750489 0.789137 -0.393711
N2    N     N_R   0.799154 0.523008 0.790307 0.195469
O87   O     O_R   0.788024 0.580515 0.811624 -0.413854
O88   O     O_R   0.744720 0.480103 0.782340 -0.332210
N3    N     N_R   0.492468 0.202850 0.790414 0.198701
O89   O     O_R   0.439545 0.219021 0.814060 -0.382528
O90   O     O_R   0.539698 0.252879 0.781273 -0.334112
N4    N     N_R   0.201638 0.479190 0.790493 0.200108
O91   O     O_R   0.212740 0.424495 0.813841 -0.382498
O92   O     O_R   0.256032 0.521288 0.781320 -0.332169
N5    N     N_R   0.004551 0.702240 0.290396 0.237474
O93   O     O_R   0.947292 0.718227 0.311016 -0.405904
O94   O     O_R   0.054970 0.751253 0.285675 -0.323759
N6    N     N_R   0.702422 0.008756 0.290340 0.207645
O95   O     O_R   0.753891 0.962806 0.281481 -0.310409
O96   O     O_R   0.717126 0.063126 0.313318 -0.369997
N7    N     N_R   0.975864 0.298616 0.290334 0.208531
O97   O     O_R   0.017440 0.243723 0.281170 -0.303476
O98   O     O_R   0.920961 0.288090 0.313582 -0.373605
N8    N     N_R   0.297835 0.007764 0.290305 0.236978
O99   O     O_R   0.284863 0.065891 0.310849 -0.413626
O100  O     O_R   0.246304 0.959905 0.285607 -0.322695
O101  O     O_3   0.026143 0.697626 0.210098 -0.557909
C185  C     C_3   0.101346 0.706060 0.202466 -0.238067
H129  H     H_    0.109876 0.759388 0.187959 0.198180
H130  H     H_    0.122076 0.662833 0.182697 0.107240
H131  H     H_    0.134190 0.706045 0.229619 0.188449
O102  O     O_3   0.698803 0.009081 0.209398 -0.572083
C186  C     C_3   0.718319 0.082718 0.203656 -0.231110
H132  H     H_    0.676220 0.112548 0.186603 0.135618
H133  H     H_    0.769828 0.084485 0.186811 0.195847
H134  H     H_    0.728240 0.110939 0.231756 0.199280
O103  O     O_3   0.974580 0.302547 0.209336 -0.562547
C187  C     C_3   0.899510 0.288505 0.204463 -0.223064
H135  H     H_    0.893218 0.238893 0.186338 0.199974
H136  H     H_    0.871452 0.334076 0.189170 0.112214
H137  H     H_    0.872540 0.277790 0.232806 0.198392
O104  O     O_3   0.300818 0.989965 0.209872 -0.570210
C188  C     C_3   0.286068 0.916191 0.200997 -0.212257
H138  H     H_    0.325545 0.894046 0.179540 0.128977
H139  H     H_    0.230982 0.912745 0.187832 0.205978
H140  H     H_    0.286129 0.881222 0.227407 0.180836
O105  O     O_3   0.485366 0.800840 0.709839 -0.565795
C189  C     C_3   0.412469 0.784483 0.699948 -0.230858
H141  H     H_    0.390024 0.824340 0.678750 0.114969
H142  H     H_    0.376687 0.782309 0.725999 0.192087
H143  H     H_    0.411098 0.729940 0.686031 0.201271
O106  O     O_3   0.802687 0.523670 0.709384 -0.567866
C190  C     C_3   0.788554 0.598804 0.704608 -0.196755
H144  H     H_    0.739695 0.605204 0.685928 0.206869
H145  H     H_    0.834574 0.627279 0.689986 0.104515
H146  H     H_    0.776569 0.625354 0.732917 0.210883
O107  O     O_3   0.491388 0.199338 0.709436 -0.570495
C191  C     C_3   0.418505 0.221391 0.703548 -0.233165
H147  H     H_    0.387579 0.180486 0.686261 0.135026
H148  H     H_    0.418532 0.273156 0.686875 0.197291
H149  H     H_    0.390339 0.231918 0.731606 0.197847
O108  O     O_3   0.197739 0.476074 0.709493 -0.567242
C192  C     C_3   0.212380 0.400925 0.705252 -0.229338
H150  H     H_    0.261728 0.394390 0.686961 0.197912
H151  H     H_    0.166845 0.372004 0.690443 0.113290
H152  H     H_    0.223806 0.374967 0.733793 0.202509

loop_
_geom_bond_atom_site_label_1
_geom_bond_atom_site_label_2
_geom_bond_distance
_ccdc_geom_bond_type
C93   C107  1.399357 A    
O105  C189  1.412292 S    
Zn5   O51   1.939876 S    
C49   C65   1.418625 A    
O101  C185  1.412962 S    
C192  H152  1.112014 S    
C92   C98   1.397255 A    
C28   C77   1.492761 S    
C159  H51   1.113165 S    
C69   O65   1.384560 S    
C30   C46   1.385435 A    
C119  N7    1.436840 S    
C86   H14   1.117966 S    
O49   C23   1.276790 A    
C157  H45   1.112957 S    
N5    O93   1.301199 A    
C153  H34   1.113877 S    
C130  C138  1.414499 A    
Zn13  O35   1.938871 S    
C39   C82   1.496852 S    
C61   O57   1.384191 S    
O34   C22   1.279961 A    
C163  H65   1.107950 S    
C120  C124  1.405025 A    
C167  H75   1.111080 S    
O52   C22   1.279525 A    
O41   C15   1.275739 A    
C146  C152  1.397603 A    
C148  H32   1.083370 S    
C6    C150  1.463108 S    
C84   O80   1.415939 S    
C176  H104  1.109196 S    
Zn4   O2    1.950034 S    
C122  C130  1.408939 A    
N1    O86   1.300360 A    
C103  C109  1.417673 A    
C46   C62   1.422879 A    
C27   C78   1.489863 S    
C107  C119  1.414215 A    
C74   H2    1.118056 S    
C9    C45   1.445102 S    
C131  C137  1.414226 A    
C36   C37   1.370489 A    
N8    O99   1.301059 A    
C143  C149  1.398018 A    
C58   O54   1.384654 S    
O67   C167  1.411766 S    
Zn16  O36   1.937420 S    
O55   C155  1.409572 S    
C20   C54   1.452760 S    
C111  C137  1.403567 A    
O22   C10   1.284979 A    
C165  H69   1.110759 S    
O69   C169  1.409018 S    
O46   C20   1.278883 A    
Zn12  O24   1.939042 S    
C188  H140  1.112912 S    
C2    C97   1.465040 S    
O63   C163  1.412669 S    
Zn16  O4    1.949991 S    
C114  N2    1.435023 S    
Zn1   O13   1.943035 S    
C108  C120  1.413773 A    
C183  H123  1.112610 S    
Zn3   O15   1.943008 S    
C25   C32   1.371015 A    
Zn4   O16   1.943168 S    
C67   C70   1.408377 A    
Zn3   O41   1.939753 S    
C73   H1    1.116740 S    
C82   O78   1.415948 S    
Zn7   O3    1.949690 S    
C156  H43   1.113477 S    
C180  H114  1.112717 S    
O62   C162  1.409212 S    
O79   C179  1.409185 S    
O11   C3    1.282288 A    
C118  C122  1.404868 A    
C182  H121  1.112727 S    
C159  H53   1.109467 S    
C106  C118  1.414330 A    
C76   C77   1.537274 S    
C154  H37   1.113927 S    
C179  H112  1.112558 S    
O81   C181  1.408822 S    
Zn10  O22   1.939169 S    
C125  C133  1.410987 A    
C187  H135  1.109341 S    
C33   C49   1.394806 A    
Zn12  O28   1.937420 S    
N2    O87   1.300805 A    
Zn13  O29   1.937116 S    
C169  H83   1.109214 S    
Zn14  O34   1.937317 S    
C115  N3    1.437040 S    
Zn6   O4    1.950417 S    
Zn10  O2    1.949938 S    
C167  H77   1.108335 S    
C83   H11   1.117698 S    
O72   C172  1.408683 S    
C88   H16   1.117779 S    
Zn3   O1    1.949690 S    
Zn15  O33   1.938774 S    
C186  H133  1.109357 S    
C181  H117  1.112670 S    
C174  H96   1.112283 S    
C101  C113  1.412354 A    
O78   C178  1.408865 S    
C145  H29   1.082967 S    
C96   C100  1.397492 A    
Zn8   O46   1.939578 S    
C133  C139  1.415070 A    
C93   H21   1.081197 S    
C166  H73   1.113622 S    
C172  H90   1.112820 S    
C11   C47   1.454237 S    
O27   C15   1.278796 A    
N3    O89   1.301311 A    
C147  H31   1.083342 S    
C60   C61   1.409574 A    
C90   C98   1.397502 A    
C63   O59   1.382908 S    
O8    C2    1.282107 A    
N7    O98   1.301298 A    
C123  O103  1.384680 S    
C132  C144  1.398483 A    
C77   H5    1.117182 S    
C102  C114  1.413199 A    
O16   C6    1.281336 A    
O53   C153  1.409056 S    
C124  O104  1.384860 S    
C89   H17   1.080529 S    
Zn15  O9    1.942796 S    
C104  C116  1.414295 A    
C182  H120  1.112523 S    
C82   H10   1.116682 S    
C55   C71   1.419533 A    
C148  C152  1.398707 A    
O40   C10   1.274875 A    
C175  H99   1.109470 S    
C66   O62   1.382556 S    
C53   C69   1.419298 A    
C24   C50   1.451811 S    
C177  H105  1.112714 S    
O45   C19   1.277528 A    
O17   C7    1.280746 A    
Zn7   O45   1.938126 S    
C59   O55   1.383099 S    
O80   C180  1.408423 S    
Zn5   O17   1.943035 S    
C180  H116  1.109129 S    
O9    C3    1.282342 A    
C36   C85   1.494867 S    
C50   C66   1.414700 A    
C91   C97   1.397840 A    
C120  N8    1.437539 S    
C163  H64   1.114040 S    
C168  H79   1.113577 S    
Zn4   O44   1.937825 S    
C129  C137  1.414793 A    
Zn9   O21   1.937116 S    
C88   O84   1.414950 S    
C164  H67   1.113676 S    
Zn9   O27   1.938871 S    
C189  H141  1.111745 S    
C117  N5    1.438112 S    
C80   H8    1.114601 S    
C187  H137  1.112119 S    
C14   C44   1.448947 S    
C81   H9    1.117844 S    
O108  C192  1.411110 S    
C78   O74   1.414846 S    
C66   C71   1.410600 A    
C169  H81   1.112700 S    
Zn9   O7    1.942988 S    
C178  H110  1.109154 S    
O50   C24   1.279228 A    
C153  H35   1.108089 S    
Zn10  O8    1.942854 S    
C80   O76   1.416173 S    
C116  N4    1.436946 S    
Zn11  O5    1.942796 S    
O5    C1    1.282033 A    
C177  H107  1.109052 S    
O31   C19   1.283803 A    
Zn11  O23   1.937053 S    
C29   C76   1.495922 S    
O61   C161  1.412283 S    
C94   C108  1.399139 A    
C68   O64   1.382583 S    
C35   C86   1.495955 S    
N7    O97   1.301060 A    
C48   C64   1.419834 A    
O75   C175  1.408033 S    
C38   C54   1.394070 A    
C160  H54   1.111672 S    
C72   O68   1.382777 S    
C34   C39   1.370751 A    
C8    C152  1.463081 S    
O84   C184  1.409215 S    
C184  H128  1.109027 S    
C17   C53   1.454761 S    
C70   O66   1.382803 S    
C42   C58   1.420299 A    
C83   O79   1.414787 S    
C21   C49   1.455771 S    
C172  H92   1.107140 S    
C82   C87   1.532845 S    
C18   C56   1.452719 S    
N4    O91   1.301328 A    
C23   C51   1.455398 S    
C76   H4    1.117566 S    
N6    O95   1.301053 A    
C87   O83   1.415970 S    
Zn9   O1    1.950337 S    
C89   C103  1.399678 A    
C86   O82   1.415306 S    
C74   C79   1.532595 S    
C102  C110  1.417762 A    
C10   C48   1.452759 S    
C128  O108  1.384649 S    
C135  C147  1.398274 A    
O104  C188  1.413135 S    
C144  H28   1.082885 S    
C192  H151  1.113410 S    
C127  C135  1.409291 A    
C13   C41   1.452647 S    
Zn1   O1    1.949635 S    
C142  C150  1.397698 A    
C175  H101  1.112263 S    
Zn2   O14   1.942976 S    
C159  H52   1.113731 S    
O54   C154  1.411902 S    
C184  H126  1.112521 S    
C79   H7    1.117135 S    
C19   C55   1.454532 S    
Zn3   O37   1.938126 S    
C33   C40   1.375754 A    
C155  H41   1.108738 S    
C91   H19   1.082073 S    
C174  H98   1.109266 S    
C131  C143  1.398025 A    
C114  C126  1.403824 A    
C162  H62   1.108436 S    
C107  C111  1.417949 A    
C129  C141  1.399089 A    
C143  H27   1.083370 S    
C170  H86   1.109403 S    
C171  H87   1.112703 S    
C167  H76   1.113587 S    
C173  H93   1.112420 S    
O59   C159  1.409730 S    
C117  C121  1.405075 A    
O58   C158  1.410748 S    
C147  C151  1.398585 A    
C84   C85   1.532985 S    
C94   H22   1.081854 S    
O102  C186  1.411071 S    
O6    C2    1.282361 A    
O47   C17   1.277683 A    
O18   C8    1.281734 A    
C176  H103  1.112768 S    
C157  H46   1.113338 S    
C75   C78   1.549035 S    
C121  O101  1.384210 S    
N1    O85   1.300575 A    
C122  O102  1.384835 S    
Zn10  O26   1.937317 S    
C157  H47   1.109472 S    
O10   C4    1.281815 A    
C118  N6    1.436754 S    
C32   C48   1.393871 A    
C183  H125  1.109147 S    
C39   C55   1.394633 A    
O73   C173  1.408249 S    
C178  H108  1.112816 S    
Zn14  O30   1.939169 S    
Zn15  O3    1.950718 S    
C78   H6    1.116878 S    
C108  C112  1.417267 A    
N3    O90   1.301072 A    
C40   C56   1.393725 A    
C32   C73   1.496352 S    
Zn1   O43   1.939876 S    
C31   C47   1.393492 A    
C161  H57   1.111048 S    
C165  H70   1.113625 S    
C160  H56   1.109190 S    
Zn5   O47   1.938025 S    
C25   C80   1.495704 S    
Zn8   O20   1.943168 S    
Zn6   O48   1.939484 S    
C188  H139  1.109303 S    
C185  H129  1.109289 S    
C134  C146  1.397639 A    
O35   C23   1.284204 A    
C77   O73   1.415046 S    
C190  H146  1.111716 S    
C158  H48   1.110676 S    
O32   C20   1.280368 A    
C5    C149  1.463782 S    
C165  H71   1.108727 S    
C121  C129  1.411869 A    
C156  H42   1.111721 S    
N5    O94   1.300407 A    
O12   C4    1.281739 A    
O48   C18   1.279386 A    
C84   H12   1.116782 S    
C142  H26   1.083335 S    
O38   C12   1.274851 A    
Zn16  O10   1.942828 S    
Zn13  O3    1.950337 S    
O103  C187  1.411080 S    
Zn14  O4    1.949938 S    
C54   C70   1.413905 A    
C161  H59   1.107814 S    
C101  C109  1.416870 A    
O106  C190  1.411136 S    
O68   C168  1.409382 S    
C33   C88   1.495915 S    
C93   C99   1.397444 A    
O21   C9    1.279689 A    
C26   C42   1.393180 A    
C51   C67   1.418845 A    
C190  H144  1.109275 S    
C103  C115  1.414484 A    
C52   C68   1.414957 A    
C185  H131  1.112413 S    
O23   C11   1.283551 A    
C145  C151  1.397830 A    
C162  H60   1.113033 S    
C153  H33   1.112780 S    
Zn7   O49   1.939753 S    
C105  C111  1.417146 A    
C170  H84   1.112739 S    
C171  H89   1.109265 S    
C126  O106  1.384643 S    
O25   C13   1.282775 A    
C123  C131  1.408960 A    
C60   O56   1.383864 S    
C116  C128  1.405399 A    
C45   C61   1.415157 A    
C92   H20   1.081523 S    
C71   O67   1.384304 S    
C15   C43   1.442741 S    
O36   C24   1.280384 A    
C37   C84   1.496297 S    
Zn11  O1    1.950718 S    
C38   C83   1.493806 S    
C3    C100  1.464156 S    
C56   C72   1.413706 A    
C127  O107  1.384620 S    
O43   C13   1.276791 A    
C4    C99   1.463380 S    
O28   C16   1.286329 A    
C181  H119  1.109161 S    
C67   O63   1.384360 S    
Zn2   O42   1.937760 S    
C134  C140  1.414407 A    
Zn5   O3    1.949635 S    
C128  C136  1.409115 A    
O76   C176  1.409094 S    
C95   C105  1.398654 A    
C141  C149  1.398423 A    
C191  H148  1.109348 S    
C96   C106  1.399234 A    
C158  H49   1.113904 S    
O65   C165  1.411475 S    
O14   C6    1.281337 A    
C175  H100  1.111602 S    
C76   O72   1.415743 S    
Zn1   O39   1.938025 S    
C177  H106  1.112519 S    
C44   C60   1.418323 A    
C132  C138  1.414973 A    
O15   C5    1.281191 A    
C74   O70   1.416043 S    
C135  C139  1.413979 A    
C166  H72   1.113283 S    
Zn6   O18   1.942976 S    
C109  C139  1.403997 A    
O56   C156  1.411723 S    
C65   C72   1.409803 A    
C155  H40   1.113532 S    
C156  H44   1.107088 S    
C85   H13   1.116814 S    
C180  H115  1.112592 S    
C68   C69   1.412322 A    
Zn2   O40   1.939484 S    
N2    O88   1.300965 A    
C36   C52   1.393158 A    
C182  H122  1.109087 S    
C113  N1    1.434147 S    
O71   C171  1.409046 S    
Zn12  O6    1.942828 S    
C30   C75   1.490925 S    
Zn2   O2    1.950417 S    
C168  H78   1.113293 S    
O7    C1    1.282207 A    
C31   C74   1.492425 S    
O83   C183  1.408615 S    
O26   C14   1.284513 A    
Zn15  O31   1.937053 S    
C154  H38   1.109357 S    
C179  H111  1.112756 S    
Zn16  O32   1.939042 S    
C27   C30   1.345021 A    
C75   O71   1.414184 S    
C47   C63   1.416935 A    
C164  H66   1.113076 S    
C28   C44   1.391797 A    
O19   C7    1.281586 A    
Zn8   O4    1.950034 S    
C189  H142  1.112582 S    
C58   C63   1.407471 A    
O37   C11   1.277276 A    
C81   C88   1.530878 S    
C183  H124  1.112725 S    
C90   H18   1.081044 S    
O39   C9    1.276640 A    
C169  H82   1.112417 S    
C178  H109  1.112526 S    
O13   C5    1.281190 A    
O51   C21   1.277579 A    
C158  H50   1.109169 S    
C186  H134  1.112548 S    
C125  O105  1.384648 S    
O20   C8    1.280941 A    
C95   H23   1.081913 S    
C90   C104  1.399092 A    
O44   C14   1.274019 A    
C189  H143  1.109295 S    
C85   O81   1.415934 S    
C191  H149  1.112723 S    
C7    C151  1.463704 S    
C65   O61   1.384280 S    
C184  H127  1.112747 S    
C25   C41   1.394273 A    
C144  C150  1.397963 A    
C73   C80   1.531934 S    
C106  C112  1.418022 A    
C1    C98   1.463419 S    
C133  C145  1.398279 A    
C166  H74   1.109459 S    
C104  C110  1.417915 A    
C124  C132  1.411722 A    
N4    O92   1.301044 A    
O74   C174  1.409025 S    
C91   C101  1.399094 A    
N6    O96   1.301275 A    
C95   C99   1.396968 A    
C96   H24   1.081099 S    
C141  H25   1.083092 S    
C136  C148  1.398555 A    
C113  C125  1.403061 A    
C155  H39   1.112922 S    
C81   O77   1.415188 S    
C105  C117  1.413298 A    
C192  H150  1.109343 S    
C119  C123  1.405157 A    
C16   C42   1.455348 S    
C79   O75   1.413842 S    
C62   O58   1.384351 S    
O29   C17   1.283426 A    
O66   C166  1.409416 S    
O42   C16   1.275562 A    
O107  C191  1.410926 S    
C28   C29   1.365906 A    
O24   C12   1.281776 A    
O57   C157  1.410062 S    
C37   C53   1.394185 A    
C174  H97   1.112808 S    
C191  H147  1.113325 S    
C57   O53   1.382604 S    
C162  H61   1.113719 S    
C181  H118  1.112816 S    
C83   C86   1.530537 S    
C41   C57   1.416781 A    
C163  H63   1.111253 S    
C170  H85   1.111808 S    
C12   C46   1.446370 S    
Zn8   O52   1.937825 S    
C173  H94   1.112991 S    
C43   C59   1.419504 A    
C22   C52   1.452116 S    
C168  H80   1.109472 S    
C112  C138  1.403535 A    
C29   C45   1.392554 A    
C154  H36   1.111426 S    
C179  H113  1.109041 S    
C136  C140  1.414026 A    
O64   C164  1.409240 S    
C110  C140  1.403962 A    
C176  H102  1.112385 S    
C164  H68   1.108653 S    
C26   C79   1.493192 S    
Zn4   O38   1.939578 S    
Zn7   O19   1.943008 S    
C35   C51   1.394665 A    
O33   C21   1.283739 A    
C34   C50   1.393193 A    
N8    O100  1.300450 A    
C92   C102  1.398714 A    
C173  H95   1.107381 S    
C126  C134  1.408394 A    
O60   C160  1.412122 S    
C59   C62   1.418693 A    
C186  H132  1.113304 S    
C27   C43   1.383517 A    
O77   C177  1.409219 S    
C161  H58   1.113976 S    
C57   C64   1.405959 A    
C64   O60   1.384724 S    
C26   C31   1.372145 A    
C73   O69   1.415798 S    
C160  H55   1.113800 S    
Zn11  O25   1.938774 S    
C35   C38   1.376073 A    
C115  C127  1.405479 A    
C75   H3    1.113887 S    
C89   C97   1.397934 A    
C188  H138  1.111340 S    
C130  C142  1.397678 A    
C185  H130  1.111705 S    
C187  H136  1.113347 S    
C40   C81   1.493669 S    
C87   H15   1.116538 S    
Zn6   O50   1.937760 S    
C172  H91   1.112545 S    
O70   C170  1.407499 S    
C171  H88   1.112537 S    
Zn12  O2    1.949991 S    
C190  H145  1.113486 S    
O82   C182  1.409236 S    
Zn13  O11   1.942988 S    
Zn14  O12   1.942854 S    
C146  H30   1.083376 S    
C34   C87   1.494686 S    
C94   C100  1.397459 A    
O30   C18   1.280023 A    
