data_mof_unit_62271.cif
_audit_creation_date              2012-12-10T18:53:54-0500
_audit_creation_method            fapswitch 2.2
_symmetry_space_group_name_H-M    P1
_symmetry_Int_Tables_number       1
_space_group_crystal_system       triclinic
_cell_length_a                    19.432599
_cell_length_b                    19.386117
_cell_length_c                    19.479199
_cell_angle_alpha                 84.699867
_cell_angle_beta                  95.290372
_cell_angle_gamma                 90.220404
_cell_volume                      7275.67387774

loop_
_atom_site_label
_atom_site_type_symbol
_atom_type_description
_atom_site_fract_x
_atom_site_fract_y
_atom_site_fract_z
_atom_type_partial_charge
C1    C     C_R   0.311723 0.492341 0.492303 0.513264
C2    C     C_2   0.484780 0.984933 0.476645 0.256727
C3    C     C_2   0.524994 0.017361 0.523500 -0.108077
C4    C     C_R   0.687975 0.507988 0.507486 0.499381
C5    C     C_R   0.513292 0.236405 0.514783 0.036783
C6    C     C_R   0.762892 0.513268 0.508586 0.019417
C7    C     C_R   0.794804 0.501643 0.449298 -0.138380
C8    C     C_R   0.865977 0.506177 0.449594 -0.142088
C9    C     C_R   0.906862 0.520133 0.510087 0.058730
C10   C     C_R   0.874894 0.533430 0.569732 0.110597
C11   C     C_R   0.802676 0.530518 0.568199 -0.104696
C12   C     C_R   0.487656 0.908567 0.477895 0.028447
C13   C     C_R   0.129849 0.461257 0.541000 0.254215
C14   C     C_R   0.202044 0.466830 0.547202 0.244472
C15   C     C_R   0.198369 0.506687 0.424577 -0.171895
C16   C     C_R   0.508070 0.492279 0.688827 0.496478
C17   C     C_R   0.126326 0.502928 0.418336 0.062001
C18   C     C_R   0.092180 0.481853 0.477169 0.024492
C19   C     C_2   0.982769 0.520458 0.511665 -0.080504
C20   C     C_2   0.016683 0.482172 0.471857 -0.093176
C21   C     C_R   0.236352 0.488654 0.488317 -0.025879
C22   C     C_R   0.491882 0.515185 0.235664 0.036699
C23   C     C_R   0.427273 0.871909 0.459944 -0.118407
C24   C     C_R   0.536312 0.473475 0.204331 -0.128897
C25   C     C_R   0.538748 0.481026 0.133171 -0.114914
C26   C     C_R   0.496252 0.529978 0.092016 0.040902
C27   C     C_R   0.452870 0.572775 0.123090 -0.119255
C28   C     C_R   0.491878 0.508284 0.311098 0.502139
C29   C     C_R   0.450271 0.565137 0.194655 -0.126705
C30   C     C_R   0.535509 0.541991 0.871119 -0.113808
C31   C     C_R   0.537127 0.544078 0.799732 -0.130957
C32   C     C_R   0.481044 0.431919 0.800719 -0.134044
C33   C     C_R   0.480172 0.429512 0.872078 -0.125078
C34   C     C_R   0.428596 0.799849 0.463375 -0.139662
C35   C     C_R   0.506328 0.484881 0.907437 0.038442
C36   C     C_2   0.496759 0.536507 0.016542 -0.138960
C37   C     C_2   0.504625 0.480503 0.982594 -0.137721
C38   C     C_R   0.509335 0.489307 0.764090 0.035563
C39   C     C_R   0.508461 0.311840 0.508883 0.499473
C40   C     C_R   0.491751 0.688268 0.491345 0.499479
C41   C     C_R   0.490124 0.763766 0.485851 0.042544
C42   C     C_R   0.550763 0.800244 0.502425 -0.121767
C43   C     C_R   0.549854 0.872140 0.497407 -0.152647
C44   C     C_3   0.251134 0.506149 0.646798 0.031630
C45   C     C_R   0.461461 0.124338 0.539549 -0.071642
C46   C     C_3   0.294247 0.484393 0.714970 -0.249891
C47   C     C_3   0.315892 0.546742 0.754165 -0.486059
C48   C     C_3   0.099538 0.368307 0.613837 0.031130
C49   C     C_3   0.035858 0.333761 0.579699 -0.280564
C50   C     C_3   0.034144 0.256467 0.602875 -0.487324
C51   C     C_3   0.449302 0.021516 0.363155 0.007197
C52   C     C_3   0.501548 0.077921 0.344022 -0.260307
C53   C     C_3   0.511352 0.082998 0.266919 -0.487659
C54   C     C_R   0.457315 0.196210 0.535351 -0.132284
C55   C     C_R   0.574211 0.204047 0.500618 -0.131850
C56   C     C_R   0.578839 0.132126 0.506400 -0.139178
C57   C     C_R   0.522009 0.092367 0.524424 0.060400
H1    H     H_    0.599102 0.773155 0.518286 0.131042
H2    H     H_    0.569665 0.435216 0.234761 0.133441
H3    H     H_    0.559326 0.588744 0.772425 0.130788
H4    H     H_    0.459648 0.388834 0.774272 0.130123
H5    H     H_    0.506355 0.429174 0.010388 0.118660
H6    H     H_    0.420295 0.611193 0.091893 0.103854
H7    H     H_    0.557854 0.584461 0.897832 0.107509
H8    H     H_    0.416167 0.598480 0.217810 0.132196
H9    H     H_    0.486984 0.587076 0.988404 0.116916
H10   H     H_    0.574394 0.448933 0.110494 0.106688
H11   H     H_    0.618206 0.234321 0.485451 0.129571
H12   H     H_    0.625739 0.107487 0.494598 0.099331
H13   H     H_    0.458177 0.384839 0.899627 0.103705
H14   H     H_    0.563047 0.989520 0.559905 0.070487
H15   H     H_    0.378894 0.898951 0.444283 0.142567
H16   H     H_    0.417401 0.093622 0.553773 0.133717
H17   H     H_    0.381355 0.772298 0.450029 0.126756
H18   H     H_    0.597961 0.898930 0.508585 0.096508
H19   H     H_    0.201476 0.529009 0.658515 0.151183
H20   H     H_    0.280283 0.546021 0.616399 0.119547
H21   H     H_    0.263703 0.448409 0.747939 0.162884
H22   H     H_    0.341366 0.456588 0.704157 0.202231
H23   H     H_    0.764540 0.490039 0.402248 0.133232
H24   H     H_    0.348577 0.582137 0.722964 0.148573
H25   H     H_    0.346344 0.528832 0.803623 0.161123
H26   H     H_    0.269609 0.575315 0.765956 0.146581
H27   H     H_    0.942399 0.502843 0.651625 0.238937
H28   H     H_    0.884252 0.560669 0.669559 0.223935
H29   H     H_    0.100381 0.357266 0.670899 0.155794
H30   H     H_    0.147615 0.344750 0.598746 0.152714
H31   H     H_    0.988237 0.358742 0.593488 0.179407
H32   H     H_    0.036705 0.340476 0.522541 0.153579
H33   H     H_    0.080953 0.230345 0.588804 0.148680
H34   H     H_    0.224974 0.523032 0.379363 0.141888
H35   H     H_    0.987765 0.232938 0.576834 0.150033
H36   H     H_    0.031604 0.248124 0.659775 0.147447
H37   H     H_    0.065397 0.477362 0.335166 0.219639
H38   H     H_    0.120074 0.541902 0.316254 0.228130
H39   H     H_    0.400060 0.032480 0.330293 0.150673
H40   H     H_    0.467520 0.970011 0.350810 0.124233
H41   H     H_    0.483151 0.128738 0.357572 0.186858
H42   H     H_    0.552252 0.065838 0.373838 0.156791
H43   H     H_    0.530614 0.032929 0.252478 0.147119
H44   H     H_    0.549733 0.123893 0.254899 0.148706
H45   H     H_    0.989833 0.450807 0.434694 0.104956
H46   H     H_    0.461709 0.096684 0.235747 0.147028
H47   H     H_    0.777659 0.539808 0.613977 0.121781
H48   H     H_    0.012199 0.550478 0.548596 0.179994
H49   H     H_    0.888543 0.499107 0.402002 0.113180
H50   H     H_    0.409965 0.220348 0.546628 0.128945
N1    N     N_3   0.915931 0.548291 0.631842 -0.638860
N2    N     N_3   0.087360 0.522421 0.353078 -0.620929
O1    O     O_3   0.500000 0.500000 0.500000 -0.441010
O2    O     O_R   0.467830 0.341070 0.546160 -0.546924
O3    O     O_R   0.450560 0.655630 0.450550 -0.547151
O4    O     O_R   0.545840 0.347670 0.467560 -0.546866
O5    O     O_R   0.535760 0.655640 0.535740 -0.546543
O6    O     O_3   0.238675 0.447101 0.610233 -0.549254
O7    O     O_3   0.095517 0.441128 0.598797 -0.575242
O8    O     O_3   0.434963 0.022639 0.432980 -0.574031
O9    O     O_R   0.545870 0.536170 0.656040 -0.546612
O10   O     O_R   0.450550 0.545430 0.340370 -0.549768
O11   O     O_R   0.347960 0.451240 0.536460 -0.499735
O12   O     O_R   0.655630 0.467150 0.467130 -0.546927
O13   O     O_R   0.340780 0.536140 0.450970 -0.558432
O14   O     O_R   0.655640 0.545460 0.545430 -0.546811
O15   O     O_R   0.467850 0.451260 0.656340 -0.558539
O16   O     O_R   0.535740 0.467130 0.347260 -0.548984
Zn1   Zn    Zn3+2 0.558310 0.558310 0.558290 0.927435
Zn2   Zn    Zn3+2 0.446830 0.436990 0.558720 0.938365
Zn3   Zn    Zn3+2 0.558290 0.446420 0.446420 0.926559
Zn4   Zn    Zn3+2 0.436570 0.558290 0.436570 0.924275

loop_
_geom_bond_atom_site_label_1
_geom_bond_atom_site_label_2
_ccdc_geom_bond_type
C51   H40   S    
C55   C56   A    
C1    C21   S    
C22   C29   A    
C30   H7    S    
C27   C29   A    
C41   C42   A    
C10   N1    S    
C19   C20   D    
C25   H10   S    
C2    C12   S    
C42   H1    S    
C55   H11   S    
O11   Zn2   S    
C7    C8    A    
C40   O3    A    
O4    Zn3   S    
C52   C53   S    
C12   C23   A    
C45   C57   A    
C26   C27   A    
C13   C18   A    
C14   C21   A    
C44   H20   S    
C35   C37   S    
C9    C19   S    
C32   H4    S    
C12   C43   A    
C30   C31   A    
O5    Zn1   S    
C36   H9    S    
C20   H45   S    
C14   O6    S    
C56   C57   A    
O1    Zn4   S    
C45   H16   S    
C47   H25   S    
C44   H19   S    
C1    O13   A    
O10   Zn4   S    
C50   H33   S    
C40   O5    A    
C44   O6    S    
C53   H44   S    
C8    C9    A    
C39   O4    A    
O16   Zn3   S    
C11   H47   S    
C32   C38   A    
O3    Zn4   S    
H28   N1    S    
C9    C10   A    
O13   Zn4   S    
C18   C20   S    
O1    Zn2   S    
C48   O7    S    
C39   O2    A    
C22   C28   S    
C13   C14   A    
C49   H31   S    
C34   C41   A    
C2    O8    S    
C44   C46   S    
C37   H5    S    
C53   H43   S    
C43   H18   S    
C51   C52   S    
C5    C54   A    
C24   C25   A    
O12   Zn3   S    
C4    C6    S    
H38   N2    S    
C6    C11   A    
C46   H21   S    
O14   Zn1   S    
C25   C26   A    
C4    O14   A    
C17   N2    S    
C1    O11   A    
C31   H3    S    
C3    H14   S    
C16   O9    A    
C23   C34   A    
C17   C18   A    
C48   H30   S    
C27   H6    S    
C33   H13   S    
O1    Zn1   S    
O15   Zn2   S    
C29   H8    S    
C54   H50   S    
C26   C36   S    
C48   C49   S    
C34   H17   S    
C45   C54   A    
C49   C50   S    
C47   H26   S    
C5    C39   S    
O2    Zn2   S    
C51   O8    S    
C22   C24   A    
C42   C43   A    
C3    C57   S    
C28   O16   A    
C50   H35   S    
C15   C17   A    
C46   C47   S    
C36   C37   D    
H37   N2    S    
C23   H15   S    
C5    C55   A    
C49   H32   S    
C28   O10   A    
C8    H49   S    
C50   H36   S    
C6    C7    A    
C30   C35   A    
C51   H39   S    
C52   H42   S    
C31   C38   A    
C32   C33   A    
C2    C3    D    
C16   O15   A    
C46   H22   S    
C53   H46   S    
C24   H2    S    
C52   H41   S    
C33   C35   A    
C4    O12   A    
C48   H29   S    
C47   H24   S    
C13   O7    S    
C10   C11   A    
C15   H34   S    
C15   C21   A    
C19   H48   S    
C56   H12   S    
O1    Zn3   S    
C40   C41   S    
O9    Zn1   S    
H27   N1    S    
C16   C38   S    
C7    H23   S    
