data_mof_unit_17260.cif
_audit_creation_date              2013-03-05T15:53:04-0500
_audit_creation_method            fapswitch 2.2
_symmetry_space_group_name_H-M    P1
_symmetry_Int_Tables_number       1
_space_group_crystal_system       triclinic
_cell_length_a                    19.860331
_cell_length_b                    17.112587
_cell_length_c                    15.338868
_cell_angle_alpha                 90.000575
_cell_angle_beta                  52.569793
_cell_angle_gamma                 90.000097
_cell_volume                      4139.68730177

loop_
_atom_site_label
_atom_site_type_symbol
_atom_site_description
_atom_site_fract_x
_atom_site_fract_y
_atom_site_fract_z
_atom_type_partial_charge
C1    C     C_R   0.842336 0.675613 0.042409 -0.098280
C2    C     C_R   0.157879 0.675363 0.956891 -0.076186
C3    C     C_R   0.342121 0.175363 0.043112 -0.076251
C4    C     C_R   0.657661 0.175615 0.957595 -0.098297
N1    N     N_R   0.908660 0.628630 0.995840 -0.054229
N2    N     N_R   0.091340 0.628630 0.004160 -0.054350
N3    N     N_R   0.408660 0.128630 0.995840 -0.054348
N4    N     N_R   0.591340 0.128630 0.004160 -0.054232
C5    C     C_R   0.845480 0.336539 0.217049 -0.068805
C6    C     C_R   0.153480 0.333183 0.778368 -0.016328
C7    C     C_R   0.346520 0.833183 0.221632 -0.016240
C8    C     C_R   0.654513 0.836522 0.782935 -0.068767
N5    N     N_R   0.922310 0.368460 0.151950 -0.050386
N6    N     N_R   0.077690 0.368460 0.848050 -0.051866
N7    N     N_R   0.422310 0.868460 0.151950 -0.051881
N8    N     N_R   0.577690 0.868460 0.848050 -0.050447
C9    C     C_R   0.866615 0.388842 0.895334 -0.141747
C10   C     C_R   0.133600 0.388889 0.104381 -0.113178
C11   C     C_R   0.366401 0.888887 0.895618 -0.113080
C12   C     C_R   0.633386 0.888842 0.104663 -0.141738
H1    H     H_    0.860040 0.416535 0.837497 0.158776
H2    H     H_    0.140076 0.416510 0.162347 0.151996
H3    H     H_    0.359924 0.916506 0.837653 0.151970
H4    H     H_    0.639959 0.916535 0.162503 0.158747
N9    N     N_R   0.903470 0.421430 0.936420 -0.067920
N10   N     N_R   0.096530 0.421430 0.063580 -0.067184
N11   N     N_R   0.403470 0.921430 0.936420 -0.067166
N12   N     N_R   0.596530 0.921430 0.063580 -0.067908
C13   C     C_R   0.906025 0.608184 0.303945 0.283664
C14   C     C_R   0.092354 0.608862 0.696404 0.322473
C15   C     C_R   0.407658 0.108865 0.303589 0.322482
C16   C     C_R   0.593938 0.108186 0.696078 0.283545
N13   N     N_R   0.927500 0.575670 0.211370 -0.089859
N14   N     N_R   0.072500 0.575670 0.788630 -0.092192
N15   N     N_R   0.427500 0.075670 0.211370 -0.092190
N16   N     N_R   0.572500 0.075670 0.788630 -0.089839
C17   C     C_R   0.883385 0.297461 0.983341 0.258681
C18   C     C_R   0.117168 0.297552 0.015884 0.239962
C19   C     C_R   0.382834 0.797552 0.984114 0.240010
C20   C     C_R   0.616617 0.797460 0.016653 0.258679
N17   N     N_R   0.908660 0.365680 0.995820 -0.105174
N18   N     N_R   0.091340 0.365680 0.004180 -0.105922
N19   N     N_R   0.408660 0.865680 0.995820 -0.105924
N20   N     N_R   0.591340 0.865680 0.004180 -0.105186
C21   C     C_R   0.894155 0.697668 0.209360 -0.166695
C22   C     C_R   0.101688 0.698675 0.792010 -0.174784
C23   C     C_R   0.398323 0.198678 0.207986 -0.174760
C24   C     C_R   0.605833 0.197670 0.790642 -0.166675
H5    H     H_    0.889743 0.753377 0.179887 0.147724
H6    H     H_    0.098297 0.754252 0.827837 0.130044
H7    H     H_    0.401716 0.254255 0.172159 0.130065
H8    H     H_    0.610249 0.253380 0.820112 0.147799
N21   N     N_R   0.922310 0.631420 0.151980 -0.067671
N22   N     N_R   0.077690 0.631420 0.848020 -0.066963
N23   N     N_R   0.422310 0.131420 0.151980 -0.066956
N24   N     N_R   0.577690 0.131420 0.848020 -0.067672
C25   C     C_R   0.855740 0.425934 0.314005 -0.083200
C26   C     C_R   0.141718 0.424390 0.684562 -0.089069
C27   C     C_R   0.358280 0.924397 0.315435 -0.089070
C28   C     C_R   0.644262 0.925944 0.686001 -0.083219
H9    H     H_    0.843561 0.459493 0.381795 0.148053
H10   H     H_    0.154011 0.462597 0.621188 0.158165
H11   H     H_    0.345985 0.962611 0.378805 0.158154
H12   H     H_    0.656440 0.959511 0.618217 0.147986
N25   N     N_R   0.927500 0.426330 0.211360 -0.039086
N26   N     N_R   0.072500 0.426330 0.788640 -0.046506
N27   N     N_R   0.427500 0.926330 0.211360 -0.046502
N28   N     N_R   0.572500 0.926330 0.788640 -0.039074
C29   C     C_R   0.832529 0.582939 0.946494 -0.033318
C30   C     C_R   0.167533 0.582922 0.053320 -0.067665
C31   C     C_R   0.332466 0.082922 0.946681 -0.067605
C32   C     C_R   0.667467 0.082942 0.053511 -0.033370
H13   H     H_    0.812900 0.550026 0.905278 0.131193
H14   H     H_    0.187146 0.550108 0.094629 0.129553
H15   H     H_    0.312854 0.050108 0.905372 0.129542
H16   H     H_    0.687095 0.050033 0.094731 0.131173
N29   N     N_R   0.903470 0.570760 0.936440 -0.045316
N30   N     N_R   0.096530 0.570760 0.063560 -0.045972
N31   N     N_R   0.403470 0.070760 0.936440 -0.045965
N32   N     N_R   0.596530 0.070760 0.063560 -0.045311
C33   C     C_R   0.792707 0.647751 0.014323 0.075031
C34   C     C_R   0.207448 0.647600 0.985166 0.079561
C35   C     C_R   0.292552 0.147600 0.014837 0.079522
C36   C     C_R   0.707287 0.147755 0.985686 0.075023
C37   C     C_R   0.803904 0.369367 0.319517 -0.002093
C38   C     C_R   0.194571 0.367068 0.675093 -0.012904
C39   C     C_R   0.305426 0.867074 0.324906 -0.012871
C40   C     C_R   0.696094 0.869370 0.680475 -0.002124
C41   C     C_R   0.852605 0.310963 0.925206 0.023123
C42   C     C_R   0.147907 0.311080 0.074113 0.017845
C43   C     C_R   0.352096 0.811078 0.925885 0.017950
C44   C     C_R   0.647397 0.810963 0.074788 0.023167
C45   C     C_R   0.883797 0.684168 0.304600 -0.067926
C46   C     C_R   0.110383 0.687289 0.696058 -0.078179
C47   C     C_R   0.389640 0.187295 0.303932 -0.078210
C48   C     C_R   0.616173 0.184171 0.695410 -0.067876
Ni1   Ni    Ni4+2 0.000000 0.630300 0.000000 0.219350
Ni2   Ni    Ni4+2 0.500000 0.130300 0.000000 0.219386
Ni3   Ni    Ni4+2 0.000000 0.369700 0.000000 0.323429
Ni4   Ni    Ni4+2 0.500000 0.869700 0.000000 0.323424
Ni5   Ni    Ni4+2 0.988090 0.497570 0.863760 0.293978
Ni6   Ni    Ni4+2 0.011910 0.497570 0.136240 0.289422
Ni7   Ni    Ni4+2 0.488090 0.997570 0.863760 0.289442
Ni8   Ni    Ni4+2 0.511910 0.997570 0.136240 0.293978
C49   C     C_R   0.863668 0.810337 0.392770 0.066735
C50   C     C_R   0.134406 0.729672 0.523307 0.083420
C51   C     C_R   0.365609 0.229668 0.476691 0.083268
C52   C     C_R   0.636448 0.310406 0.607298 0.066548
C53   C     C_R   0.838410 0.733566 0.397454 0.048890
C54   C     C_R   0.127083 0.748649 0.617755 0.081620
C55   C     C_R   0.372958 0.248657 0.382228 0.081559
C56   C     C_R   0.661548 0.233561 0.602540 0.048788
C57   C     C_R   0.343108 0.321784 0.377774 -0.090864
C58   C     C_R   0.736508 0.204354 0.508301 -0.098912
C59   C     C_R   0.763303 0.704459 0.491583 -0.099218
C60   C     C_R   0.156942 0.821771 0.622208 -0.090910
H17   H     H_    0.349557 0.340721 0.305849 0.130600
H18   H     H_    0.759369 0.146357 0.506484 0.136827
H19   H     H_    0.740340 0.646530 0.493321 0.136829
H20   H     H_    0.150516 0.840697 0.694121 0.130579
C61   C     C_R   0.294581 0.367860 0.471383 -0.142429
C62   C     C_R   0.780893 0.249032 0.414795 -0.130526
C63   C     C_R   0.718904 0.749143 0.585090 -0.130532
C64   C     C_R   0.205446 0.867857 0.528611 -0.142433
H21   H     H_    0.267090 0.420348 0.466052 0.151480
H22   H     H_    0.839016 0.225531 0.341876 0.180381
H23   H     H_    0.660670 0.725725 0.657941 0.180391
H24   H     H_    0.232945 0.920338 0.533940 0.151482
C65   C     C_R   0.273382 0.340876 0.571919 0.078118
C66   C     C_R   0.750360 0.323154 0.415390 0.076849
C67   C     C_R   0.749586 0.823157 0.584596 0.076770
C68   C     C_R   0.226617 0.840888 0.428082 0.078142
C69   C     C_R   0.818714 0.855754 0.486797 0.095193
C70   C     C_R   0.185470 0.774825 0.427932 0.105946
C71   C     C_R   0.314520 0.274808 0.572075 0.106022
C72   C     C_R   0.681395 0.355820 0.513267 0.095287
C73   C     C_3   0.897739 0.889203 0.463617 -0.563410
C74   C     C_3   0.120716 0.776137 0.407799 -0.642627
C75   C     C_3   0.379240 0.276107 0.592268 -0.642788
C76   C     C_3   0.602370 0.389473 0.536667 -0.563535
C77   C     C_3   0.947041 0.838559 0.361105 0.184061
C78   C     C_3   0.064468 0.728607 0.511366 0.235025
C79   C     C_3   0.435521 0.228601 0.488682 0.235360
C80   C     C_3   0.553077 0.338844 0.639191 0.184202
H25   H     H_    0.903129 0.953105 0.447511 0.231336
H26   H     H_    0.097020 0.835928 0.411621 0.241463
H27   H     H_    0.402920 0.335897 0.588493 0.241359
H28   H     H_    0.597150 0.453370 0.552752 0.231314
C81   C     C_2   0.777194 0.189560 0.968774 -0.095579
C82   C     C_2   0.222789 0.189467 0.031508 -0.098606
C83   C     C_2   0.277214 0.689465 0.968492 -0.098470
C84   C     C_2   0.722790 0.689550 0.031248 -0.095590
C85   C     C_2   0.309665 0.753616 0.905168 -0.112464
C86   C     C_2   0.690067 0.753472 0.095093 -0.130495
C87   C     C_2   0.809927 0.253473 0.904913 -0.130423
C88   C     C_2   0.190339 0.253620 0.094830 -0.112388
H29   H     H_    0.833918 0.727997 0.087132 0.104125
H30   H     H_    0.166486 0.727332 0.911244 0.106801
H31   H     H_    0.333515 0.227332 0.088760 0.106849
H32   H     H_    0.666076 0.227999 0.912875 0.104161
H33   H     H_    0.906684 0.871511 0.525722 0.235150
H34   H     H_    0.142407 0.743011 0.332508 0.206003
H35   H     H_    0.357526 0.242962 0.667552 0.205925
H36   H     H_    0.593245 0.371887 0.474694 0.234960
N33   N     N_R   0.994175 0.883544 0.258951 0.258228
O1    O     O_R   0.957119 0.937594 0.242038 -0.343119
O2    O     O_R   0.073742 0.867903 0.182424 -0.396662
N34   N     N_R   0.987834 0.770316 0.599317 0.243009
O3    O     O_R   0.991636 0.841662 0.625601 -0.395303
O4    O     O_R   0.914489 0.735975 0.651127 -0.366103
N35   N     N_R   0.512157 0.270332 0.400782 0.243080
O5    O     O_R   0.508351 0.341685 0.374522 -0.395280
O6    O     O_R   0.585511 0.236016 0.349020 -0.366036
N36   N     N_R   0.506188 0.383837 0.741333 0.258250
O7    O     O_R   0.543470 0.437758 0.758070 -0.343012
O8    O     O_R   0.426619 0.368330 0.818024 -0.396486
H37   H     H_    0.985494 0.791884 0.362453 0.113314
H38   H     H_    0.050768 0.669343 0.496021 0.177657
H39   H     H_    0.449225 0.169333 0.504013 0.177678
H40   H     H_    0.514445 0.292293 0.637988 0.113145
H41   H     H_    0.791050 0.174098 0.024771 0.171583
H42   H     H_    0.208988 0.173858 0.975511 0.162967
H43   H     H_    0.291017 0.673858 0.024487 0.162983
H44   H     H_    0.708920 0.674076 0.975268 0.171648
H45   H     H_    0.294023 0.769905 0.851075 0.129034
H46   H     H_    0.705676 0.769605 0.149268 0.132289
H47   H     H_    0.794327 0.269598 0.850726 0.132309
H48   H     H_    0.205980 0.269910 0.148924 0.129067
H49   H     H_    0.821442 0.289893 0.195985 0.165882
H50   H     H_    0.180002 0.289152 0.799485 0.140804
H51   H     H_    0.320003 0.789145 0.200515 0.140834
H52   H     H_    0.678538 0.789852 0.803983 0.165992
N37   N     N_R   0.932741 0.578724 0.366214 0.224593
O9    O     O_R   0.983306 0.518783 0.330553 -0.420152
O10   O     O_R   0.914568 0.616228 0.451892 -0.371746
N38   N     N_R   0.069797 0.574749 0.632207 0.207798
O11   O     O_R   0.998788 0.536628 0.681095 -0.401758
O12   O     O_R   0.127857 0.564830 0.527278 -0.441022
N39   N     N_R   0.430221 0.074750 0.367778 0.207791
O13   O     O_R   0.501233 0.036631 0.318881 -0.401819
O14   O     O_R   0.372165 0.064825 0.472706 -0.441026
N40   N     N_R   0.567166 0.078730 0.633867 0.224602
O15   O     O_R   0.516665 0.018743 0.669508 -0.420209
O16   O     O_R   0.585186 0.116296 0.548310 -0.371782
N41   N     N_R   0.923892 0.225563 0.975626 0.238081
O17   O     O_R   0.967066 0.186424 0.884002 -0.338955
O18   O     O_R   0.911605 0.195132 0.061824 -0.352699
N42   N     N_R   0.076979 0.225575 0.023210 0.239700
O19   O     O_R   0.033259 0.186587 0.114959 -0.337894
O20   O     O_R   0.090363 0.194813 0.936506 -0.354780
N43   N     N_R   0.423036 0.725579 0.976772 0.239665
O21   O     O_R   0.466809 0.686628 0.884992 -0.337927
O22   O     O_R   0.409622 0.694789 0.063478 -0.354745
N44   N     N_R   0.576089 0.725570 0.024399 0.238069
O23   O     O_R   0.532835 0.686493 0.116074 -0.338936
O24   O     O_R   0.588453 0.695071 0.938183 -0.352581

loop_
_geom_bond_atom_site_label_1
_geom_bond_atom_site_label_2
_geom_bond_distance
_ccdc_geom_bond_type
C26   H10   1.069377 S    
C13   C45   1.371254 A    
N35   O5    1.302265 A    
C13   N37   1.436678 S    
C62   H22   1.084343 S    
N33   O1    1.302515 A    
N3    Ni2   1.853740 S    
N30   Ni6   1.832598 S    
C41   C87   1.450473 S    
C29   N29   1.337200 A    
C10   N10   1.343094 A    
N28   Ni7   1.810009 S    
N24   Ni2   1.855580 S    
N7    Ni4   1.855256 S    
C72   C76   1.496311 S    
C21   C45   1.365483 A    
C76   H28   1.111818 S    
C56   C58   1.392729 A    
C28   C40   1.377702 A    
N6    Ni3   1.855256 S    
C82   H42   1.081853 S    
N5    N25   1.391377 A    
N41   O17   1.301563 A    
C71   C75   1.494155 S    
C86   H46   1.084430 S    
C75   H27   1.112768 S    
C6    H50   1.075877 S    
N3    N31   1.391267 A    
C18   N42   1.434509 S    
N32   Ni8   1.832598 S    
N16   Ni7   1.891091 S    
C77   H37   1.113907 S    
C16   N16   1.330995 A    
C73   H25   1.111820 S    
C44   C86   1.450484 S    
C18   N18   1.329092 A    
C20   N44   1.434982 S    
C3    N3    1.321684 A    
C49   C77   1.494405 S    
N44   O24   1.298779 A    
N2    N30   1.391282 A    
C30   N30   1.336890 A    
C1    C33   1.378623 A    
C78   H38   1.111668 S    
C13   N13   1.331032 A    
C64   C68   1.406906 A    
C3    C35   1.379123 A    
C19   C43   1.373616 A    
C25   H9    1.078794 S    
C5    N5    1.331030 A    
N36   O7    1.302555 A    
C49   C53   1.392453 A    
C27   N27   1.331054 A    
C65   C71   1.395765 A    
C7    N7    1.347905 A    
C26   N26   1.331068 A    
C14   N38   1.430866 S    
C80   H40   1.113910 S    
C7    C39   1.392925 A    
N42   O19   1.301626 A    
N37   O10   1.301036 A    
C4    C36   1.378612 A    
C30   H14   1.080986 S    
C51   C71   1.400802 A    
N17   Ni3   1.854990 S    
N22   Ni1   1.855580 S    
C29   H13   1.080957 S    
N8    N28   1.391390 A    
C79   H39   1.111668 S    
C84   H44   1.082046 S    
C11   N11   1.343098 A    
C20   N20   1.329755 A    
C34   C83   1.437956 S    
C1    N1    1.322102 A    
C4    N4    1.322089 A    
C64   H24   1.079723 S    
C35   C82   1.437935 S    
C5    C37   1.374829 A    
C36   C81   1.438362 S    
N34   O4    1.300606 A    
C21   N21   1.332014 A    
N39   O13   1.300460 A    
N33   O2    1.300696 A    
C82   C88   1.342776 D    
C81   H41   1.082049 S    
N26   Ni5   1.810009 S    
N31   Ni7   1.832588 S    
C2    N2    1.321690 A    
C75   C79   1.508626 S    
N25   Ni6   1.810022 S    
C5    H49   1.075633 S    
C26   C38   1.378347 A    
C15   N39   1.430868 S    
N27   Ni8   1.810022 S    
C50   C78   1.507447 S    
C31   C35   1.392465 A    
C88   H48   1.084424 S    
N13   N21   1.365586 A    
C8    H52   1.075631 S    
C31   H15   1.080987 S    
N14   Ni5   1.891091 S    
C59   C63   1.371871 A    
N40   O15   1.300794 A    
C14   N14   1.342111 A    
N15   N23   1.365586 A    
N13   Ni6   1.891081 S    
C10   C42   1.381600 A    
N2    Ni1   1.853738 S    
C8    N8    1.331061 A    
C9    C41   1.381483 A    
N19   Ni4   1.854990 S    
C27   C39   1.378341 A    
N38   O12   1.301105 A    
N15   Ni8   1.891081 S    
C74   C78   1.508630 S    
C25   N25   1.335090 A    
C8    C40   1.374875 A    
N44   O23   1.301575 A    
N8    Ni4   1.855256 S    
C23   H7    1.079832 S    
C12   N12   1.343357 A    
N21   Ni1   1.855579 S    
C78   N34   1.466252 S    
N12   N20   1.365684 A    
C9    H1    1.081434 S    
C31   N31   1.336886 A    
C60   H20   1.080188 S    
C39   C68   1.464299 S    
N5    Ni3   1.855256 S    
C11   H3    1.081449 S    
C61   H21   1.079732 S    
N16   N24   1.365573 A    
C37   C66   1.420524 S    
C48   C56   1.412527 S    
C51   C55   1.403309 A    
N12   Ni8   1.867436 S    
C50   C70   1.400806 A    
C63   H23   1.084387 S    
N43   O21   1.301627 A    
C22   C46   1.387449 A    
C21   H5    1.081231 S    
C2    H30   1.079307 S    
N43   O22   1.298733 A    
N7    N27   1.391377 A    
C22   N22   1.338704 A    
N6    N26   1.391390 A    
C19   N43   1.434506 S    
C32   H16   1.080957 S    
C55   C57   1.404052 A    
C32   C36   1.392048 A    
C20   C44   1.372929 A    
N4    Ni2   1.853738 S    
N39   O14   1.301104 A    
C58   H18   1.084686 S    
N40   O16   1.301028 A    
C74   H34   1.111702 S    
C68   C70   1.395763 A    
C57   H17   1.080185 S    
N42   O20   1.298750 A    
N34   O3    1.302262 A    
C16   C48   1.371265 A    
C84   C86   1.343239 D    
N14   N22   1.365573 A    
C59   H19   1.084724 S    
C75   H35   1.111698 S    
C6    N6    1.347902 A    
C15   N15   1.342116 A    
C12   C44   1.381489 A    
C76   H36   1.111965 S    
N1    N29   1.391267 A    
C2    C34   1.379131 A    
C54   C60   1.404042 A    
C52   C80   1.494373 S    
N10   N18   1.365684 A    
C23   N23   1.338724 A    
C50   C54   1.403308 A    
C52   C56   1.392440 A    
C24   N24   1.332046 A    
C73   C77   1.520107 S    
C6    C38   1.392913 A    
C23   C47   1.387461 A    
C24   C48   1.365525 A    
C63   C67   1.403556 A    
C10   H2    1.081451 S    
C49   C69   1.384189 A    
C17   N41   1.435011 S    
C83   H43   1.081847 S    
C11   C43   1.381604 A    
C66   C72   1.393847 A    
C76   C80   1.520096 S    
C61   C65   1.406905 A    
N38   O11   1.300461 A    
C67   C69   1.393863 A    
C70   C74   1.494167 S    
C19   N19   1.329085 A    
C38   C65   1.464307 S    
C43   C85   1.450363 S    
N35   O6    1.300597 A    
C33   C84   1.438391 S    
C22   H6    1.079831 S    
C27   H11   1.069378 S    
C52   C72   1.384213 A    
C17   C41   1.372915 A    
C28   H12   1.078805 S    
C9    N9    1.343364 A    
C77   N33   1.463270 S    
C12   H4    1.081434 S    
C1    H29   1.078290 S    
C81   C87   1.343237 D    
C79   N35   1.466251 S    
C32   N32   1.337193 A    
C47   C55   1.473444 S    
N18   Ni3   1.854986 S    
N10   Ni6   1.867436 S    
C73   H33   1.111949 S    
N20   Ni4   1.854986 S    
N9    Ni5   1.867449 S    
C4    H32   1.078296 S    
C85   H45   1.084418 S    
C74   H26   1.112771 S    
C15   C47   1.388217 A    
N23   Ni2   1.855579 S    
N11   Ni7   1.867449 S    
C46   C54   1.473411 S    
N29   Ni5   1.832588 S    
N1    Ni1   1.853740 S    
C7    H51   1.075882 S    
C83   C85   1.342774 D    
C17   N17   1.329756 A    
C30   C34   1.392466 A    
N36   O8    1.300680 A    
C69   C73   1.496319 S    
C29   C33   1.392049 A    
C53   C59   1.392762 A    
C3    H31   1.079309 S    
C18   C42   1.373620 A    
C58   C62   1.371825 A    
N11   N19   1.365698 A    
C24   H8    1.081230 S    
C57   C61   1.389249 A    
C28   N28   1.335051 A    
C14   C46   1.388217 A    
N37   O9    1.300796 A    
C80   N36   1.463250 S    
N4    N32   1.391282 A    
C25   C37   1.377736 A    
N9    N17   1.365698 A    
C87   H47   1.084431 S    
C40   C67   1.420439 S    
C60   C64   1.389227 A    
N41   O18   1.298732 A    
C51   C79   1.507470 S    
C62   C66   1.403545 A    
C16   N40   1.436710 S    
C42   C88   1.450361 S    
C45   C53   1.412450 S    
