data_mof_unit_18365.cif
_audit_creation_date              2013-03-05T16:47:26-0500
_audit_creation_method            fapswitch 2.2
_symmetry_space_group_name_H-M    P1
_symmetry_Int_Tables_number       1
_space_group_crystal_system       triclinic
_cell_length_a                    10.957028
_cell_length_b                    8.937766
_cell_length_c                    8.34951
_cell_angle_alpha                 90.001464
_cell_angle_beta                  88.034564
_cell_angle_gamma                 89.999558
_cell_volume                      817.197763529

loop_
_atom_site_label
_atom_site_type_symbol
_atom_site_description
_atom_site_fract_x
_atom_site_fract_y
_atom_site_fract_z
_atom_type_partial_charge
O1    O     O_R   0.500000 0.285340 0.636850 -0.605911
O2    O     O_R   0.500000 0.285340 0.363150 -0.605899
C1    C     C_R   0.500000 0.218996 0.499999 0.931515
O3    O     O_R   0.314790 0.499970 0.636880 -0.569919
O4    O     O_R   0.314790 0.499970 0.363120 -0.554010
O5    O     O_R   0.685210 0.499970 0.636880 -0.554022
O6    O     O_R   0.685210 0.499970 0.363120 -0.569910
N1    N     N_1   0.500000 0.500030 0.073640 0.069306
N2    N     N_1   0.500000 0.500030 0.926360 0.069305
C2    C     C_R   0.258141 0.509286 0.501486 1.047508
C3    C     C_R   0.741857 0.509290 0.498518 1.047497
Zn1   Zn    Zn3+2 0.500000 0.499990 0.682780 1.201434
Zn2   Zn    Zn3+2 0.500000 0.499990 0.317220 1.201445
O7    O     O_R   0.500000 0.714650 0.636900 -0.582168
O8    O     O_R   0.500000 0.714650 0.363100 -0.582187
C4    C     C_R   0.499999 0.781001 0.500001 0.985734
C5    C     C_1   0.500000 0.065412 0.499998 -0.022092
C6    C     C_3   0.065603 0.425489 0.651006 0.359426
C7    C     C_3   0.077128 0.449430 0.334334 0.390298
C8    C     C_3   0.922860 0.449473 0.665705 0.390374
C9    C     C_3   0.934387 0.425447 0.349032 0.359392
C10   C     C_1   0.499999 0.934603 0.500002 0.014570
C11   C     C_3   0.076284 0.702713 0.507996 0.208660
C12   C     C_3   0.923719 0.702716 0.492018 0.208664
C13   C     C_3   0.121570 0.524286 0.500707 -0.550054
C14   C     C_3   0.878426 0.524287 0.499312 -0.550096
N3    N     N_R   0.117317 0.451237 0.809397 0.256311
O9    O     O_R   0.104629 0.348426 0.919160 -0.188704
O10   O     O_R   0.171626 0.573931 0.847103 -0.235739
N4    N     N_R   0.114901 0.543658 0.194025 0.261028
O11   O     O_R   0.219103 0.520593 0.118746 -0.223906
O12   O     O_R   0.049311 0.651499 0.140544 -0.225323
N5    N     N_R   0.885093 0.543749 0.805994 0.261011
O13   O     O_R   0.780876 0.520749 0.881257 -0.223872
O14   O     O_R   0.950718 0.651551 0.859494 -0.225324
N6    N     N_R   0.882629 0.451186 0.190642 0.256292
O15   O     O_R   0.894656 0.348026 0.081094 -0.188423
O16   O     O_R   0.828455 0.573963 0.152911 -0.235753
Cl1   Cl    Cl    0.107855 0.229657 0.621102 -0.308993
Cl2   Cl    Cl    0.150430 0.270246 0.280393 -0.286832
Cl3   Cl    Cl    0.849561 0.270308 0.719718 -0.286704
Cl4   Cl    Cl    0.892175 0.229606 0.379068 -0.308941
N7    N     N_R   0.124020 0.772808 0.655954 0.271890
O17   O     O_R   0.242176 0.785083 0.663496 -0.332780
O18   O     O_R   0.063375 0.868848 0.743825 -0.135329
N8    N     N_R   0.135413 0.800408 0.383446 0.264722
O19   O     O_R   0.238680 0.764255 0.313018 -0.321418
O20   O     O_R   0.117022 0.943855 0.398165 -0.164606
N9    N     N_R   0.864590 0.800419 0.616569 0.264705
O21   O     O_R   0.882999 0.943863 0.601867 -0.164579
O22   O     O_R   0.761300 0.764290 0.686948 -0.321453
N10   N     N_R   0.875987 0.772817 0.344065 0.271932
O23   O     O_R   0.936644 0.868830 0.256180 -0.135313
O24   O     O_R   0.757832 0.785100 0.336516 -0.332758

loop_
_geom_bond_atom_site_label_1
_geom_bond_atom_site_label_2
_geom_bond_distance
_ccdc_geom_bond_type
C12   N10   1.495488 S    
N4    O12   1.291093 A    
N7    O17   1.302950 A    
N1    Zn2   2.033774 S    
O3    Zn1   2.078098 S    
O4    Zn2   2.052267 S    
C5    C10   1.169136 T    
C11   C12   1.681527 S    
N10   O24   1.302953 A    
N9    O22   1.298015 A    
N6    O16   1.291747 A    
N5    O13   1.300732 A    
O4    C2    1.295260 A    
C9    N6    1.474768 S    
O6    C3    1.310866 A    
N7    O18   1.297376 A    
O5    C3    1.295230 A    
C6    C13   1.636424 S    
C8    C14   1.631179 S    
C8    Cl3   1.840626 S    
C8    N5    1.489965 S    
C12   N9    1.489127 S    
C2    C13   1.502645 S    
N6    O15   1.302232 A    
N5    O14   1.291102 A    
C9    C14   1.636447 S    
Zn1   O7    1.956460 S    
C1    C5    1.372697 S    
O2    C1    1.287333 A    
Zn2   O8    1.956441 S    
O5    Zn1   2.052266 S    
N4    O11   1.300739 A    
C7    C13   1.631196 S    
N2    Zn1   2.033774 S    
O7    C4    1.287734 A    
N3    O10   1.291750 A    
C7    Cl2   1.840617 S    
O3    C2    1.310845 A    
C9    Cl4   1.825581 S    
N8    O20   1.302982 A    
O6    Zn2   2.078097 S    
C11   C13   1.670633 S    
C11   N7    1.495504 S    
N10   O23   1.297380 A    
C6    C8    1.579260 S    
N9    O21   1.302983 A    
N3    O9    1.301894 A    
C11   N8    1.489120 S    
O2    Zn2   1.956455 S    
N8    O19   1.298013 A    
C4    C10   1.372857 S    
C6    Cl1   1.825448 S    
C3    C14   1.502625 S    
C7    C9    1.579242 S    
C7    N4    1.489903 S    
O1    Zn1   1.956435 S    
C6    N3    1.474585 S    
O8    C4    1.287726 A    
C12   C14   1.670684 S    
N1    N2    1.229715 T    
O1    C1    1.287325 A    
