data_mof_unit_47582.cif
_audit_creation_date              2012-12-10T20:03:52-0500
_audit_creation_method            fapswitch 2.2
_symmetry_space_group_name_H-M    P1
_symmetry_Int_Tables_number       1
_space_group_crystal_system       triclinic
_cell_length_a                    19.025338
_cell_length_b                    18.430696
_cell_length_c                    10.624182
_cell_angle_alpha                 91.061268
_cell_angle_beta                  90.220294
_cell_angle_gamma                 89.552251
_cell_volume                      3724.59348005

loop_
_atom_site_label
_atom_site_type_symbol
_atom_type_description
_atom_site_fract_x
_atom_site_fract_y
_atom_site_fract_z
_atom_type_partial_charge
C1    C     C_R   0.365331 0.500353 0.497773 0.912508
C2    C     C_R   0.634597 0.499742 0.498990 0.915555
C3    C     C_R   0.709093 0.499182 0.475196 -0.159172
C4    C     C_R   0.290654 0.501412 0.472898 -0.162884
C5    C     C_R   0.963960 0.569713 0.391128 -0.156669
C6    C     C_R   0.036799 0.568097 0.391760 -0.149301
C7    C     C_R   0.072680 0.501414 0.385651 0.173538
C8    C     C_R   0.926551 0.504595 0.389506 0.173050
C9    C     C_R   0.035130 0.436738 0.370481 -0.132318
C10   C     C_R   0.962228 0.438198 0.374576 -0.125442
C11   C     C_R   0.546037 0.726424 0.574945 -0.022548
C12   C     C_R   0.453712 0.725330 0.425180 -0.018391
C13   C     C_R   0.547152 0.802907 0.577174 0.084546
C14   C     C_R   0.452191 0.801776 0.422975 0.084281
C15   C     C_R   0.499578 0.841660 0.500066 0.130405
C16   C     C_R   0.470522 0.962880 0.601098 -0.330158
C17   C     C_R   0.528189 0.960383 0.399132 -0.329919
C18   C     C_R   0.471974 0.039845 0.604296 0.527329
C19   C     C_R   0.526676 0.037271 0.396227 0.525466
C20   C     C_R   0.499384 0.077120 0.500351 0.014392
C21   C     C_R   0.499136 0.499128 0.261855 0.947661
C22   C     C_R   0.494138 0.500614 0.737872 0.949893
C23   C     C_R   0.499400 0.923008 0.500074 0.036919
C24   C     C_R   0.541433 0.197891 0.587485 0.442428
C25   C     C_R   0.457558 0.196815 0.413443 0.443787
C26   C     C_R   0.541990 0.274680 0.582247 -0.155504
C27   C     C_R   0.457515 0.273730 0.418471 -0.147666
C28   C     C_R   0.499469 0.158656 0.500426 0.007661
C29   C     C_2   0.450614 0.447737 0.933662 0.206436
C30   C     C_2   0.443509 0.459354 0.069273 0.205118
C31   C     C_2   0.475342 0.503909 0.868148 -0.406465
C32   C     C_2   0.495670 0.495283 0.128817 -0.370348
C33   C     C_R   0.734210 0.462534 0.368254 -0.274452
C34   C     C_R   0.246153 0.455019 0.536034 -0.283207
C35   C     C_R   0.804776 0.466953 0.336141 0.482435
C36   C     C_R   0.174543 0.455377 0.508815 0.488276
C37   C     C_R   0.851156 0.505373 0.416126 -0.143643
C38   C     C_R   0.148356 0.499270 0.411060 -0.135286
C39   C     C_R   0.825772 0.542785 0.524365 0.519937
C40   C     C_R   0.193411 0.545922 0.346371 0.510307
C41   C     C_R   0.754029 0.539330 0.552665 -0.316533
C42   C     C_R   0.264845 0.546445 0.378647 -0.321549
H1    H     H_    0.446556 0.933520 0.676790 0.159054
H2    H     H_    0.552184 0.929191 0.323250 0.159221
H3    H     H_    0.575989 0.306236 0.643385 0.155619
H4    H     H_    0.423317 0.304640 0.358184 0.148994
H5    H     H_    0.479614 0.557346 0.912802 0.135801
H6    H     H_    0.540723 0.516643 0.079482 0.106932
H7    H     H_    0.698604 0.432372 0.307360 0.172171
H8    H     H_    0.266628 0.419775 0.608282 0.171844
H9    H     H_    0.733322 0.565930 0.636494 0.150344
H10   H     H_    0.301164 0.579478 0.326906 0.158793
H11   H     H_    0.936857 0.621453 0.399689 0.145481
H12   H     H_    0.064922 0.618568 0.404475 0.149967
H13   H     H_    0.062295 0.384955 0.363524 0.170723
H14   H     H_    0.933984 0.387394 0.373129 0.173112
H15   H     H_    0.582090 0.696008 0.633212 0.138781
H16   H     H_    0.417727 0.694060 0.367066 0.137497
N1    N     N_R   0.500000 0.689440 0.500000 -0.123749
N2    N     N_R   0.500000 0.310560 0.500000 -0.126269
O1    O     O_R   0.398180 0.560840 0.499970 -0.621833
O2    O     O_R   0.601820 0.560840 0.500030 -0.619140
O3    O     O_R   0.398180 0.439210 0.499910 -0.613157
O4    O     O_R   0.601820 0.439210 0.500090 -0.607110
O5    O     O_R   0.500000 0.560800 0.319070 -0.621183
O6    O     O_R   0.500000 0.560800 0.680930 -0.623929
O7    O     O_R   0.499990 0.439170 0.319010 -0.604845
O8    O     O_R   0.500010 0.439170 0.680990 -0.608322
Zn1   Zn    Zn3+2 0.500000 0.581210 0.500000 0.934031
Zn2   Zn    Zn3+2 0.500000 0.418790 0.500000 0.941798
C43   C     C_3   0.435331 0.373351 0.877414 -0.822598
H17   H     H_    0.413965 0.336249 0.948641 0.220740
H18   H     H_    0.396139 0.377837 0.800147 0.244912
H19   H     H_    0.484505 0.347629 0.841895 0.237475
C44   C     C_3   0.379414 0.431742 0.136746 -0.854511
H20   H     H_    0.338000 0.414656 0.068770 0.238861
H21   H     H_    0.393779 0.384622 0.194959 0.235255
H22   H     H_    0.356709 0.475466 0.197460 0.229787
C45   C     C_3   0.599560 0.841951 0.660059 -0.918518
H23   H     H_    0.634356 0.803379 0.710416 0.229885
H24   H     H_    0.633078 0.877142 0.601939 0.259184
H25   H     H_    0.571596 0.875908 0.731536 0.244667
C46   C     C_3   0.399519 0.839600 0.340210 -0.918750
H26   H     H_    0.364918 0.800311 0.289871 0.228740
H27   H     H_    0.365822 0.876346 0.398424 0.259259
H28   H     H_    0.427258 0.871782 0.268731 0.244971
O9    O     O_3   0.441614 0.080614 0.701700 -0.588938
C47   C     C_3   0.459317 0.052812 0.820826 -0.313686
H29   H     H_    0.515215 0.034555 0.826341 0.164048
H30   H     H_    0.423311 0.008226 0.845712 0.162467
H31   H     H_    0.452129 0.096690 0.892633 0.173465
O10   O     O_3   0.556902 0.075446 0.298730 -0.588202
C48   C     C_3   0.537315 0.046474 0.179772 -0.307015
H32   H     H_    0.481045 0.030159 0.175941 0.164931
H33   H     H_    0.572137 0.000174 0.152821 0.160704
H34   H     H_    0.544507 0.088986 0.108470 0.174229
O11   O     O_3   0.585209 0.159382 0.667967 -0.589346
C49   C     C_3   0.585499 0.190263 0.790640 -0.294891
H35   H     H_    0.532162 0.208367 0.821585 0.157820
H36   H     H_    0.623394 0.235700 0.797252 0.163902
H37   H     H_    0.603556 0.148316 0.857232 0.185715
O12   O     O_3   0.413409 0.157313 0.333454 -0.589516
C50   C     C_3   0.410349 0.186979 0.211884 -0.301484
H38   H     H_    0.462723 0.205191 0.178699 0.160346
H39   H     H_    0.371312 0.232035 0.208936 0.163223
H40   H     H_    0.392135 0.144222 0.144810 0.183866
O13   O     O_3   0.828749 0.431171 0.228997 -0.603288
C51   C     C_3   0.820613 0.477948 0.126394 -0.298080
H41   H     H_    0.851606 0.528490 0.140380 0.158785
H42   H     H_    0.764241 0.491387 0.109573 0.152469
H43   H     H_    0.840796 0.449865 0.040490 0.204512
O14   O     O_3   0.130489 0.411221 0.576009 -0.607395
C52   C     C_3   0.110195 0.448690 0.687084 -0.274491
H44   H     H_    0.081886 0.500150 0.665687 0.168906
H45   H     H_    0.156259 0.459777 0.749230 0.159121
H46   H     H_    0.073502 0.414057 0.739687 0.203021
O15   O     O_3   0.873105 0.575273 0.607442 -0.598228
C53   C     C_3   0.852782 0.647625 0.635493 -0.346313
H47   H     H_    0.812655 0.649461 0.711120 0.170397
H48   H     H_    0.833527 0.676737 0.550857 0.150426
H49   H     H_    0.899463 0.677252 0.671490 0.195869
O16   O     O_3   0.167122 0.584676 0.245087 -0.597116
C54   C     C_3   0.190360 0.657296 0.248732 -0.339806
H50   H     H_    0.243107 0.661451 0.205171 0.171762
H51   H     H_    0.190546 0.681120 0.345941 0.150462
H52   H     H_    0.153568 0.690381 0.191884 0.196892

loop_
_geom_bond_atom_site_label_1
_geom_bond_atom_site_label_2
_ccdc_geom_bond_type
C30   C32   D    
O9    C47   S    
C13   C45   S    
C48   H32   S    
C19   C20   A    
O11   C49   S    
C54   H50   S    
C39   C41   A    
C25   C28   A    
C17   C23   A    
C5    H11   S    
C35   C37   A    
C24   C26   A    
C27   N2    A    
C5    C6    A    
C25   O12   S    
C54   H51   S    
O6    Zn1   S    
C3    C33   A    
C33   H7    S    
C51   H41   S    
C53   H47   S    
C22   O6    A    
C19   O10   S    
C26   H3    S    
C17   C19   A    
C12   N1    A    
C36   O14   S    
O13   C51   S    
O3    Zn2   S    
C9    H13   S    
O4    Zn2   S    
C10   H14   S    
C9    C10   A    
C18   C20   A    
C52   H46   S    
C12   H16   S    
C40   C42   A    
C48   H33   S    
C31   H5    S    
C21   O7    A    
C32   H6    S    
C14   C46   S    
C6    H12   S    
C11   N1    A    
C1    O3    A    
O14   C52   S    
C2    O4    A    
C21   C32   S    
C4    C34   A    
C34   H8    S    
C22   C31   S    
C24   O11   S    
C43   H18   S    
C54   H52   S    
C20   C28   S    
C39   O15   S    
O2    Zn1   S    
C53   H49   S    
C44   H20   S    
C29   C30   S    
C43   H19   S    
C46   H26   S    
C47   H31   S    
N2    Zn2   S    
C29   C31   D    
C50   H39   S    
C44   H21   S    
C16   H1    S    
C22   O8    A    
N1    Zn1   S    
C27   H4    S    
C16   C18   A    
C46   H27   S    
C47   H30   S    
C48   H34   S    
C49   H36   S    
C13   C15   A    
C5    C8    A    
C25   C27   A    
C8    C37   S    
C45   H24   S    
C52   H44   S    
O1    Zn1   S    
C7    C9    A    
C3    C41   A    
C21   O5    A    
C24   C28   A    
C12   C14   A    
C1    O1    A    
C45   H25   S    
C6    C7    A    
C16   C23   A    
C49   H37   S    
C40   O16   S    
C18   O9    S    
C51   H43   S    
C1    C4    S    
O7    Zn2   S    
C36   C38   A    
C2    C3    S    
C17   H2    S    
C43   H17   S    
C37   C39   A    
O15   C53   S    
C38   C40   A    
C30   C44   S    
C11   C13   A    
C4    C42   A    
O5    Zn1   S    
C15   C23   S    
O10   C48   S    
C33   C35   A    
C7    C38   S    
C51   H42   S    
C50   H40   S    
C34   C36   A    
O12   C50   S    
C44   H22   S    
C53   H48   S    
C35   O13   S    
C45   H23   S    
C46   H28   S    
C47   H29   S    
C8    C10   A    
C49   H35   S    
C50   H38   S    
O8    Zn2   S    
C14   C15   A    
C52   H45   S    
O16   C54   S    
C11   H15   S    
C26   N2    A    
C41   H9    S    
C2    O2    A    
C42   H10   S    
C29   C43   S    
