data_mof_unit_36347.cif
_audit_creation_date              2012-12-10T19:09:31-0500
_audit_creation_method            fapswitch 2.2
_symmetry_space_group_name_H-M    P1
_symmetry_Int_Tables_number       1
_space_group_crystal_system       triclinic
_cell_length_a                    15.343419
_cell_length_b                    15.090198
_cell_length_c                    9.794571
_cell_angle_alpha                 90.466399
_cell_angle_beta                  89.673962
_cell_angle_gamma                 90.065613
_cell_volume                      2267.67503696

loop_
_atom_site_label
_atom_site_type_symbol
_atom_type_description
_atom_site_fract_x
_atom_site_fract_y
_atom_site_fract_z
_atom_type_partial_charge
C1    C     C_R   0.124712 0.382129 0.499341 0.790188
C2    C     C_R   0.882254 0.623547 0.500328 0.852427
C3    C     C_R   0.382435 0.876298 0.499861 0.851849
C4    C     C_R   0.382024 0.123636 0.500528 0.855834
C5    C     C_3   0.817002 0.258869 0.639392 -0.365893
C6    C     C_3   0.839902 0.234323 0.390520 -0.383022
C7    C     C_3   0.814742 0.736485 0.358288 -0.409004
C8    C     C_3   0.842927 0.767968 0.600634 -0.421852
C9    C     C_3   0.340930 0.735235 0.605306 -0.415349
C10   C     C_3   0.317816 0.758867 0.360237 -0.406922
C11   C     C_3   0.315639 0.238596 0.359978 -0.354116
C12   C     C_R   0.124466 0.618458 0.499768 0.786227
C13   C     C_3   0.339846 0.266564 0.606962 -0.393600
C14   C     C_3   0.267085 0.665696 0.611638 -0.206906
C15   C     C_3   0.246902 0.687339 0.357769 -0.192852
C16   C     C_3   0.249214 0.314206 0.359704 -0.184427
C17   C     C_3   0.265704 0.335997 0.613492 -0.206194
C18   C     C_3   0.749507 0.183899 0.639768 -0.170767
C19   C     C_3   0.766717 0.163667 0.385485 -0.211267
C20   C     C_3   0.746516 0.810418 0.357132 -0.202086
C21   C     C_3   0.767690 0.835836 0.610360 -0.215617
C22   C     C_3   0.727347 0.347011 0.471858 -0.381399
C23   C     C_R   0.624504 0.881535 0.499357 0.786891
C24   C     C_3   0.727742 0.652369 0.536008 -0.379419
C25   C     C_3   0.227527 0.848430 0.530660 -0.382998
C26   C     C_3   0.226911 0.152459 0.532574 -0.382000
C27   C     C_3   0.817631 0.305303 0.499866 0.053754
C28   C     C_3   0.817667 0.693732 0.499893 0.100961
C29   C     C_3   0.317842 0.806088 0.499536 0.099066
C30   C     C_3   0.317092 0.194056 0.500840 0.054180
C31   C     C_3   0.195496 0.685925 0.499136 -0.018721
C32   C     C_3   0.195808 0.315209 0.498665 -0.018428
C33   C     C_3   0.696577 0.183780 0.501036 -0.021654
C34   C     C_R   0.625202 0.117201 0.500290 0.786938
C35   C     C_3   0.695550 0.814023 0.498532 -0.018105
C36   C     C_3   0.155130 0.778310 0.526650 -0.325799
C37   C     C_3   0.154975 0.222661 0.523924 -0.334537
C38   C     C_3   0.655724 0.276271 0.477798 -0.333425
C39   C     C_3   0.655158 0.721994 0.527621 -0.329994
C40   C     C_3   0.019971 0.411889 0.079014 0.402237
C41   C     C_3   0.017863 0.410952 0.917822 0.395589
C42   C     C_3   0.063001 0.562376 0.919945 0.406413
C43   C     C_3   0.060956 0.564101 0.081017 0.420519
C44   C     C_3   0.564583 0.940061 0.079641 0.423144
C45   C     C_3   0.911583 0.523541 0.081828 -0.278219
C46   C     C_3   0.569078 0.945125 0.919040 0.411598
C47   C     C_3   0.507219 0.090634 0.920647 0.391060
C48   C     C_3   0.515748 0.089614 0.081388 0.401183
C49   C     C_2   0.237359 0.664170 0.758389 1.027451
C50   C     C_2   0.198017 0.703810 0.227900 1.027873
C51   C     C_2   0.200895 0.305830 0.227245 0.941935
C52   C     C_2   0.231610 0.339168 0.758404 0.997924
C53   C     C_2   0.699507 0.192350 0.771825 0.941232
C54   C     C_2   0.732807 0.158952 0.241145 0.995804
C55   C     C_2   0.697002 0.795340 0.227361 1.037460
C56   C     C_3   0.912312 0.526020 0.919952 -0.278294
C57   C     C_2   0.738875 0.835824 0.757617 1.062070
C58   C     C_3   0.413042 0.971168 0.080943 -0.275592
C59   C     C_3   0.415533 0.964457 0.919190 -0.266916
C60   C     C_R   0.882314 0.376072 0.499824 0.857864
F1    F     F_    0.964910 0.347594 0.131330 -0.593096
F2    F     F_    0.957575 0.349457 0.871199 -0.603275
F3    F     F_    0.047791 0.646541 0.869920 -0.595457
F4    F     F_    0.038169 0.647892 0.126632 -0.598567
F5    F     F_    0.543912 0.854609 0.117868 -0.602850
F6    F     F_    0.563591 0.860386 0.864819 -0.595523
F7    F     F_    0.437260 0.142916 0.882963 -0.599244
F8    F     F_    0.459919 0.151364 0.139736 -0.598596
H1    H     H_    0.803106 0.308990 0.721074 0.238318
H2    H     H_    0.902988 0.201941 0.415458 0.160671
H3    H     H_    0.879665 0.764405 0.330137 0.198995
H4    H     H_    0.903360 0.801912 0.565035 0.160347
H5    H     H_    0.403328 0.701998 0.576773 0.159229
H6    H     H_    0.382499 0.727922 0.339028 0.190739
H7    H     H_    0.381323 0.265400 0.333824 0.205921
H8    H     H_    0.402091 0.299665 0.577846 0.154240
H9    H     H_    0.295816 0.599530 0.587321 0.109569
H10   H     H_    0.279582 0.621676 0.346106 0.122514
H11   H     H_    0.286097 0.377889 0.354946 0.122351
H12   H     H_    0.849840 0.266235 0.289551 0.266412
H13   H     H_    0.294661 0.402224 0.591483 0.112092
H14   H     H_    0.785662 0.119871 0.644084 0.131961
H15   H     H_    0.796517 0.098030 0.407894 0.109938
H16   H     H_    0.781536 0.874878 0.346578 0.136261
H17   H     H_    0.794846 0.902757 0.587809 0.105413
H18   H     H_    0.712949 0.399879 0.548712 0.167116
H19   H     H_    0.727303 0.378516 0.369462 0.208064
H20   H     H_    0.712765 0.596803 0.464326 0.160981
H21   H     H_    0.729321 0.624260 0.640642 0.209545
H22   H     H_    0.228142 0.880785 0.633208 0.199614
H23   H     H_    0.800584 0.683689 0.280911 0.191206
H24   H     H_    0.213090 0.900734 0.454500 0.169189
H25   H     H_    0.212722 0.097828 0.458820 0.160350
H26   H     H_    0.226996 0.123210 0.636537 0.218837
H27   H     H_    0.116696 0.779743 0.622694 0.230963
H28   H     H_    0.106261 0.795425 0.448605 0.211790
H29   H     H_    0.108520 0.204406 0.442301 0.217990
H30   H     H_    0.114908 0.222450 0.618604 0.213241
H31   H     H_    0.608212 0.293033 0.559630 0.212610
H32   H     H_    0.616976 0.277253 0.382470 0.215384
H33   H     H_    0.607624 0.702794 0.448134 0.210323
H34   H     H_    0.860004 0.739343 0.701645 0.213427
H35   H     H_    0.615716 0.722711 0.622839 0.229517
H36   H     H_    0.085596 0.395209 0.110481 0.068466
H37   H     H_    0.081654 0.388642 0.879292 0.081436
H38   H     H_    0.128142 0.540967 0.885930 0.118953
H39   H     H_    0.126305 0.546859 0.119904 0.091631
H40   H     H_    0.628615 0.958642 0.122775 0.128042
H41   H     H_    0.632031 0.974863 0.888842 0.113041
H42   H     H_    0.564516 0.121778 0.876737 0.096556
H43   H     H_    0.582336 0.110598 0.108551 0.066183
H44   H     H_    0.861521 0.475505 0.117561 0.215144
H45   H     H_    0.353286 0.767238 0.706417 0.207587
H46   H     H_    0.860458 0.481654 0.879398 0.211101
H47   H     H_    0.894547 0.593717 0.885820 0.220917
H48   H     H_    0.890083 0.589052 0.121949 0.214635
H49   H     H_    0.393700 0.905917 0.123073 0.214242
H50   H     H_    0.406566 0.894093 0.887527 0.220520
H51   H     H_    0.358987 0.000448 0.875843 0.213003
H52   H     H_    0.360907 0.018084 0.113596 0.213090
H53   H     H_    0.185384 0.733784 0.916061 0.394185
H54   H     H_    0.121888 0.787690 0.121023 0.379385
H55   H     H_    0.110545 0.239626 0.115814 0.356407
H56   H     H_    0.308356 0.809111 0.278588 0.191688
H57   H     H_    0.179587 0.271579 0.916026 0.357780
H58   H     H_    0.615457 0.265037 0.887656 0.343899
H59   H     H_    0.683951 0.225410 0.081328 0.357255
H60   H     H_    0.620073 0.712290 0.117943 0.380361
H61   H     H_    0.693507 0.762560 0.915015 0.395520
H62   H     H_    0.300088 0.187308 0.280886 0.231892
H63   H     H_    0.351706 0.236154 0.708261 0.269651
H64   H     H_    0.882635 0.231077 0.661671 0.196715
N1    N     N_3   0.998760 0.500000 0.138610 -0.184987
N2    N     N_3   0.998760 0.500000 0.861390 -0.184139
N3    N     N_3   0.498760 0.000000 0.138610 -0.184641
N4    N     N_3   0.498760 0.000000 0.861390 -0.189955
O1    O     O_R   0.092530 0.407440 0.616040 -0.621429
O2    O     O_R   0.907330 0.407420 0.383960 -0.572851
O3    O     O_R   0.907330 0.592580 0.383960 -0.615224
O4    O     O_R   0.907330 0.592580 0.616040 -0.614904
O5    O     O_R   0.407330 0.907420 0.616040 -0.621976
O6    O     O_R   0.407330 0.907420 0.383960 -0.618038
O7    O     O_R   0.407330 0.092580 0.383960 -0.575775
O8    O     O_R   0.407330 0.092580 0.616040 -0.573031
O9    O     O_2   0.261590 0.604054 0.831758 -0.574287
O10   O     O_R   0.196098 0.738438 0.814924 -0.787081
O11   O     O_2   0.222743 0.665346 0.124724 -0.635583
O12   O     O_R   0.092530 0.407440 0.383960 -0.610438
O13   O     O_R   0.140014 0.774897 0.218159 -0.782487
O14   O     O_2   0.228221 0.346742 0.128571 -0.631476
O15   O     O_R   0.133508 0.244080 0.212242 -0.791650
O16   O     O_2   0.239017 0.407237 0.825862 -0.596371
O17   O     O_R   0.197968 0.262454 0.817977 -0.799176
O18   O     O_2   0.715669 0.141054 0.864311 -0.643813
O19   O     O_R   0.642155 0.263284 0.793004 -0.812691
O20   O     O_2   0.739867 0.090079 0.175398 -0.618641
O21   O     O_R   0.699527 0.235055 0.180164 -0.803349
O22   O     O_2   0.721022 0.834991 0.125798 -0.616404
O23   O     O_R   0.092530 0.592560 0.383960 -0.593306
O24   O     O_R   0.638177 0.724800 0.215527 -0.788054
O25   O     O_2   0.758930 0.897988 0.831638 -0.590729
O26   O     O_R   0.703291 0.758785 0.813442 -0.788975
O27   O     O_R   0.092530 0.592560 0.616040 -0.573630
O28   O     O_R   0.592530 0.907440 0.616040 -0.568309
O29   O     O_R   0.592530 0.907440 0.383960 -0.589144
O30   O     O_R   0.592530 0.092560 0.383960 -0.612641
O31   O     O_R   0.592530 0.092560 0.616040 -0.625772
O32   O     O_R   0.907330 0.407420 0.616040 -0.583350
Zn1   Zn    Zn3+2 0.999890 0.500000 0.654960 1.023966
Zn2   Zn    Zn3+2 0.999890 0.500000 0.345040 1.023564
Zn3   Zn    Zn3+2 0.499890 0.000000 0.654960 1.021189
Zn4   Zn    Zn3+2 0.499890 0.000000 0.345040 1.023497

loop_
_geom_bond_atom_site_label_1
_geom_bond_atom_site_label_2
_ccdc_geom_bond_type
C50   O11   D    
C26   H26   S    
O30   Zn4   S    
O4    Zn1   S    
O23   Zn2   S    
C47   N4    S    
O2    Zn2   S    
C48   N3    S    
C3    O5    A    
C16   C51   S    
C14   C31   S    
N1    Zn2   S    
C24   H21   S    
C4    O7    A    
C37   H29   S    
C45   H44   S    
C6    C19   S    
O8    Zn3   S    
C25   H22   S    
C60   O32   A    
C41   H37   S    
C11   C30   S    
C2    O3    A    
O7    Zn4   S    
C46   F6    S    
C10   H56   S    
C27   C60   S    
C54   O20   D    
C15   C50   S    
C14   C49   S    
C22   C38   S    
C59   N4    S    
O5    Zn3   S    
C24   C39   S    
O3    Zn2   S    
C43   N1    S    
C14   H9    S    
C3    C29   S    
C37   H30   S    
C5    H1    S    
C18   C53   S    
C23   O29   A    
C20   C35   S    
C55   O22   D    
C57   O26   S    
C47   C48   S    
C51   O14   D    
C44   C46   S    
N2    Zn1   S    
C49   O10   S    
O12   Zn2   S    
C13   H8    S    
C36   H27   S    
H59   O21   S    
O1    Zn1   S    
C9    C29   S    
H58   O19   S    
C26   H25   S    
C22   H18   S    
C51   O15   S    
C53   O18   D    
C5    C27   S    
C44   F5    S    
C42   N2    S    
C3    O6    A    
C9    H5    S    
C41   F2    S    
C20   C55   S    
C19   H15   S    
C17   C52   S    
C47   F7    S    
C41   N2    S    
H57   O17   S    
C43   F4    S    
C39   H33   S    
C21   H17   S    
C44   H40   S    
C25   C29   S    
H55   O15   S    
C8    H4    S    
C44   N3    S    
H54   O13   S    
C13   C30   S    
C45   C56   S    
C38   H32   S    
C19   C33   S    
O31   Zn3   S    
C5    C18   S    
C5    H64   S    
C52   O17   S    
C32   C37   S    
C58   H49   S    
C7    C28   S    
C35   C39   S    
C9    C14   S    
C21   C57   S    
C40   H36   S    
C42   H38   S    
C11   C16   S    
C36   H28   S    
C50   O13   S    
C6    H12   S    
C6    C27   S    
N4    Zn3   S    
C52   O16   D    
C7    H23   S    
C58   H52   S    
C8    C21   S    
C13   H63   S    
C49   O9    D    
C43   H39   S    
C22   H19   S    
C48   F8    S    
C15   C31   S    
C24   H20   S    
C19   C54   S    
O32   Zn1   S    
C53   O19   S    
C59   H50   S    
C23   C35   S    
C22   C27   S    
C20   H16   S    
C12   C31   S    
C8    C28   S    
C42   C43   S    
C34   O31   A    
C11   H62   S    
C1    O1    A    
H60   O24   S    
O6    Zn4   S    
C23   O28   A    
C6    H2    S    
C40   C41   S    
C25   H24   S    
C59   H51   S    
C31   C36   S    
C24   C28   S    
C38   H31   S    
C1    O12   A    
C4    O8    A    
C56   N2    S    
C26   C37   S    
C39   H35   S    
C21   C35   S    
C13   C17   S    
C58   N3    S    
C16   C32   S    
C47   H42   S    
C40   N1    S    
C45   N1    S    
C33   C38   S    
C55   O24   S    
C10   C15   S    
C16   H11   S    
C9    H45   S    
C58   C59   S    
C2    O4    A    
C11   H7    S    
C12   O27   A    
C7    H3    S    
C10   H6    S    
C10   C29   S    
C45   H48   S    
O29   Zn4   S    
N3    Zn4   S    
C18   H14   S    
C56   H47   S    
C33   C34   S    
H61   O26   S    
C17   H13   S    
C1    C32   S    
C12   O23   A    
O27   Zn1   S    
C18   C33   S    
C40   F1    S    
C25   C36   S    
C46   N4    S    
C15   H10   S    
C48   H43   S    
C57   O25   D    
C7    C20   S    
C46   H41   S    
C17   C32   S    
C56   H46   S    
H53   O10   S    
O28   Zn3   S    
C2    C28   S    
C34   O30   A    
C8    H34   S    
C42   F3    S    
C4    C30   S    
C60   O2    A    
C54   O21   S    
C26   C30   S    
