data_mof_unit_33816.cif
_audit_creation_date              2012-12-10T18:45:05-0500
_audit_creation_method            fapswitch 2.2
_symmetry_space_group_name_H-M    P1
_symmetry_Int_Tables_number       1
_space_group_crystal_system       triclinic
_cell_length_a                    10.794086
_cell_length_b                    9.865194
_cell_length_c                    10.656319
_cell_angle_alpha                 92.754604
_cell_angle_beta                  91.210019
_cell_angle_gamma                 91.628955
_cell_volume                      1132.68963928

loop_
_atom_site_label
_atom_site_type_symbol
_atom_type_description
_atom_site_fract_x
_atom_site_fract_y
_atom_site_fract_z
_atom_type_partial_charge
C1    C     C_R   0.259361 0.498144 0.505787 0.911672
C2    C     C_R   0.481732 0.503482 0.738666 0.925092
C3    C     C_R   0.656557 0.673029 0.107896 0.059761
C4    C     C_R   0.496954 0.763084 0.920724 0.109938
C5    C     C_R   0.672621 0.804404 0.064702 0.169709
C6    C     C_R   0.580926 0.855356 0.985491 0.167032
C7    C     C_R   0.502189 0.623603 0.946303 -0.012871
C8    C     C_R   0.555389 0.590855 0.059496 -0.022462
C9    C     C_R   0.494602 0.487654 0.123505 -0.166574
C10   C     C_R   0.450809 0.514608 0.870847 -0.229899
C11   C     C_R   0.404547 0.400750 0.059330 0.154731
C12   C     C_R   0.739114 0.501066 0.487111 0.923068
C13   C     C_R   0.393106 0.405392 0.928543 0.149305
C14   C     C_R   0.056376 0.373001 0.473596 0.169976
C15   C     C_R   0.930762 0.380457 0.444914 0.122783
C16   C     C_R   0.871337 0.503350 0.468641 -0.203940
C17   C     C_R   0.125171 0.494982 0.506240 -0.193190
C18   C     C_R   0.940241 0.624932 0.490115 0.116508
C19   C     C_R   0.064332 0.619768 0.521621 0.055685
C20   C     C_R   0.576426 0.079318 0.579853 -0.033872
C21   C     C_R   0.427135 0.066170 0.417418 -0.044893
C22   C     C_R   0.578286 0.936140 0.578792 0.163292
C23   C     C_R   0.425532 0.923313 0.417226 0.190399
C24   C     C_R   0.499484 0.496238 0.258844 0.898041
H1    H     H_    0.637661 0.139810 0.643323 0.182760
H2    H     H_    0.175091 0.792004 0.516715 0.247349
H3    H     H_    0.369654 0.115927 0.351311 0.193430
H4    H     H_    0.736605 0.517054 0.198601 0.188980
H5    H     H_    0.737458 0.669738 0.278541 0.223164
H6    H     H_    0.330508 0.737455 0.823995 0.190988
H7    H     H_    0.431350 0.849967 0.764683 0.221670
H8    H     H_    0.913776 0.823564 0.541015 0.253728
H9    H     H_    0.926783 0.789756 0.386839 0.225275
H10   H     H_    0.175367 0.715426 0.658997 0.202583
I1    I     I_    0.273056 0.280269 0.155828 -0.204996
I2    I     I_    0.274542 0.263942 0.821051 -0.207690
I3    I     I_    0.838793 0.916863 0.112093 -0.179060
I4    I     I_    0.568104 0.068246 0.965020 -0.247063
I5    I     I_    0.125840 0.171439 0.486175 -0.242366
I6    I     I_    0.836575 0.213761 0.341905 -0.215999
I7    I     I_    0.709840 0.853235 0.699710 -0.290634
I8    I     I_    0.306077 0.824319 0.278707 -0.261071
N1    N     N_R   0.500000 0.857200 0.500000 -0.137557
N2    N     N_R   0.500000 0.142810 0.500000 -0.111160
N3    N     N_3   0.748675 0.621695 0.190553 -0.414312
N4    N     N_3   0.396556 0.814283 0.847752 -0.382128
N5    N     N_3   0.887286 0.753792 0.468065 -0.398395
N6    N     N_3   0.122233 0.740275 0.580770 -0.427552
O1    O     O_R   0.316770 0.614620 0.499990 -0.632706
O2    O     O_R   0.683230 0.614620 0.500010 -0.584002
O3    O     O_R   0.316800 0.385290 0.500000 -0.583191
O4    O     O_R   0.683200 0.385290 0.500000 -0.596917
O5    O     O_R   0.500010 0.614690 0.316770 -0.600288
O6    O     O_R   0.499990 0.614690 0.683230 -0.623214
O7    O     O_R   0.500040 0.385360 0.316770 -0.596265
O8    O     O_R   0.499960 0.385360 0.683230 -0.585222
Zn1   Zn    Zn3+2 0.500000 0.653120 0.500000 0.984582
Zn2   Zn    Zn3+2 0.500000 0.346880 0.500000 1.027986

loop_
_geom_bond_atom_site_label_1
_geom_bond_atom_site_label_2
_ccdc_geom_bond_type
C7    C10   A    
C12   O2    A    
C6    I4    S    
C9    C24   S    
C5    I3    S    
C21   N2    A    
C1    O3    A    
H6    N4    S    
C1    C17   S    
C22   N1    A    
H2    N6    S    
C18   N5    S    
C11   I1    S    
C21   H3    S    
O1    Zn1   S    
C7    C8    A    
O3    Zn2   S    
C4    N4    S    
C24   O7    A    
C9    C11   A    
C14   C17   A    
C23   I8    S    
O4    Zn2   S    
C4    C7    A    
C14   I5    S    
C4    C6    A    
C12   O4    A    
C20   C22   A    
C10   C13   A    
C18   C19   A    
C21   C23   A    
C5    C6    A    
H9    N5    S    
H8    N5    S    
C15   I6    S    
C22   I7    S    
H10   N6    S    
C20   H1    S    
N1    Zn1   S    
C15   C16   A    
C2    C10   S    
C11   C13   A    
C23   N1    A    
C13   I2    S    
C16   C18   A    
C3    C8    A    
C2    O6    A    
O7    Zn2   S    
N2    Zn2   S    
H4    N3    S    
C3    N3    S    
C14   C15   A    
C17   C19   A    
C2    O8    A    
C20   N2    A    
C24   O5    A    
C19   N6    S    
O2    Zn1   S    
C1    O1    A    
H7    N4    S    
H5    N3    S    
C12   C16   S    
O8    Zn2   S    
C8    C9    A    
C3    C5    A    
O6    Zn1   S    
O5    Zn1   S    
