data_mof_unit_25536.cif
_audit_creation_date              2012-12-10T20:41:44-0500
_audit_creation_method            fapswitch 2.2
_symmetry_space_group_name_H-M    P1
_symmetry_Int_Tables_number       1
_space_group_crystal_system       triclinic
_cell_length_a                    14.607925
_cell_length_b                    15.684193
_cell_length_c                    9.886362
_cell_angle_alpha                 89.885568
_cell_angle_beta                  88.115153
_cell_angle_gamma                 90.014551
_cell_volume                      2263.86898479

loop_
_atom_site_label
_atom_site_type_symbol
_atom_type_description
_atom_site_fract_x
_atom_site_fract_y
_atom_site_fract_z
_atom_type_partial_charge
C1    C     C_R   0.384257 0.875933 0.500996 0.956425
C2    C     C_R   0.383652 0.123335 0.500589 0.938515
C3    C     C_R   0.884257 0.375934 0.500997 0.956433
C4    C     C_R   0.883652 0.623335 0.500589 0.938510
C5    C     C_3   0.234431 0.180046 0.729031 0.207934
C6    C     C_3   0.257361 0.797787 0.751610 0.170475
C7    C     C_3   0.734426 0.680042 0.729026 0.207935
C8    C     C_3   0.757364 0.297784 0.751613 0.170477
C9    C     C_R   0.425404 0.029185 0.074718 0.087844
C10   C     C_R   0.925404 0.529186 0.074718 0.087843
C11   C     C_R   0.578330 0.983182 0.069001 0.561225
C12   C     C_R   0.078330 0.483182 0.069001 0.561216
C13   C     C_R   0.577060 0.981053 0.923886 -0.208196
C14   C     C_R   0.077060 0.481052 0.923886 -0.208194
C15   C     C_R   0.426137 0.029309 0.932370 0.065385
C16   C     C_R   0.926137 0.529310 0.932370 0.065390
C17   C     C_3   0.332781 0.993311 0.930832 -0.488149
C18   C     C_3   0.832781 0.493311 0.930832 -0.488149
C19   C     C_3   0.328037 0.997582 0.084654 0.867917
C20   C     C_3   0.828037 0.497584 0.084654 0.867915
C21   C     C_R   0.623734 0.116391 0.498744 0.915283
C22   C     C_R   0.623466 0.883485 0.498869 0.919234
C23   C     C_R   0.123734 0.616391 0.498744 0.915274
C24   C     C_R   0.123465 0.383485 0.498869 0.919240
C25   C     C_R   0.287708 0.227491 0.621376 -0.051323
C26   C     C_R   0.297263 0.762720 0.622438 -0.009577
C27   C     C_R   0.787705 0.727489 0.621376 -0.051318
C28   C     C_R   0.797263 0.262720 0.622438 -0.009581
C29   C     C_R   0.330582 0.200421 0.501166 -0.161472
C30   C     C_R   0.334252 0.796486 0.502044 -0.153106
C31   C     C_R   0.830583 0.700421 0.501167 -0.161479
C32   C     C_R   0.834251 0.296486 0.502044 -0.153111
C33   C     C_R   0.321732 0.250545 0.382801 0.496569
C34   C     C_R   0.323732 0.748324 0.382142 0.511691
C35   C     C_R   0.821737 0.750549 0.382804 0.496571
C36   C     C_R   0.823730 0.248326 0.382141 0.511685
C37   C     C_R   0.753843 0.812951 0.381741 -0.301012
C38   C     C_R   0.753717 0.187640 0.379429 -0.340047
C39   C     C_R   0.253840 0.312948 0.381739 -0.301024
C40   C     C_R   0.253718 0.687639 0.379431 -0.340052
C41   C     C_R   0.700653 0.828398 0.499604 -0.116767
C42   C     C_R   0.703073 0.169146 0.498891 -0.114520
C43   C     C_R   0.200653 0.328398 0.499603 -0.116761
C44   C     C_R   0.203072 0.669147 0.498891 -0.114523
C45   C     C_R   0.725797 0.792535 0.621657 -0.039023
C46   C     C_R   0.735282 0.198096 0.621328 -0.018933
C47   C     C_R   0.225800 0.292538 0.621657 -0.039023
C48   C     C_R   0.235280 0.698097 0.621328 -0.018933
C49   C     C_3   0.669648 0.755988 0.737572 0.231138
C50   C     C_3   0.691470 0.222210 0.755098 0.224716
C51   C     C_3   0.169655 0.255994 0.737579 0.231140
C52   C     C_3   0.191467 0.722213 0.755096 0.224717
H1    H     H_    0.740361 0.845697 0.288036 0.227947
H2    H     H_    0.737564 0.157912 0.284400 0.181532
H3    H     H_    0.240355 0.345691 0.288033 0.227946
H4    H     H_    0.237567 0.657909 0.284402 0.181535
H5    H     H_    0.677530 0.793921 0.831390 0.088920
H6    H     H_    0.707412 0.175076 0.835121 0.060568
H7    H     H_    0.177541 0.293928 0.831393 0.088915
H8    H     H_    0.207407 0.675079 0.835121 0.060569
H9    H     H_    0.273813 0.171026 0.821994 0.107857
H10   H     H_    0.307001 0.795733 0.833944 0.086358
H11   H     H_    0.773806 0.671022 0.821992 0.107855
H12   H     H_    0.807005 0.295731 0.833945 0.086361
H13   H     H_    0.637459 0.962589 0.865083 0.151633
H14   H     H_    0.137459 0.462588 0.865083 0.151634
H15   H     H_    0.282933 0.035084 0.882160 0.251924
H16   H     H_    0.336702 0.927786 0.891562 0.215722
H17   H     H_    0.782933 0.535084 0.882158 0.251920
H18   H     H_    0.836702 0.427786 0.891564 0.215722
N1    N     N_R   0.499140 0.000000 0.142800 -0.151803
N2    N     N_R   0.999140 0.500000 0.142800 -0.151805
N3    N     N_R   0.499160 1.000000 0.857150 -0.100388
N4    N     N_R   0.999160 0.500000 0.857150 -0.100388
O1    O     O_R   0.408400 0.908380 0.614690 -0.577543
O2    O     O_R   0.408400 0.091620 0.614690 -0.574211
O3    O     O_R   0.908400 0.408380 0.614690 -0.577544
O4    O     O_R   0.908400 0.591620 0.614690 -0.574209
O5    O     O_R   0.408370 0.908370 0.385350 -0.560162
O6    O     O_R   0.408370 0.091630 0.385350 -0.598626
O7    O     O_R   0.908370 0.408370 0.385350 -0.560156
O8    O     O_R   0.908370 0.591630 0.385350 -0.598632
O9    O     O_R   0.591610 0.091610 0.614650 -0.590476
O10   O     O_R   0.591610 0.908390 0.614650 -0.611712
O11   O     O_R   0.091610 0.591610 0.614650 -0.590476
O12   O     O_R   0.091610 0.408390 0.614650 -0.611710
O13   O     O_R   0.591590 0.091600 0.385310 -0.628803
O14   O     O_R   0.591590 0.908400 0.385310 -0.589143
O15   O     O_R   0.091590 0.591600 0.385310 -0.628807
O16   O     O_R   0.091590 0.408400 0.385310 -0.589143
Zn1   Zn    Zn3+2 0.500010 1.000000 0.653130 1.022032
Zn2   Zn    Zn3+2 0.000010 0.500000 0.653130 1.022032
Zn3   Zn    Zn3+2 0.499980 1.000000 0.346870 1.040319
Zn4   Zn    Zn3+2 0.999980 0.500000 0.346870 1.040314
O17   O     O_3   0.369702 0.232229 0.263622 -0.571655
C53   C     C_3   0.452718 0.278084 0.262537 -0.234955
H19   H     H_    0.492433 0.262393 0.168271 0.197248
H20   H     H_    0.495381 0.259870 0.349338 0.159626
H21   H     H_    0.440092 0.348092 0.262685 0.151251
O18   O     O_3   0.374683 0.764668 0.264878 -0.570873
C54   C     C_3   0.458439 0.720523 0.271912 -0.198207
H22   H     H_    0.498494 0.741925 0.359541 0.168424
H23   H     H_    0.500165 0.734338 0.178649 0.202716
H24   H     H_    0.447138 0.650359 0.276795 0.143505
O19   O     O_3   0.869712 0.732238 0.263628 -0.571657
C55   C     C_3   0.952737 0.778078 0.262570 -0.234938
H25   H     H_    0.992452 0.762399 0.168298 0.197240
H26   H     H_    0.995394 0.759839 0.349365 0.159633
H27   H     H_    0.940125 0.848089 0.262753 0.151245
O20   O     O_3   0.874678 0.264676 0.264876 -0.570873
C56   C     C_3   0.958435 0.220532 0.271901 -0.198187
H28   H     H_    0.998478 0.241894 0.359577 0.168385
H29   H     H_    0.000176 0.234393 0.178667 0.202737
H30   H     H_    0.947134 0.150360 0.276700 0.143511
O21   O     O_3   0.266636 0.062835 0.131229 -0.635197
C57   C     C_3   0.224644 0.046409 0.259468 -0.092308
H31   H     H_    0.268928 0.011092 0.329272 0.195771
H32   H     H_    0.159443 0.011413 0.247380 0.137985
H33   H     H_    0.206810 0.108181 0.307806 0.181210
O22   O     O_3   0.318939 0.916300 0.147803 -0.590701
C58   C     C_3   0.236256 0.874816 0.115013 -0.248954
H34   H     H_    0.252869 0.814946 0.060227 0.190874
H35   H     H_    0.189326 0.913426 0.052756 0.186289
H36   H     H_    0.198592 0.857061 0.210229 0.171981
O23   O     O_3   0.766636 0.562839 0.131227 -0.635203
C59   C     C_3   0.724643 0.546415 0.259465 -0.092316
H37   H     H_    0.768926 0.511097 0.329270 0.195775
H38   H     H_    0.659442 0.511420 0.247377 0.137987
H39   H     H_    0.706811 0.608187 0.307802 0.181210
O24   O     O_3   0.818936 0.416303 0.147804 -0.590701
C60   C     C_3   0.736253 0.374820 0.115013 -0.248942
H40   H     H_    0.752864 0.314951 0.060225 0.190874
H41   H     H_    0.689323 0.413432 0.052759 0.186287
H42   H     H_    0.698589 0.357064 0.210230 0.171984
Cl1   Cl    Cl    0.551400 0.734018 0.704302 -0.567197
Cl2   Cl    Cl    0.571312 0.248579 0.753960 -0.541783
Cl3   Cl    Cl    0.051404 0.234024 0.704319 -0.567192
Cl4   Cl    Cl    0.071309 0.748583 0.753952 -0.541780
Cl5   Cl    Cl    0.183846 0.086926 0.659568 -0.508095
Cl6   Cl    Cl    0.201765 0.896761 0.723709 -0.510668
Cl7   Cl    Cl    0.683845 0.586922 0.659557 -0.508099
Cl8   Cl    Cl    0.701765 0.396758 0.723715 -0.510668
O25   O     O_3   0.656059 0.962060 0.138359 -0.592505
C61   C     C_3   0.733358 0.006908 0.086486 -0.353886
H43   H     H_    0.763735 0.973819 0.996534 0.179504
H44   H     H_    0.717535 0.074646 0.062112 0.150115
H45   H     H_    0.785979 0.007447 0.164894 0.196323
O26   O     O_3   0.156059 0.462059 0.138359 -0.592507
C62   C     C_3   0.233358 0.506906 0.086485 -0.353889
H46   H     H_    0.263735 0.473817 0.996534 0.179501
H47   H     H_    0.217536 0.574645 0.062111 0.150118
H48   H     H_    0.285979 0.507445 0.164894 0.196323

loop_
_geom_bond_atom_site_label_1
_geom_bond_atom_site_label_2
_ccdc_geom_bond_type
C18   H18   S    
C21   O13   A    
O3    Zn2   S    
C54   H22   S    
O8    Zn4   S    
O17   C53   S    
C60   H42   S    
C49   H5    S    
C13   H13   S    
C28   C46   A    
C33   C39   A    
C55   H26   S    
C2    C29   S    
C16   N4    A    
C32   C36   A    
C35   C37   A    
C38   C42   A    
C62   H47   S    
C11   N1    A    
C22   C41   S    
C55   H25   S    
O21   C57   S    
C53   H21   S    
C29   C33   A    
C7    C27   S    
C57   H31   S    
C42   C46   A    
N4    Zn2   S    
O15   Zn4   S    
O20   C56   S    
C1    C30   S    
C58   H36   S    
C52   H8    S    
C9    C19   S    
C39   H3    S    
C21   O9    A    
C10   C20   S    
C40   H4    S    
C53   H20   S    
C3    O7    A    
C52   Cl4   S    
C23   O15   A    
O16   Zn4   S    
O10   Zn1   S    
C22   O14   A    
C25   C47   A    
C40   C44   A    
C18   C20   S    
O1    Zn1   S    
C37   H1    S    
C27   C45   A    
C18   H17   S    
C49   Cl1   S    
C54   H23   S    
C14   N4    A    
C37   C41   A    
C61   H45   S    
C33   O17   S    
O11   Zn2   S    
C8    Cl8   S    
C5    Cl5   S    
C11   O25   S    
C25   C29   A    
C17   H15   S    
C30   C34   A    
C27   C31   A    
C50   H6    S    
C28   C32   A    
O26   C62   S    
N3    Zn1   S    
C61   H44   S    
C62   H48   S    
C39   C43   A    
O2    Zn1   S    
C59   H39   S    
O4    Zn2   S    
C23   C44   S    
C22   O10   A    
C4    O4    A    
C35   O19   S    
C34   O18   S    
C38   H2    S    
C19   O21   S    
C7    H11   S    
C53   H19   S    
C45   C49   S    
C14   H14   S    
C5    H9    S    
C56   H29   S    
C7    C49   S    
C58   H34   S    
C1    O1    A    
C8    H12   S    
C5    C25   S    
C51   Cl3   S    
C15   N3    A    
C13   N3    A    
C19   O22   S    
C26   C30   A    
C54   H24   S    
C36   O20   S    
O23   C59   S    
C1    O5    A    
C34   C40   A    
C51   H7    S    
C60   H40   S    
C3    O3    A    
C8    C50   S    
C7    Cl7   S    
C2    O2    A    
O22   C58   S    
C15   C17   S    
O14   Zn3   S    
C17   H16   S    
C59   H38   S    
C56   H28   S    
C9    C15   A    
C9    N1    A    
C20   O24   S    
C61   H43   S    
C60   H41   S    
C24   O16   A    
C47   C51   S    
O5    Zn3   S    
N1    Zn3   S    
C26   C48   A    
O9    Zn1   S    
O19   C55   S    
C46   C50   S    
C57   H33   S    
C6    H10   S    
C36   C38   A    
O24   C60   S    
C12   C14   A    
N2    Zn4   S    
C20   O23   S    
C10   C16   A    
C62   H46   S    
O7    Zn4   S    
C11   C13   A    
C12   O26   S    
C6    C26   S    
C24   O12   A    
C59   H37   S    
C8    C28   S    
O13   Zn3   S    
O18   C54   S    
C17   C19   S    
C57   H32   S    
C56   H30   S    
C31   C35   A    
C6    Cl6   S    
C3    C32   S    
C12   N2    A    
C58   H35   S    
C4    C31   S    
C2    O6    A    
O12   Zn2   S    
C21   C42   S    
C44   C48   A    
C48   C52   S    
C4    O8    A    
C16   C18   S    
C23   O11   A    
C24   C43   S    
C41   C45   A    
C5    C51   S    
C50   Cl2   S    
C6    C52   S    
O6    Zn3   S    
C43   C47   A    
O25   C61   S    
C55   H27   S    
C10   N2    A    
