data_mof_unit_34477.cif
_audit_creation_date              2012-12-10T21:06:56-0500
_audit_creation_method            fapswitch 2.2
_symmetry_space_group_name_H-M    P1
_symmetry_Int_Tables_number       1
_space_group_crystal_system       triclinic
_cell_length_a                    10.720815
_cell_length_b                    15.834524
_cell_length_c                    15.069287
_cell_angle_alpha                 90.157086
_cell_angle_beta                  90.475974
_cell_angle_gamma                 89.138823
_cell_volume                      2557.76115519

loop_
_atom_site_label
_atom_site_type_symbol
_atom_type_description
_atom_site_fract_x
_atom_site_fract_y
_atom_site_fract_z
_atom_type_partial_charge
C1    C     C_R   0.498532 0.338975 0.499791 0.909584
C2    C     C_R   0.500747 0.661041 0.500265 0.946168
C3    C     C_R   0.872242 0.499297 0.501513 -0.130438
C4    C     C_R   0.127607 0.499966 0.499153 -0.131009
C5    C     C_R   0.938620 0.446628 0.560848 0.055827
C6    C     C_R   0.061135 0.552564 0.439438 0.038115
C7    C     C_R   0.434263 0.956821 0.566435 -0.057131
C8    C     C_R   0.583810 0.043016 0.444380 -0.060541
C9    C     C_R   0.512615 0.912774 0.507360 -0.153962
C10   C     C_R   0.503577 0.086991 0.502216 -0.146438
C11   C     C_R   0.590131 0.955212 0.448316 0.548571
C12   C     C_R   0.432206 0.044756 0.565233 0.532480
C13   C     C_1   0.510054 0.823803 0.504444 0.009199
C14   C     C_1   0.497634 0.175983 0.499495 0.017508
C15   C     C_1   0.496758 0.250771 0.499210 -0.162102
C16   C     C_1   0.505875 0.749150 0.501653 -0.154110
C17   C     C_R   0.419767 0.446483 0.951884 0.555698
C18   C     C_R   0.581249 0.552151 0.048083 0.568554
C19   C     C_R   0.499490 0.500510 0.905020 -0.222608
C20   C     C_R   0.501122 0.498417 0.094972 -0.219619
C21   C     C_R   0.579224 0.554146 0.953987 -0.046412
C22   C     C_R   0.422451 0.444025 0.045984 -0.064904
C23   C     C_R   0.259716 0.500555 0.499632 0.928169
C24   C     C_R   0.740228 0.498677 0.500521 0.948285
C25   C     C_1   0.499798 0.500191 0.807060 0.156732
C26   C     C_1   0.500370 0.499292 0.192935 0.158933
C27   C     C_R   0.215497 0.745247 0.340049 -0.097972
C28   C     C_R   0.800932 0.252968 0.669322 -0.070695
C29   C     C_R   0.167679 0.688456 0.403261 0.431043
C30   C     C_R   0.845877 0.307936 0.603789 0.425348
C31   C     C_R   0.123819 0.608984 0.375190 -0.047978
C32   C     C_R   0.877151 0.391445 0.626802 -0.035052
C33   C     C_R   0.132685 0.585114 0.284875 -0.046770
C34   C     C_R   0.862242 0.419740 0.715288 0.034391
C35   C     C_R   0.177344 0.642775 0.222397 0.021312
C36   C     C_R   0.816009 0.365036 0.779756 0.008136
C37   C     C_R   0.215083 0.723234 0.249575 0.507360
C38   C     C_R   0.788485 0.280934 0.757459 0.467860
C39   C     C_R   0.931710 0.553058 0.442006 -0.004558
C40   C     C_R   0.067243 0.446592 0.559248 -0.014163
N1    N     N_1   0.499960 0.500020 0.270550 -0.094720
N2    N     N_1   0.500040 0.499980 0.729450 -0.098470
O1    O     O_R   0.500000 0.378020 0.573650 -0.611721
O2    O     O_R   0.500000 0.621980 0.426350 -0.597371
O3    O     O_R   0.500060 0.378020 0.426320 -0.619814
O4    O     O_R   0.499940 0.621980 0.573680 -0.618736
O5    O     O_R   0.316730 0.500010 0.573660 -0.621084
O6    O     O_R   0.683270 0.499990 0.426340 -0.589070
O7    O     O_R   0.316790 0.500010 0.426330 -0.633975
O8    O     O_R   0.683210 0.499990 0.573670 -0.645408
Zn1   Zn    Zn3+2 0.499960 0.500000 0.598370 0.974733
Zn2   Zn    Zn3+2 0.500040 0.500000 0.401630 0.993348
O9    O     O_3   0.260954 0.778791 0.187702 -0.561105
C41   C     C_3   0.161047 0.829770 0.156492 -0.251154
H1    H     H_    0.119027 0.867925 0.211068 0.161183
H2    H     H_    0.088332 0.791231 0.123080 0.156667
H3    H     H_    0.197354 0.874419 0.106700 0.193183
O10   O     O_3   0.741121 0.227825 0.821175 -0.586552
C42   C     C_3   0.839508 0.177022 0.855201 -0.293513
H4    H     H_    0.916604 0.215745 0.882718 0.143454
H5    H     H_    0.876293 0.132773 0.803983 0.176574
H6    H     H_    0.803008 0.138400 0.910236 0.195827
O11   O     O_3   0.343484 0.391794 0.905605 -0.578008
C43   C     C_3   0.226743 0.432118 0.891702 -0.290069
H7    H     H_    0.235770 0.490055 0.850721 0.148905
H8    H     H_    0.180513 0.447745 0.955688 0.166058
H9    H     H_    0.165184 0.388294 0.854830 0.191002
O12   O     O_3   0.657929 0.606652 0.094280 -0.563893
C44   C     C_3   0.774164 0.565812 0.108740 -0.290068
H10   H     H_    0.820214 0.548952 0.045020 0.167262
H11   H     H_    0.764361 0.508563 0.150655 0.148059
H12   H     H_    0.836341 0.609795 0.144829 0.185757
N3    N     N_3   0.262283 0.826557 0.365354 -0.432559
H13   H     H_    0.356764 0.827687 0.348919 0.241438
H14   H     H_    0.257274 0.836044 0.433733 0.221020
N4    N     N_3   0.769266 0.167811 0.647494 -0.431036
H15   H     H_    0.849756 0.136274 0.625840 0.184332
H16   H     H_    0.705914 0.169226 0.594769 0.214085
O13   O     O_3   0.175067 0.707034 0.492993 -0.610173
C45   C     C_3   0.066345 0.751507 0.519082 -0.376184
H17   H     H_    0.990329 0.706822 0.533018 0.183081
H18   H     H_    0.034630 0.799753 0.469779 0.148866
H19   H     H_    0.086845 0.785442 0.581881 0.197554
O14   O     O_3   0.849908 0.281487 0.516212 -0.620772
C46   C     C_3   0.968343 0.245594 0.497872 -0.308160
H20   H     H_    0.015125 0.215225 0.556266 0.162252
H21   H     H_    0.029857 0.294299 0.469842 0.187166
H22   H     H_    0.956676 0.195968 0.446503 0.183376
N5    N     N_3   0.099471 0.501959 0.255723 -0.474230
H23   H     H_    0.005769 0.491637 0.269750 0.189182
H24   H     H_    0.153445 0.457892 0.291205 0.210975
N6    N     N_3   0.894890 0.503899 0.741138 -0.438436
H25   H     H_    0.844217 0.546744 0.701837 0.200876
H26   H     H_    0.989831 0.512172 0.729346 0.188713
N7    N     N_3   0.183802 0.620814 0.130230 -0.408729
H27   H     H_    0.094539 0.604230 0.108557 0.178630
H28   H     H_    0.242413 0.567969 0.123776 0.203337
N8    N     N_3   0.799217 0.395337 0.868633 -0.435845
H29   H     H_    0.707138 0.384306 0.887042 0.220852
H30   H     H_    0.857870 0.360400 0.910860 0.187362
N9    N     N_3   0.859050 0.610442 0.387458 -0.430463
H31   H     H_    0.886298 0.672390 0.400044 0.170941
H32   H     H_    0.874701 0.596919 0.320627 0.195371
N10   N     N_3   0.134544 0.389011 0.616762 -0.463713
H33   H     H_    0.179566 0.422865 0.666912 0.219912
H34   H     H_    0.199471 0.353977 0.579932 0.186993
O15   O     O_3   0.352893 0.089216 0.621002 -0.598767
C47   C     C_3   0.417796 0.106891 0.700536 -0.237823
H35   H     H_    0.499360 0.147834 0.688479 0.182379
H36   H     H_    0.448254 0.047872 0.734926 0.165659
H37   H     H_    0.353979 0.141783 0.745682 0.198375
O16   O     O_3   0.664027 0.910705 0.388978 -0.562475
C48   C     C_3   0.781956 0.896297 0.428714 -0.300198
H38   H     H_    0.774723 0.856924 0.489487 0.143718
H39   H     H_    0.829078 0.956746 0.444543 0.162464
H40   H     H_    0.841578 0.861096 0.381007 0.186091
N11   N     N_3   0.355712 0.913477 0.627440 -0.412296
H41   H     H_    0.295393 0.874966 0.591226 0.203992
H42   H     H_    0.412104 0.874845 0.667727 0.192006
N12   N     N_3   0.659029 0.086341 0.381255 -0.405307
H43   H     H_    0.600117 0.122166 0.339932 0.207337
H44   H     H_    0.717363 0.127562 0.415824 0.201442
N13   N     N_3   0.344837 0.384853 0.090492 -0.408300
H45   H     H_    0.285178 0.418133 0.132987 0.182169
H46   H     H_    0.402071 0.345241 0.129107 0.197373
N14   N     N_3   0.659568 0.611493 0.909367 -0.405778
H47   H     H_    0.718709 0.576464 0.867994 0.207004
H48   H     H_    0.604432 0.651467 0.869659 0.194833

loop_
_geom_bond_atom_site_label_1
_geom_bond_atom_site_label_2
_ccdc_geom_bond_type
N14   H47   S    
C27   C29   A    
C18   C21   A    
N3    H13   S    
C7    N11   S    
N7    H27   S    
O1    Zn1   S    
N10   H34   S    
N13   H45   S    
O9    C41   S    
C2    O4    A    
N9    H31   S    
C35   C37   A    
N4    H16   S    
N11   H42   S    
C23   O7    A    
C18   O12   S    
C47   H35   S    
C44   H11   S    
C9    C13   S    
N10   H33   S    
C17   C19   A    
C38   O10   S    
C1    O1    A    
C4    C40   A    
C2    O2    A    
O12   C44   S    
O15   C47   S    
C31   C33   A    
C1    C15   S    
N5    H24   S    
C2    C16   S    
N1    Zn2   S    
C18   C20   A    
N2    Zn1   S    
C48   H40   S    
C37   O9    S    
O2    Zn2   S    
C6    C31   S    
C3    C39   A    
C42   H4    S    
N9    H32   S    
N3    H14   S    
C3    C24   S    
C45   H19   S    
O16   C48   S    
N12   H44   S    
C39   N9    S    
C46   H21   S    
C24   O8    A    
C7    C12   A    
C41   H2    S    
C42   H5    S    
C23   O5    A    
C24   O6    A    
C43   H9    S    
C22   N13   S    
N4    H15   S    
C4    C6    A    
C10   C14   S    
C4    C23   S    
O5    Zn1   S    
O3    Zn2   S    
O10   C42   S    
C46   H20   S    
O4    Zn1   S    
O11   C43   S    
C43   H8    S    
C44   H12   S    
C33   N5    S    
C40   N10   S    
C29   O13   S    
C28   C38   A    
O7    Zn2   S    
N6    H26   S    
O8    Zn1   S    
O14   C46   S    
C9    C11   A    
C10   C12   A    
C45   H18   S    
C20   C22   A    
N8    H30   S    
C13   C16   T    
C28   N4    S    
N12   H43   S    
C8    N12   S    
C48   H38   S    
C46   H22   S    
C7    C9    A    
C41   H1    S    
C42   H6    S    
N14   H48   S    
C19   C21   A    
C11   O16   S    
C6    C39   A    
C45   H17   S    
C3    C5    A    
C25   N2    T    
C12   O15   S    
N7    H28   S    
C35   N7    S    
C17   C22   A    
C47   H37   S    
C43   H7    S    
C5    C32   S    
C36   C38   A    
C21   N14   S    
C29   C31   A    
N11   H41   S    
C17   O11   S    
C30   C32   A    
C1    O3    A    
C20   C26   S    
C27   C37   A    
C8    C11   A    
C28   C30   A    
N6    H25   S    
C33   C35   A    
C47   H36   S    
C34   C36   A    
C30   O14   S    
C44   H10   S    
C19   C25   S    
C34   N6    S    
N13   H46   S    
O13   C45   S    
O6    Zn2   S    
C8    C10   A    
N8    H29   S    
C5    C40   A    
C14   C15   T    
C36   N8    S    
N5    H23   S    
C27   N3    S    
C26   N1    T    
C32   C34   A    
C48   H39   S    
C41   H3    S    
