data_mof_unit_57422.cif
_audit_creation_date              2013-03-05T15:40:55-0500
_audit_creation_method            fapswitch 2.2
_symmetry_space_group_name_H-M    P1
_symmetry_Int_Tables_number       1
_space_group_crystal_system       triclinic
_cell_length_a                    27.975734
_cell_length_b                    18.694537
_cell_length_c                    16.802758
_cell_angle_alpha                 90.047122
_cell_angle_beta                  63.430628
_cell_angle_gamma                 90.021442
_cell_volume                      7859.68689652

loop_
_atom_site_label
_atom_site_type_symbol
_atom_site_description
_atom_site_fract_x
_atom_site_fract_y
_atom_site_fract_z
_atom_type_partial_charge
O1    O     O_R   0.255040 0.869590 0.478480 -0.581793
O2    O     O_R   0.744960 0.130410 0.521520 -0.573474
O3    O     O_R   0.744960 0.869590 0.521520 -0.583055
O4    O     O_R   0.255040 0.130410 0.478480 -0.568824
O5    O     O_R   0.755040 0.369590 0.478480 -0.569755
O6    O     O_R   0.244960 0.630410 0.521520 -0.568905
O7    O     O_R   0.244960 0.369590 0.521520 -0.581671
O8    O     O_R   0.755040 0.630410 0.478480 -0.566610
O9    O     O_R   0.182050 0.796550 0.624440 -0.510000
O10   O     O_R   0.817950 0.203450 0.375560 -0.507298
O11   O     O_R   0.817950 0.796550 0.375560 -0.510906
O12   O     O_R   0.182050 0.203450 0.624440 -0.498917
O13   O     O_R   0.682050 0.296550 0.624440 -0.509682
O14   O     O_R   0.317950 0.703450 0.375560 -0.499068
O15   O     O_R   0.317950 0.296550 0.375560 -0.509833
O16   O     O_R   0.682050 0.703450 0.624440 -0.498926
Cu1   Cu    Cu3+1 0.209920 0.785290 0.495070 1.109188
Cu2   Cu    Cu3+1 0.790080 0.214710 0.504930 1.108033
Cu3   Cu    Cu3+1 0.790080 0.785290 0.504930 1.107222
Cu4   Cu    Cu3+1 0.209920 0.214710 0.495070 1.108814
Cu5   Cu    Cu3+1 0.709920 0.285290 0.495070 1.098487
Cu6   Cu    Cu3+1 0.290080 0.714710 0.504930 1.109887
Cu7   Cu    Cu3+1 0.290080 0.285290 0.504930 1.108398
Cu8   Cu    Cu3+1 0.709920 0.714710 0.495070 1.113353
C1    C     C_R   0.296641 0.732666 0.328536 0.801697
C2    C     C_R   0.706921 0.276024 0.669305 0.803271
C3    C     C_R   0.703360 0.732668 0.671502 0.801638
C4    C     C_R   0.292846 0.275977 0.330583 0.805059
C5    C     C_R   0.792076 0.223305 0.331121 0.816589
C6    C     C_R   0.207162 0.775990 0.669408 0.805062
C7    C     C_R   0.203377 0.232628 0.671478 0.802060
C8    C     C_R   0.792779 0.776111 0.330633 0.805293
O17   O     O_R   0.250530 0.763330 0.367210 -0.592931
O18   O     O_R   0.749470 0.236670 0.632790 -0.590258
O19   O     O_R   0.749470 0.763330 0.632790 -0.592657
O20   O     O_R   0.250530 0.236670 0.367210 -0.598133
O21   O     O_R   0.750530 0.263330 0.367210 -0.606207
O22   O     O_R   0.249470 0.736670 0.632790 -0.597494
O23   O     O_R   0.249470 0.263330 0.632790 -0.593511
O24   O     O_R   0.750530 0.736670 0.367210 -0.595881
O25   O     O_R   0.177260 0.690030 0.513710 -0.569066
O26   O     O_R   0.822740 0.309970 0.486290 -0.580739
O27   O     O_R   0.822740 0.690030 0.486290 -0.569573
O28   O     O_R   0.177260 0.309970 0.513710 -0.583814
O29   O     O_R   0.677260 0.190030 0.513710 -0.582545
O30   O     O_R   0.322740 0.809970 0.486290 -0.582984
O31   O     O_R   0.322740 0.190030 0.486290 -0.569170
O32   O     O_R   0.677260 0.809970 0.513710 -0.583850
C9    C     C_R   0.196657 0.631697 0.527452 0.786922
C10   C     C_R   0.803328 0.368301 0.472725 0.775285
C11   C     C_R   0.803334 0.631644 0.472720 0.788027
C12   C     C_R   0.196635 0.368310 0.527532 0.753507
C13   C     C_R   0.696676 0.131661 0.527258 0.768670
C14   C     C_R   0.303377 0.868283 0.472453 0.753175
C15   C     C_R   0.303368 0.131669 0.472504 0.786739
C16   C     C_R   0.696662 0.868319 0.527325 0.751572
C17   C     C_R   0.041763 0.630139 0.525780 -0.082878
C18   C     C_R   0.957502 0.369644 0.477494 -0.093327
C19   C     C_R   0.957962 0.630074 0.476173 -0.083293
C20   C     C_R   0.041112 0.369707 0.527662 -0.087911
C21   C     C_R   0.542376 0.130063 0.523121 -0.084519
C22   C     C_R   0.458656 0.869581 0.473036 -0.090194
C23   C     C_R   0.458719 0.130057 0.473124 -0.083240
C24   C     C_R   0.541978 0.869594 0.524024 -0.090030
C25   C     C_R   0.020454 0.695740 0.514255 0.238027
C26   C     C_R   0.978332 0.304057 0.490252 0.216140
C27   C     C_R   0.979357 0.695705 0.487529 0.238085
C28   C     C_R   0.019073 0.304104 0.517828 0.220905
C29   C     C_R   0.521107 0.195694 0.511521 0.231376
C30   C     C_R   0.480085 0.803970 0.484349 0.215781
C31   C     C_R   0.480240 0.195662 0.484247 0.231584
C32   C     C_R   0.520389 0.803975 0.512979 0.213971
C33   C     C_R   0.978134 0.565044 0.490472 -0.013777
C34   C     C_R   0.021168 0.434710 0.512662 -0.013171
C35   C     C_R   0.021441 0.565067 0.511848 -0.013719
C36   C     C_R   0.977883 0.434701 0.491206 -0.012100
C37   C     C_R   0.478925 0.065003 0.487323 -0.014473
C38   C     C_R   0.522052 0.934616 0.509102 -0.012915
C39   C     C_R   0.522204 0.065002 0.508776 -0.014975
C40   C     C_R   0.478822 0.934620 0.487481 -0.013115
C41   C     C_R   0.456660 0.999828 0.477748 0.032494
C42   C     C_R   0.544269 0.999819 0.518791 0.032713
C43   C     C_R   0.955882 0.499867 0.480917 0.034204
C44   C     C_R   0.043548 0.499907 0.521810 0.033440
C45   C     C_R   0.387673 0.934504 0.455343 0.022899
C46   C     C_R   0.612833 0.065260 0.542367 0.019822
C47   C     C_R   0.612736 0.934511 0.542622 0.023061
C48   C     C_R   0.387637 0.065290 0.455549 0.023952
C49   C     C_R   0.887207 0.434477 0.457652 0.023512
C50   C     C_R   0.112531 0.565359 0.544086 0.023244
C51   C     C_R   0.112413 0.434600 0.544500 0.022306
C52   C     C_R   0.887262 0.565272 0.457455 0.024087
C53   C     C_R   0.335959 0.934524 0.457297 -0.106778
C54   C     C_R   0.664213 0.065341 0.541700 -0.108692
C55   C     C_R   0.664169 0.934556 0.541834 -0.106963
C56   C     C_R   0.335935 0.065350 0.457427 -0.113323
C57   C     C_R   0.835825 0.434524 0.458272 -0.109263
C58   C     C_R   0.164145 0.565403 0.542446 -0.112740
C59   C     C_R   0.164104 0.434594 0.542603 -0.106699
C60   C     C_R   0.835833 0.565322 0.458240 -0.113478
C61   C     C_R   0.311567 0.999937 0.457492 -0.252139
C62   C     C_R   0.688438 0.999966 0.542146 -0.255242
C63   C     C_R   0.811602 0.499922 0.457822 -0.245716
C64   C     C_R   0.188500 0.500009 0.542441 -0.251107
H1    H     H_    0.271755 0.999937 0.461805 0.198601
H2    H     H_    0.728036 0.999987 0.538724 0.197782
H3    H     H_    0.772011 0.499925 0.461216 0.200289
H4    H     H_    0.228288 0.500019 0.538226 0.198480
C65   C     C_R   0.410498 0.999874 0.462993 0.071535
C66   C     C_R   0.590148 0.999855 0.534350 0.071026
C67   C     C_R   0.909930 0.499872 0.465528 0.071386
C68   C     C_R   0.089669 0.499949 0.536644 0.071819
C69   C     C_R   0.582971 0.871542 0.550271 -0.151717
C70   C     C_R   0.417368 0.128263 0.447783 -0.136089
C71   C     C_R   0.417440 0.871502 0.447326 -0.151024
C72   C     C_R   0.583222 0.128216 0.549608 -0.140868
C73   C     C_R   0.082541 0.371653 0.552857 -0.149249
C74   C     C_R   0.916905 0.628247 0.450169 -0.131166
C75   C     C_R   0.916715 0.371426 0.450865 -0.146063
C76   C     C_R   0.082899 0.628358 0.551572 -0.131627
H5    H     H_    0.589834 0.823887 0.579397 0.226217
H6    H     H_    0.410123 0.176166 0.419525 0.219488
H7    H     H_    0.410233 0.823745 0.418686 0.226474
H8    H     H_    0.589973 0.175981 0.578776 0.224863
H9    H     H_    0.089763 0.324004 0.581582 0.226400
H10   H     H_    0.910004 0.676114 0.421436 0.219770
H11   H     H_    0.909936 0.323439 0.422118 0.224406
H12   H     H_    0.089964 0.676288 0.580098 0.219684
C77   C     C_R   0.228447 0.788265 0.947806 0.005844
C78   C     C_R   0.767174 0.218249 0.056235 0.003351
C79   C     C_R   0.770607 0.790488 0.053094 0.005807
C80   C     C_R   0.215142 0.248440 0.956632 0.000501
C81   C     C_R   0.715270 0.267104 0.956799 0.001866
C82   C     C_R   0.284686 0.748169 0.043575 0.000331
C83   C     C_R   0.271403 0.288553 0.052385 0.005520
C84   C     C_R   0.714192 0.750368 0.957526 0.000672
C85   C     C_R   0.279219 0.756324 0.903019 0.020545
C86   C     C_R   0.715978 0.250511 0.101221 0.029664
C87   C     C_R   0.719659 0.759136 0.098124 0.021552
C88   C     C_R   0.258280 0.296839 0.918247 0.021964
C89   C     C_R   0.769008 0.244604 0.912475 0.019422
C90   C     C_R   0.241524 0.796549 0.082019 0.022220
C91   C     C_R   0.220623 0.256653 0.097182 0.020121
C92   C     C_R   0.757453 0.798543 0.918903 0.021759
C93   C     C_R   0.300758 0.723780 0.955837 0.049173
C94   C     C_R   0.687456 0.265682 0.051031 0.034806
C95   C     C_R   0.697923 0.726574 0.045531 0.047659
C96   C     C_R   0.291980 0.304491 0.960738 0.039579
C97   C     C_R   0.790393 0.208998 0.963235 0.048482
C98   C     C_R   0.207841 0.804202 0.039483 0.039617
C99   C     C_R   0.199073 0.224090 0.044348 0.049456
C100  C     C_R   0.791180 0.806225 0.961377 0.039107
C101  C     C_R   0.144735 0.826974 0.948214 0.009496
C102  C     C_R   0.843544 0.154735 0.059778 0.024138
C103  C     C_R   0.854724 0.827908 0.052158 0.010324
C104  C     C_R   0.151624 0.166080 0.940346 0.026678
C105  C     C_R   0.635263 0.312325 0.950104 0.006093
C106  C     C_R   0.348335 0.665987 0.059698 0.025556
C107  C     C_R   0.355187 0.327054 0.051864 0.009645
C108  C     C_R   0.650893 0.667486 0.941289 0.025748
C109  C     C_R   0.115959 0.846732 0.899886 -0.206300
C110  C     C_R   0.875694 0.140412 0.105268 -0.218265
C111  C     C_R   0.883802 0.847066 0.100207 -0.206043
C112  C     C_R   0.121387 0.145751 0.893934 -0.230575
C113  C     C_R   0.611563 0.342200 0.899454 -0.211068
C114  C     C_R   0.378646 0.645814 0.106043 -0.231786
C115  C     C_R   0.384023 0.346748 0.100123 -0.207384
C116  C     C_R   0.621102 0.646327 0.894358 -0.231321
C117  C     C_R   0.134707 0.823732 0.811345 0.260669
C118  C     C_R   0.860273 0.169921 0.190295 0.246328
C119  C     C_R   0.865176 0.823854 0.188620 0.260128
C120  C     C_R   0.134763 0.176029 0.809502 0.249389
C121  C     C_R   0.632806 0.324670 0.808771 0.264135
C122  C     C_R   0.365352 0.676291 0.190389 0.249200
C123  C     C_R   0.365315 0.323725 0.188634 0.262630
C124  C     C_R   0.634763 0.676078 0.809572 0.248293
C125  C     C_R   0.187495 0.797621 0.764037 -0.222114
C126  C     C_R   0.808948 0.199584 0.238038 -0.217722
C127  C     C_R   0.812300 0.798077 0.236147 -0.222466
C128  C     C_R   0.178656 0.222635 0.769787 -0.211298
C129  C     C_R   0.685106 0.296276 0.764411 -0.226812
C130  C     C_R   0.321377 0.722740 0.230212 -0.211242
C131  C     C_R   0.312507 0.297647 0.235985 -0.222463
C132  C     C_R   0.678536 0.722894 0.769901 -0.211836
C133  C     C_R   0.220644 0.792689 0.808459 -0.021235
C134  C     C_R   0.775169 0.208325 0.195010 -0.013287
C135  C     C_R   0.778888 0.793956 0.192120 -0.021466
C136  C     C_R   0.201671 0.252408 0.822704 -0.016074
C137  C     C_R   0.715245 0.287409 0.812990 -0.023840
C138  C     C_R   0.298258 0.752349 0.177410 -0.016525
C139  C     C_R   0.279311 0.292830 0.191643 -0.021751
C140  C     C_R   0.701261 0.753227 0.822993 -0.016203
C141  C     C_R   0.197807 0.802453 0.901412 0.068036
C142  C     C_R   0.795909 0.195104 0.103436 0.069391
C143  C     C_R   0.801522 0.803992 0.099216 0.068281
C144  C     C_R   0.188931 0.222835 0.906837 0.068272
C145  C     C_R   0.688593 0.288809 0.906582 0.072920
C146  C     C_R   0.310967 0.722688 0.093287 0.067589
C147  C     C_R   0.302100 0.302631 0.098715 0.068083
C148  C     C_R   0.688202 0.724248 0.907562 0.067888
C149  C     C_R   0.121971 0.828947 0.042066 -0.127282
C150  C     C_R   0.854935 0.128942 0.973586 -0.142293
C151  C     C_R   0.877317 0.829881 0.958326 -0.125945
C152  C     C_R   0.147184 0.131579 0.018403 -0.135789
C153  C     C_R   0.606385 0.301490 0.041964 -0.131266
C154  C     C_R   0.352779 0.631424 0.981608 -0.137055
C155  C     C_R   0.377909 0.329013 0.958021 -0.130029
C156  C     C_R   0.646069 0.633761 0.020033 -0.137398
C157  C     C_R   0.153181 0.819192 0.086603 -0.197146
C158  C     C_R   0.830055 0.157364 0.925738 -0.213729
C159  C     C_R   0.845914 0.820633 0.914037 -0.196308
C160  C     C_R   0.168345 0.161911 0.071281 -0.200110
C161  C     C_R   0.631667 0.274890 0.090528 -0.186805
C162  C     C_R   0.331556 0.661654 0.928804 -0.200552
C163  C     C_R   0.346646 0.319379 0.913554 -0.196709
C164  C     C_R   0.667017 0.664591 0.072934 -0.197259
C165  C     C_R   0.276320 0.780429 0.763331 -0.176694
C166  C     C_R   0.721729 0.232133 0.239329 -0.190272
C167  C     C_R   0.723159 0.782265 0.237614 -0.176936
C168  C     C_R   0.235291 0.313016 0.795917 -0.166490
C169  C     C_R   0.771116 0.279823 0.771650 -0.174676
C170  C     C_R   0.264586 0.812910 0.204288 -0.166854
C171  C     C_R   0.223633 0.280628 0.236841 -0.177001
C172  C     C_R   0.734901 0.813834 0.795949 -0.167186
C173  C     C_R   0.305902 0.760403 0.808700 0.103543
C174  C     C_R   0.695770 0.263644 0.194105 0.094577
C175  C     C_R   0.693212 0.763220 0.192466 0.105710
C176  C     C_R   0.264171 0.335668 0.841650 0.131458
C177  C     C_R   0.798910 0.260387 0.820020 0.115918
C178  C     C_R   0.235645 0.835444 0.158643 0.131836
C179  C     C_R   0.193996 0.260663 0.191518 0.105310
C180  C     C_R   0.763570 0.836916 0.841882 0.131855
H13   H     H_    0.079446 0.834605 0.082745 0.200382
H14   H     H_    0.881140 0.085568 0.939936 0.192156
H15   H     H_    0.919860 0.835028 0.917454 0.199866
H16   H     H_    0.129993 0.079329 0.038810 0.177964
H17   H     H_    0.563521 0.309281 0.075734 0.195199
H18   H     H_    0.370052 0.579222 0.961076 0.179100
H19   H     H_    0.420436 0.334569 0.917297 0.198887
H20   H     H_    0.628893 0.581605 0.040996 0.178855
H21   H     H_    0.133232 0.817500 0.158400 0.167346
H22   H     H_    0.839416 0.134788 0.861177 0.148592
H23   H     H_    0.865768 0.818725 0.842238 0.167010
H24   H     H_    0.164540 0.132776 0.129391 0.141807
H25   H     H_    0.606580 0.258195 0.157516 0.164235
H26   H     H_    0.335400 0.632497 0.870636 0.142346
H27   H     H_    0.366552 0.317679 0.841751 0.167182
H28   H     H_    0.663061 0.635788 0.131368 0.148118
H29   H     H_    0.298116 0.789744 0.692730 0.180194
H30   H     H_    0.698480 0.227895 0.310225 0.191684
H31   H     H_    0.701658 0.791197 0.308360 0.179307
H32   H     H_    0.237148 0.345745 0.741666 0.162330
H33   H     H_    0.793962 0.293530 0.702265 0.174076
H34   H     H_    0.262752 0.845717 0.258529 0.162197
H35   H     H_    0.201884 0.289919 0.307469 0.179804
H36   H     H_    0.736970 0.846207 0.741287 0.162241
O33   O     O_R   0.051640 0.926880 0.885090 -0.510425
O34   O     O_R   0.948360 0.073120 0.114910 -0.504220
O35   O     O_R   0.948360 0.926880 0.114910 -0.514271
O36   O     O_R   0.051640 0.073120 0.885090 -0.507372
O37   O     O_R   0.551640 0.426880 0.885090 -0.511117
O38   O     O_R   0.448360 0.573120 0.114910 -0.506480
O39   O     O_R   0.448360 0.426880 0.114910 -0.511612
O40   O     O_R   0.551640 0.573120 0.885090 -0.503973
Cu9   Cu    Cu3+1 0.495240 0.500000 0.924150 1.103687
Cu10  Cu    Cu3+1 0.504760 0.500000 0.075850 1.102134
Cu11  Cu    Cu3+1 0.995240 0.000000 0.924150 1.098368
Cu12  Cu    Cu3+1 0.004760 1.000000 0.075850 1.099397
C181  C     C_R   0.928091 0.900238 0.064496 0.802969
C182  C     C_R   0.075497 0.094828 0.932238 0.820952
C183  C     C_R   0.071843 0.900163 0.935523 0.804097
C184  C     C_R   0.924499 0.094692 0.067147 0.831890
C185  C     C_R   0.428149 0.400167 0.064464 0.795123
C186  C     C_R   0.575408 0.595010 0.932356 0.819046
C187  C     C_R   0.570346 0.398849 0.936078 0.793165
C188  C     C_R   0.424519 0.594855 0.067764 0.816148
O41   O     O_R   0.940620 0.926560 0.986760 -0.616116
O42   O     O_R   0.059380 0.073440 0.013240 -0.602095
O43   O     O_R   0.059380 0.926560 0.013240 -0.616895
O44   O     O_R   0.940620 0.073440 0.986760 -0.614334
O45   O     O_R   0.440620 0.426560 0.986760 -0.616837
O46   O     O_R   0.559380 0.573440 0.013240 -0.605370
O47   O     O_R   0.559380 0.426560 0.013240 -0.607399
O48   O     O_R   0.440620 0.573440 0.986760 -0.604571
N1    N     N_R   0.539350 0.737000 0.529896 0.147502
O49   O     O_R   0.505764 0.691093 0.584634 -0.279120
O50   O     O_R   0.589498 0.719552 0.485987 -0.358698
N2    N     N_R   0.460043 0.262574 0.469985 0.147017
O51   O     O_R   0.492423 0.308987 0.414213 -0.291585
O52   O     O_R   0.410142 0.279603 0.517958 -0.331942
N3    N     N_R   0.460832 0.736983 0.467988 0.148318
O53   O     O_R   0.494191 0.690790 0.413318 -0.279669
O54   O     O_R   0.410686 0.719744 0.512553 -0.358202
N4    N     N_R   0.541373 0.262660 0.525693 0.146464
O55   O     O_R   0.508903 0.309944 0.579758 -0.266508
O56   O     O_R   0.591728 0.278441 0.480201 -0.376134
N5    N     N_R   0.038067 0.237215 0.534848 0.149269
O57   O     O_R   0.004706 0.192124 0.591452 -0.275494
O58   O     O_R   0.087947 0.219035 0.489305 -0.358405
N6    N     N_R   0.958751 0.762606 0.474153 0.145859
O59   O     O_R   0.990796 0.809566 0.418884 -0.273571
O60   O     O_R   0.908700 0.778894 0.522127 -0.336485
N7    N     N_R   0.957479 0.237101 0.477526 0.145500
O61   O     O_R   0.989507 0.189243 0.423862 -0.279430
O62   O     O_R   0.907194 0.221651 0.524703 -0.356349
N8    N     N_R   0.041163 0.762673 0.527423 0.146075
O63   O     O_R   0.009193 0.809789 0.582602 -0.272619
O64   O     O_R   0.091218 0.778842 0.479298 -0.336046
N9    N     N_R   0.098840 0.824333 0.771234 0.147255
O65   O     O_R   0.100360 0.876681 0.719036 -0.275676
O66   O     O_R   0.059057 0.779575 0.798911 -0.361581
N10   N     N_R   0.898150 0.173159 0.226342 0.147940
O67   O     O_R   0.899573 0.122866 0.278865 -0.281073
O68   O     O_R   0.934140 0.223356 0.200501 -0.352327
N11   N     N_R   0.901252 0.823866 0.228332 0.147514
O69   O     O_R   0.900071 0.875944 0.280728 -0.282096
O70   O     O_R   0.940945 0.778946 0.199978 -0.360955
N12   N     N_R   0.102917 0.160923 0.764051 0.157815
O71   O     O_R   0.111210 0.102792 0.716862 -0.287471
O72   O     O_R   0.070087 0.209111 0.761513 -0.337644
N13   N     N_R   0.600286 0.333984 0.763255 0.156722
O73   O     O_R   0.607164 0.389604 0.712615 -0.276632
O74   O     O_R   0.558616 0.293453 0.783719 -0.355670
N14   N     N_R   0.397404 0.661665 0.235582 0.157474
O75   O     O_R   0.389374 0.603688 0.282855 -0.286480
O76   O     O_R   0.430031 0.710246 0.238046 -0.342232
N15   N     N_R   0.401239 0.324241 0.228641 0.147271
O77   O     O_R   0.399783 0.376540 0.280951 -0.274761
O78   O     O_R   0.441008 0.279456 0.200772 -0.375859
N16   N     N_R   0.603359 0.660093 0.763602 0.157464
O79   O     O_R   0.612188 0.601754 0.716628 -0.283172
O80   O     O_R   0.569868 0.707355 0.761307 -0.340299
C189  C     C_3   0.366447 0.755349 0.755147 -0.356547
C190  C     C_3   0.394698 0.815041 0.779771 -0.768363
H37   H     H_    0.379830 0.868071 0.770870 0.243217
H38   H     H_    0.387986 0.809499 0.849761 0.259352
H39   H     H_    0.438373 0.812289 0.735752 0.262022
H40   H     H_    0.382280 0.702915 0.762120 0.228299
H41   H     H_    0.378398 0.760487 0.682843 0.234941
C191  C     C_3   0.654416 0.320874 0.246179 -0.341968
C192  C     C_3   0.669009 0.394319 0.201567 -0.769333
H42   H     H_    0.710067 0.409441 0.189736 0.249583
H43   H     H_    0.666815 0.395049 0.137376 0.252930
H44   H     H_    0.640654 0.435060 0.245760 0.260764
H45   H     H_    0.612996 0.305965 0.262093 0.220726
H46   H     H_    0.652873 0.328207 0.312978 0.243453
C193  C     C_3   0.632647 0.759122 0.246248 -0.356286
C194  C     C_3   0.604875 0.819448 0.221763 -0.773814
H47   H     H_    0.620256 0.872153 0.230578 0.242825
H48   H     H_    0.611443 0.814035 0.151822 0.259893
H49   H     H_    0.561196 0.817364 0.265923 0.260834
H50   H     H_    0.616298 0.707038 0.239320 0.229041
H51   H     H_    0.620868 0.764241 0.318497 0.234298
C195  C     C_3   0.293021 0.407362 0.814939 -0.371693
C196  C     C_3   0.268514 0.462799 0.889274 -0.805191
H52   H     H_    0.224945 0.467915 0.910348 0.256498
H53   H     H_    0.274993 0.447795 0.947581 0.256449
H54   H     H_    0.287593 0.515608 0.864792 0.239728
H55   H     H_    0.336316 0.402745 0.793889 0.215784
H56   H     H_    0.290214 0.429471 0.755764 0.208534
C197  C     C_3   0.859698 0.267817 0.773115 -0.358183
C198  C     C_3   0.879124 0.325167 0.816624 -0.774743
H57   H     H_    0.859422 0.377091 0.818133 0.246055
H58   H     H_    0.870487 0.309709 0.885485 0.261974
H59   H     H_    0.923019 0.331995 0.777576 0.257030
H60   H     H_    0.880702 0.216987 0.768924 0.229823
H61   H     H_    0.873586 0.284044 0.702565 0.222130
C199  C     C_3   0.206745 0.907107 0.185490 -0.370989
C200  C     C_3   0.231167 0.962544 0.111234 -0.807791
H62   H     H_    0.274734 0.967762 0.090135 0.255826
H63   H     H_    0.224688 0.947473 0.052921 0.256542
H64   H     H_    0.212030 0.015324 0.135807 0.239873
H65   H     H_    0.163446 0.902419 0.206625 0.215721
H66   H     H_    0.209575 0.929274 0.244661 0.208444
C201  C     C_3   0.133462 0.255582 0.245183 -0.362120
C202  C     C_3   0.105175 0.315342 0.220861 -0.762911
H67   H     H_    0.120128 0.368338 0.229763 0.243050
H68   H     H_    0.111756 0.309816 0.150927 0.261073
H69   H     H_    0.061522 0.312648 0.265058 0.261070
H70   H     H_    0.117613 0.203182 0.238033 0.227188
H71   H     H_    0.121567 0.260595 0.317504 0.233573
C203  C     C_3   0.792483 0.908550 0.814832 -0.372193
C204  C     C_3   0.767628 0.964454 0.888511 -0.804947
H72   H     H_    0.724362 0.970539 0.907516 0.254487
H73   H     H_    0.772712 0.949231 0.948080 0.257015
H74   H     H_    0.787537 0.016860 0.864330 0.242288
H75   H     H_    0.835694 0.904019 0.794560 0.215844
H76   H     H_    0.790103 0.930170 0.755089 0.208917

loop_
_geom_bond_atom_site_label_1
_geom_bond_atom_site_label_2
_geom_bond_distance
_ccdc_geom_bond_type
C163  H27   1.079646 S    
C124  N16   1.436790 S    
C27   N6    1.436653 S    
Cu2   Cu5   2.670642 S    
N3    O53   1.301112 A    
C186  O46   1.290880 A    
C119  C127  1.414746 A    
C115  C185  1.489488 S    
Cu9   O45   1.972140 S    
N7    O62   1.301261 A    
C189  C190  1.527164 S    
C138  C146  1.407516 A    
C44   C68   1.419352 A    
C118  C126  1.407907 A    
C46   C66   1.411211 A    
C4    C131  1.487267 S    
C83   C147  1.417846 A    
Cu6   O22   1.972395 S    
C6    O22   1.291613 A    
C117  C125  1.414494 A    
C86   C174  1.423338 A    
N14   O75   1.302988 A    
O3    Cu3   1.959754 S    
C19   C33   1.405835 A    
C55   C62   1.399563 A    
C200  H64   1.110252 S    
C154  C162  1.389775 A    
C91   C99   1.414128 A    
C33   C35   1.409293 A    
C36   C43   1.410293 A    
O25   C9    1.284486 A    
C199  C200  1.528603 S    
C137  C169  1.405159 A    
C101  C149  1.412547 A    
C37   C39   1.409359 A    
C26   N7    1.436479 S    
C114  C122  1.413809 A    
C71   H7    1.074841 S    
N16   O79   1.303003 A    
C105  C153  1.400361 A    
C191  C192  1.530111 S    
C158  H22   1.081074 S    
C53   C61   1.399876 A    
C3    O19   1.290388 A    
O40   C186  1.308437 A    
C101  C109  1.424580 A    
C150  H14   1.069350 S    
C38   C42   1.410036 A    
C196  H52   1.110928 S    
C152  C160  1.389568 A    
N8    O63   1.301085 A    
O13   Cu5   1.964872 S    
C20   C73   1.400954 A    
C154  H18   1.074974 S    
C113  C187  1.481512 S    
C107  C155  1.412508 A    
C114  C188  1.493205 S    
C57   C63   1.399710 A    
C48   C65   1.411621 A    
C201  H71   1.110993 S    
C100  C159  1.400133 A    
C23   C31   1.414685 A    
C8    O24   1.291754 A    
C168  H32   1.080075 S    
C157  H21   1.079621 S    
C204  H72   1.110964 S    
C78   C86   1.420528 A    
C139  C171  1.413067 A    
C84   C148  1.420222 A    
N6    O59   1.301084 A    
C172  H36   1.080064 S    
C123  C131  1.414858 A    
C137  C145  1.407385 A    
C124  C132  1.407072 A    
C81   C145  1.413388 A    
C79   C143  1.418233 A    
C32   N1    1.437304 S    
C50   C58   1.431826 A    
O2    C13   1.310709 A    
C201  C202  1.527106 S    
C52   C67   1.411771 A    
C122  N14   1.437021 S    
C164  H28   1.081609 S    
C7    C128  1.490072 S    
C152  H16   1.075017 S    
Cu3   O19   1.972953 S    
C199  H66   1.111862 S    
C190  H39   1.110932 S    
C123  N15   1.437488 S    
O10   Cu2   1.964872 S    
C195  H56   1.111846 S    
C194  H47   1.111026 S    
C106  C146  1.416690 A    
C107  C115  1.424187 A    
C108  C116  1.435282 A    
C121  N13   1.437243 S    
C47   C69   1.414003 A    
C93   C162  1.395463 A    
O4    Cu4   1.959756 S    
C77   C85   1.408580 A    
C54   C62   1.399360 A    
N1    O50   1.301136 A    
N13   O73   1.302711 A    
C29   N4    1.437080 S    
C63   H3    1.083296 S    
C130  C138  1.423481 A    
C33   C43   1.409422 A    
C50   C76   1.413262 A    
C16   C55   1.490367 S    
C197  H60   1.102936 S    
O33   Cu11  1.965354 S    
O32   C16   1.283369 A    
O34   Cu12  1.965351 S    
C122  C130  1.406653 A    
C18   C36   1.404942 A    
C47   C66   1.410793 A    
C201  H70   1.103514 S    
C134  C166  1.411279 A    
Cu12  O43   1.971733 S    
C22   C30   1.415233 A    
C34   C36   1.409567 A    
C22   C40   1.406076 A    
N3    O54   1.301129 A    
O7    C12   1.310077 A    
Cu2   O26   1.961635 S    
C38   C40   1.409838 A    
C35   C44   1.409930 A    
C90   C178  1.422167 A    
C198  H57   1.111101 S    
C189  H41   1.110771 S    
Cu11  O44   1.971730 S    
N10   O67   1.302785 A    
C52   C74   1.413294 A    
C18   C75   1.400022 A    
N12   O72   1.300991 A    
O35   Cu12  1.965282 S    
C19   C27   1.414668 A    
C193  H50   1.103602 S    
C45   C53   1.432338 A    
O40   Cu9   1.965282 S    
C47   C55   1.432995 A    
C187  O47   1.298723 A    
C178  C199  1.524964 S    
C116  C186  1.494024 S    
C109  C117  1.405131 A    
Cu10  O46   1.972140 S    
O16   C3    1.303795 A    
C140  C148  1.408155 A    
O29   C13   1.284140 A    
C184  O44   1.280633 A    
C31   N2    1.436494 S    
N5    O58   1.301147 A    
C151  C159  1.392846 A    
C165  H29   1.078227 S    
C103  C151  1.412540 A    
C149  C157  1.393001 A    
Cu4   O28   1.961787 S    
C202  H68   1.109817 S    
Cu5   O29   1.961634 S    
C192  H43   1.107505 S    
C169  H33   1.080353 S    
C88   C176  1.422058 A    
Cu7   O31   1.961788 S    
C99   C160  1.395371 A    
Cu8   O32   1.961787 S    
C105  C113  1.407716 A    
N15   O78   1.300796 A    
C190  H37   1.111036 S    
C188  O48   1.290941 A    
C103  C111  1.424331 A    
C194  H49   1.110929 S    
N2    O52   1.301255 A    
C51   C68   1.410942 A    
C126  C134  1.433146 A    
C108  C156  1.417014 A    
Cu4   Cu7   2.669678 S    
C119  N11   1.437443 S    
C132  C140  1.424011 A    
C181  O41   1.289370 A    
C161  H25   1.072688 S    
C4    O20   1.291712 A    
O9    C6    1.299113 A    
O26   C10   1.283590 A    
C17   C76   1.399823 A    
C196  H53   1.109369 S    
O11   C8    1.298700 A    
C19   C74   1.400114 A    
O12   C7    1.303494 A    
O14   Cu6   1.964872 S    
O13   C2    1.292109 A    
C112  C120  1.413983 A    
C191  H45   1.102076 S    
C169  C177  1.401150 A    
O34   C184  1.316159 A    
C1    C130  1.489847 S    
C115  C123  1.405558 A    
C11   C60   1.491806 S    
C116  C124  1.413890 A    
C13   C54   1.491096 S    
C24   C38   1.406159 A    
C134  C142  1.402208 A    
C34   C44   1.409397 A    
C15   C56   1.491721 S    
C39   C42   1.409995 A    
Cu11  Cu12  2.678716 S    
C202  H69   1.110919 S    
O1    Cu1   1.959365 S    
C167  C175  1.404284 A    
C17   C35   1.405673 A    
C204  H74   1.110372 S    
C22   C71   1.401099 A    
C92   C100  1.422089 A    
C117  N9    1.437445 S    
C203  H75   1.102821 S    
C21   C39   1.405918 A    
O7    Cu7   1.959754 S    
C183  O43   1.289231 A    
O8    Cu8   1.959756 S    
C166  C174  1.395197 A    
O36   C182  1.307663 A    
C79   C87   1.408154 A    
C25   N8    1.436641 S    
C153  C161  1.389471 A    
C101  C141  1.410108 A    
C170  C178  1.406223 A    
N14   O76   1.301072 A    
C195  C196  1.528575 S    
C91   C179  1.420097 A    
C73   H9    1.074883 S    
C165  C173  1.404021 A    
C200  H63   1.109345 S    
C75   H11   1.074798 S    
C48   C56   1.432544 A    
C203  C204  1.528642 S    
C166  H30   1.074889 S    
O11   Cu3   1.965193 S    
N16   O80   1.301136 A    
C111  C181  1.489379 S    
C85   C93   1.414363 A    
C104  C144  1.416526 A    
C175  C193  1.524332 S    
C45   C65   1.410780 A    
N4    O55   1.301100 A    
C127  C135  1.430165 A    
C89   C177  1.427664 A    
O6    Cu6   1.959363 S    
Cu12  O42   1.972140 S    
C125  C133  1.430063 A    
C168  C176  1.406121 A    
C87   C175  1.420122 A    
C14   C53   1.490389 S    
C128  C136  1.423380 A    
C129  C137  1.421506 A    
C49   C75   1.414257 A    
C171  C179  1.403870 A    
O39   C185  1.309726 A    
N8    O64   1.301264 A    
C51   C73   1.413291 A    
O33   C183  1.310105 A    
C111  C119  1.405405 A    
O35   C181  1.309954 A    
C155  H19   1.079927 S    
C120  C128  1.406913 A    
C107  C147  1.409992 A    
C59   C64   1.399652 A    
C121  C129  1.415072 A    
N11   O69   1.302557 A    
C167  H31   1.078369 S    
C56   C61   1.399598 A    
C156  H20   1.074451 S    
C79   C100  1.414197 A    
Cu1   O17   1.972394 S    
C102  C150  1.420429 A    
Cu3   O27   1.961788 S    
C136  C168  1.411497 A    
C106  C154  1.416814 A    
C159  H23   1.079684 S    
C45   C71   1.413830 A    
C140  C172  1.411869 A    
C193  C194  1.527128 S    
C118  N10   1.437843 S    
C192  H42   1.111015 S    
C60   C63   1.399287 A    
O5    Cu5   1.959365 S    
C151  H15   1.079939 S    
N1    O49   1.301128 A    
C82   C90   1.412598 A    
C149  H13   1.079934 S    
C110  C118  1.406816 A    
C37   C41   1.409674 A    
C110  C184  1.490852 S    
O30   C14   1.284292 A    
C21   C72   1.400012 A    
C155  C163  1.392803 A    
C97   C158  1.390805 A    
C153  H17   1.082789 S    
Cu6   O30   1.961635 S    
C41   C65   1.419710 A    
C5    C126  1.484693 S    
O4    C15   1.310392 A    
C43   C67   1.420159 A    
O5    C10   1.310717 A    
C64   H4    1.083285 S    
C106  C114  1.434965 A    
C82   C93   1.410489 A    
C112  C182  1.493182 S    
C72   H8    1.074797 S    
C120  N12   1.436949 S    
C92   C180  1.422000 A    
C17   C25   1.414588 A    
C78   C142  1.426044 A    
C102  C110  1.442367 A    
C76   H12   1.074990 S    
C80   C88   1.412412 A    
C28   N5    1.436948 S    
C81   C89   1.410709 A    
Cu1   Cu6   2.670642 S    
C185  O45   1.289703 A    
C30   N3    1.437112 S    
C182  O42   1.291293 A    
C138  C170  1.411551 A    
Cu3   Cu8   2.669678 S    
N15   O77   1.302573 A    
C84   C92   1.412277 A    
O10   C5    1.305159 A    
O27   C11   1.283732 A    
O15   C4    1.298616 A    
C198  H58   1.109528 S    
C189  H40   1.103509 S    
N10   O68   1.300683 A    
C105  C145  1.406386 A    
O14   C1    1.303967 A    
C48   C70   1.413215 A    
C94   C161  1.406920 A    
C103  C143  1.409834 A    
Cu4   O20   1.972952 S    
C2    C129  1.481982 S    
Cu5   O21   1.972394 S    
C20   C28   1.414837 A    
C5    O21   1.283708 A    
C80   C99   1.410614 A    
C81   C94   1.418127 A    
C173  C189  1.524485 S    
C179  C201  1.524472 S    
Cu9   O48   1.971730 S    
C198  H59   1.110867 S    
Cu10  O47   1.971733 S    
O39   Cu10  1.965282 S    
C26   C28   1.409328 A    
O2    Cu2   1.959363 S    
N5    O57   1.301110 A    
C50   C68   1.410914 A    
C90   C98   1.421958 A    
C88   C96   1.421607 A    
C89   C97   1.409287 A    
C108  C148  1.416892 A    
C135  C167  1.413042 A    
N9    O65   1.302591 A    
C109  C183  1.489422 S    
O37   Cu9   1.965354 S    
C87   C95   1.414515 A    
C133  C165  1.413149 A    
C42   C66   1.419842 A    
C139  C147  1.409972 A    
C172  C180  1.406432 A    
C199  H65   1.102861 S    
C190  H38   1.109795 S    
C113  C121  1.404127 A    
C195  H55   1.102893 S    
C180  C203  1.524972 S    
C46   C72   1.412986 A    
C29   C31   1.409190 A    
C3    C132  1.490831 S    
C46   C54   1.432412 A    
C9    C58   1.490432 S    
C23   C70   1.400451 A    
C2    O18   1.296621 A    
N7    O61   1.301099 A    
N13   O74   1.300966 A    
C85   C173  1.420057 A    
C8    C127  1.487517 S    
N6    O60   1.301272 A    
Cu9   Cu10  2.678716 S    
O15   Cu7   1.965193 S    
C197  H61   1.112083 S    
O16   Cu8   1.965193 S    
O12   Cu4   1.965193 S    
C191  H46   1.112144 S    
C150  C158  1.383731 A    
C194  H48   1.109840 S    
C18   C26   1.414782 A    
C61   H1    1.083286 S    
N11   O70   1.300779 A    
C98   C157  1.400204 A    
C95   C164  1.395072 A    
Cu11  O41   1.972140 S    
C49   C57   1.432830 A    
C102  C142  1.417350 A    
C176  C195  1.524907 S    
O1    C14   1.310331 A    
C204  H73   1.109473 S    
N12   O71   1.302961 A    
O3    C16   1.310650 A    
C203  H76   1.111750 S    
C78   C97   1.409026 A    
C170  H34   1.080148 S    
C69   H5    1.074701 S    
C162  H26   1.081258 S    
C193  H51   1.110614 S    
O36   Cu11  1.965282 S    
Cu2   O18   1.972395 S    
O8    C11   1.310837 A    
C136  C144  1.407680 A    
O9    Cu1   1.964872 S    
C177  C197  1.527573 S    
C104  C152  1.416768 A    
C96   C163  1.400095 A    
C202  H67   1.111011 S    
C52   C60   1.432930 A    
O31   C15   1.284186 A    
C200  H62   1.110917 S    
C23   C37   1.406110 A    
C192  H44   1.110560 S    
C21   C29   1.414947 A    
C82   C146  1.419706 A    
C10   C57   1.490057 S    
C24   C69   1.401207 A    
C135  C143  1.410373 A    
C133  C141  1.409932 A    
C40   C41   1.410232 A    
C131  C139  1.429867 A    
O38   Cu10  1.965351 S    
C77   C141  1.418109 A    
O37   C187  1.297884 A    
O38   C188  1.308019 A    
C197  C198  1.527412 S    
C49   C67   1.410891 A    
C12   C59   1.490655 S    
C25   C27   1.409037 A    
C86   C94   1.425078 A    
C51   C59   1.432123 A    
N2    O51   1.301139 A    
C77   C98   1.413859 A    
C160  H24   1.081296 S    
N4    O56   1.300988 A    
O28   C12   1.284126 A    
N9    O66   1.300766 A    
C174  C191  1.530535 S    
Cu7   O23   1.972953 S    
C20   C34   1.406546 A    
C83   C91   1.408506 A    
Cu8   O24   1.972952 S    
C6    C125  1.486924 S    
C7    O23   1.290335 A    
C62   H2    1.083299 S    
C24   C32   1.415400 A    
O6    C9    1.310006 A    
Cu1   O25   1.961634 S    
C84   C95   1.410852 A    
C70   H6    1.074904 S    
C171  H35   1.078222 S    
C196  H54   1.110217 S    
C104  C112  1.434421 A    
C156  C164  1.389476 A    
C83   C96   1.413908 A    
C1    O17   1.290352 A    
C80   C144  1.419411 A    
C30   C32   1.409959 A    
C74   H10   1.074850 S    
C58   C64   1.399763 A    
