data_mof_unit_51145.cif
_audit_creation_date              2013-03-05T16:06:21-0500
_audit_creation_method            fapswitch 2.2
_symmetry_space_group_name_H-M    P1
_symmetry_Int_Tables_number       1
_space_group_crystal_system       triclinic
_cell_length_a                    10.799371
_cell_length_b                    9.514073
_cell_length_c                    27.806677
_cell_angle_alpha                 89.874341
_cell_angle_beta                  90.136206
_cell_angle_gamma                 90.058401
_cell_volume                      2857.00853459

loop_
_atom_site_label
_atom_site_type_symbol
_atom_site_description
_atom_site_fract_x
_atom_site_fract_y
_atom_site_fract_z
_atom_type_partial_charge
O1    O     O_R   0.319640 0.618740 0.500000 -0.562450
O2    O     O_R   0.680360 0.381260 0.500000 -0.562409
O3    O     O_R   0.680360 0.618740 0.500000 -0.557941
O4    O     O_R   0.319640 0.381260 0.500000 -0.557906
C1    C     C_R   0.262375 0.499874 0.499784 0.948024
C2    C     C_R   0.737625 0.500125 0.500218 0.948603
O5    O     O_R   0.500020 0.618770 0.430260 -0.570060
O6    O     O_R   0.499980 0.381230 0.569740 -0.569541
O7    O     O_R   0.499980 0.618770 0.569740 -0.606949
O8    O     O_R   0.500020 0.381230 0.430260 -0.606239
C3    C     C_R   0.500257 0.500198 0.407422 0.865026
C4    C     C_R   0.499712 0.499808 0.592585 0.864926
Cu1   Cu    Cu3+1 0.500000 0.640660 0.500000 1.040636
Cu2   Cu    Cu3+1 0.500000 0.359340 0.500000 1.041337
C5    C     C_R   0.391079 0.490412 0.178254 0.558768
C6    C     C_R   0.603542 0.488211 0.822109 0.557585
O9    O     O_2   0.285024 0.474836 0.203325 -0.482978
O10   O     O_2   0.710917 0.481527 0.797455 -0.476892
N1    N     N_R   0.500790 0.505714 0.202097 -0.479495
N2    N     N_R   0.493867 0.495244 0.797840 -0.481161
C7    C     C_R   0.610025 0.522958 0.178050 0.583350
C8    C     C_R   0.383066 0.501600 0.821369 0.583909
C9    C     C_R   0.516613 0.629306 0.279139 -0.079601
C10   C     C_R   0.503562 0.370144 0.721013 -0.080831
C11   C     C_R   0.515994 0.628185 0.329260 -0.117553
C12   C     C_R   0.505126 0.371114 0.670888 -0.113270
C13   C     C_R   0.485983 0.375337 0.328649 -0.182165
C14   C     C_R   0.490642 0.625689 0.671267 -0.183431
C15   C     C_R   0.485908 0.376909 0.278484 -0.075227
C16   C     C_R   0.488742 0.624316 0.721420 -0.077392
C17   C     C_R   0.501299 0.503845 0.253638 0.328174
C18   C     C_R   0.495201 0.496608 0.746344 0.331987
C19   C     C_R   0.499081 0.509313 0.101961 -0.083375
C20   C     C_R   0.492349 0.494582 0.897948 -0.084350
C21   C     C_R   0.388213 0.490684 0.127897 -0.022344
C22   C     C_R   0.605084 0.489589 0.872453 -0.022672
C23   C     C_R   0.276787 0.471519 0.103218 -0.091064
C24   C     C_R   0.717154 0.485380 0.897562 -0.091921
C25   C     C_R   0.611609 0.530084 0.127225 -0.144297
C26   C     C_R   0.378990 0.496666 0.872229 -0.145125
C27   C     C_R   0.500766 0.501115 0.354485 -0.011473
C28   C     C_R   0.498675 0.498977 0.645536 -0.010948
H1    H     H_    0.473836 0.275991 0.347141 0.163365
H2    H     H_    0.485469 0.725704 0.652707 0.166346
H3    H     H_    0.474103 0.279606 0.258863 0.151388
H4    H     H_    0.482449 0.722339 0.740971 0.150143
H5    H     H_    0.190835 0.454994 0.122433 0.230721
H6    H     H_    0.804640 0.477784 0.878755 0.234073
C29   C     C_R   0.380521 0.496918 0.974798 -0.011431
C30   C     C_R   0.609381 0.516976 0.024975 -0.012884
C31   C     C_R   0.608437 0.502845 0.974134 0.070473
C32   C     C_R   0.382466 0.492173 0.025963 0.069588
C33   C     C_R   0.493644 0.497959 0.949110 0.078300
C34   C     C_R   0.496991 0.506409 0.050812 0.078417
C35   C     C_R   0.268777 0.500294 0.948374 -0.251748
C36   C     C_R   0.719229 0.545495 0.050754 -0.253967
C37   C     C_R   0.266597 0.497840 0.898229 0.367200
C38   C     C_R   0.721289 0.554639 0.100814 0.364615
O11   O     O_2   0.278187 0.514800 0.795364 -0.432095
O12   O     O_2   0.716400 0.528892 0.203454 -0.434615
C39   C     C_R   0.273642 0.472227 0.053358 -0.177814
C40   C     C_R   0.719045 0.491553 0.947362 -0.182320
H7    H     H_    0.511561 0.271889 0.652050 0.168834
H8    H     H_    0.527864 0.726643 0.348205 0.173667
H9    H     H_    0.508691 0.271218 0.740238 0.148977
H10   H     H_    0.528411 0.727703 0.260038 0.153514
H11   H     H_    0.179814 0.505438 0.965658 0.171523
H12   H     H_    0.804891 0.569384 0.032655 0.175706
C41   C     C_R   0.065019 0.410705 0.531732 0.234446
C42   C     C_R   0.934983 0.589297 0.468274 0.235301
C43   C     C_R   0.935851 0.411599 0.532407 0.235758
C44   C     C_R   0.064148 0.588401 0.467602 0.235074
C45   C     C_R   0.871520 0.500662 0.500484 -0.351028
C46   C     C_R   0.128480 0.499334 0.499520 -0.351415
C47   C     C_R   0.426199 0.074537 0.468906 0.028763
C48   C     C_R   0.573802 0.925465 0.531093 0.027669
C49   C     C_R   0.573708 0.074326 0.531122 0.029337
C50   C     C_R   0.426292 0.925676 0.468879 0.029104
H13   H     H_    0.367039 0.130747 0.444015 0.140393
H14   H     H_    0.632966 0.869256 0.555982 0.142290
H15   H     H_    0.632558 0.130380 0.556094 0.172684
H16   H     H_    0.367445 0.869623 0.443906 0.174389
N3    N     N_R   0.500000 0.852070 0.500000 -0.181924
N4    N     N_R   0.500000 0.147930 0.500000 -0.181208
N5    N     N_R   0.148216 0.491014 0.874858 0.163560
O13   O     O_R   0.116371 0.377011 0.852183 -0.279588
O14   O     O_R   0.063452 0.583043 0.885307 -0.344616
N6    N     N_R   0.834909 0.596288 0.123567 0.172085
O15   O     O_R   0.839031 0.712930 0.147884 -0.277156
O16   O     O_R   0.938226 0.535768 0.111494 -0.354868
H17   H     H_    0.184252 0.452710 0.037492 0.163234
H18   H     H_    0.809064 0.483497 0.963966 0.163655
N7    N     N_R   0.131744 0.327901 0.566279 0.173354
O17   O     O_R   0.192775 0.389377 0.600728 -0.343985
O18   O     O_R   0.144732 0.193400 0.559678 -0.274704
N8    N     N_R   0.868269 0.672088 0.433719 0.172737
O19   O     O_R   0.807025 0.610597 0.399329 -0.347659
O20   O     O_R   0.855700 0.806696 0.440211 -0.275256
N9    N     N_R   0.870578 0.329399 0.567628 0.154450
O21   O     O_R   0.887944 0.194365 0.570521 -0.290459
O22   O     O_R   0.794092 0.389682 0.597184 -0.371219
N10   N     N_R   0.129427 0.670585 0.432382 0.154819
O23   O     O_R   0.112435 0.805713 0.429620 -0.290244
O24   O     O_R   0.205789 0.610270 0.402786 -0.369017

loop_
_geom_bond_atom_site_label_1
_geom_bond_atom_site_label_2
_geom_bond_distance
_ccdc_geom_bond_type
N7    O17   1.301076 A    
C13   C15   1.394962 A    
C42   N8    1.434323 S    
Cu2   N4    2.011371 S    
O3    C2    1.287401 A    
N1    C17   1.433239 S    
N5    O13   1.301330 A    
O5    C3    1.295783 A    
C19   C25   1.416113 A    
O1    C1    1.288413 A    
C9    H10   1.082873 S    
N1    C7    1.366946 A    
C10   C12   1.393979 A    
C41   N7    1.434325 S    
C32   C39   1.414440 A    
C47   N4    1.366969 A    
C1    C46   1.445989 S    
C41   C43   1.395136 A    
C13   C27   1.405864 A    
O7    Cu1   1.949935 S    
C50   N3    1.366786 A    
C37   N5    1.434223 S    
C40   H18   1.077951 S    
C4    C28   1.472442 S    
C23   H5    1.083278 S    
C24   H6    1.083515 S    
O3    Cu1   1.959119 S    
C6    N2    1.363424 A    
N7    O18   1.300918 A    
Cu1   Cu2   2.676499 S    
O2    C2    1.288406 A    
C31   C40   1.413302 A    
C48   N3    1.366971 A    
C5    C21   1.400523 A    
O7    C4    1.296691 A    
C32   C34   1.421774 A    
N5    O14   1.301161 A    
C48   C49   1.416278 A    
C7    O12   1.348358 S    
C44   C46   1.408341 A    
O8    Cu2   1.949935 S    
C11   C27   1.406069 A    
C8    O11   1.348155 S    
C43   C45   1.408401 A    
C49   N4    1.366786 A    
C29   C35   1.411709 A    
C25   C38   1.414122 A    
C43   N9    1.437534 S    
C14   H2    1.082933 S    
C30   C36   1.410989 A    
N8    O20   1.301008 A    
C31   C33   1.420952 A    
C11   H8    1.083057 S    
C9    C17   1.399182 A    
C5    N1    1.364140 A    
C12   H7    1.082998 S    
C10   C18   1.398629 A    
C50   H16   1.081337 S    
C23   C39   1.386770 A    
N9    O21   1.300817 A    
C7    C25   1.414902 A    
C49   H15   1.081359 S    
O6    C4    1.295938 A    
C29   C32   1.423468 A    
C8    C26   1.415717 A    
N8    O19   1.301097 A    
C42   C45   1.407653 A    
C30   C31   1.420402 A    
C41   C46   1.407619 A    
C30   C34   1.415266 A    
N10   O24   1.301130 A    
C10   H9    1.082799 S    
N9    O22   1.301120 A    
N6    O16   1.301196 A    
C35   C37   1.394769 A    
C20   C26   1.416460 A    
O1    Cu1   1.958696 S    
C22   C24   1.396354 A    
C12   C28   1.406360 A    
C2    C45   1.445988 S    
N2    C18   1.432069 S    
C19   C34   1.422763 A    
C5    O9    1.350075 S    
O6    Cu2   1.950843 S    
C26   C37   1.414309 A    
C21   C23   1.395842 A    
C16   H4    1.082802 S    
C48   H14   1.081733 S    
N2    C8    1.366602 A    
O4    C1    1.287392 A    
C38   N6    1.435031 S    
C35   H11   1.076478 S    
Cu1   N3    2.011370 S    
C14   C16   1.394809 A    
C15   C17   1.399968 A    
C36   H12   1.077977 S    
C6    C22   1.400054 A    
C16   C18   1.399188 A    
C44   N10   1.437452 S    
C29   C33   1.416633 A    
C14   C28   1.406101 A    
C19   C21   1.410034 A    
C36   C38   1.395026 A    
C3    C27   1.472029 S    
C20   C22   1.411186 A    
C9    C11   1.393759 A    
O4    Cu2   1.959119 S    
N10   O23   1.300906 A    
O2    Cu2   1.958696 S    
C47   C50   1.416275 A    
O8    C3    1.296640 A    
C13   H1    1.083022 S    
O5    Cu1   1.950843 S    
N6    O15   1.301447 A    
C20   C33   1.423097 A    
C6    O10   1.350104 S    
C15   H3    1.082853 S    
C42   C44   1.395106 A    
C47   H13   1.081749 S    
C39   H17   1.076566 S    
C24   C40   1.386242 A    
