data_mof_unit_55389.cif
_audit_creation_date              2012-12-10T20:41:55-0500
_audit_creation_method            fapswitch 2.2
_symmetry_space_group_name_H-M    P1
_symmetry_Int_Tables_number       1
_space_group_crystal_system       triclinic
_cell_length_a                    14.957122
_cell_length_b                    15.175387
_cell_length_c                    9.933512
_cell_angle_alpha                 89.679915
_cell_angle_beta                  90.255303
_cell_angle_gamma                 89.71521
_cell_volume                      2254.62399377

loop_
_atom_site_label
_atom_site_type_symbol
_atom_type_description
_atom_site_fract_x
_atom_site_fract_y
_atom_site_fract_z
_atom_type_partial_charge
C1    C     C_R   0.381674 0.878621 0.500140 0.876149
C2    C     C_R   0.380396 0.119939 0.499996 0.884796
C3    C     C_R   0.881674 0.378621 0.500140 0.876147
C4    C     C_R   0.880396 0.619938 0.499995 0.884791
C5    C     C_3   0.182496 0.115055 0.621452 -0.485279
C6    C     C_3   0.244823 0.825108 0.732220 -0.471404
C7    C     C_3   0.682477 0.615037 0.621378 -0.485266
C8    C     C_3   0.744826 0.325105 0.732224 -0.471400
C9    C     C_R   0.422050 0.991735 0.069645 0.056844
C10   C     C_R   0.922049 0.491742 0.069645 0.056841
C11   C     C_R   0.577915 0.999530 0.072564 0.383626
C12   C     C_R   0.077915 0.499528 0.072564 0.383628
C13   C     C_R   0.578081 0.000081 0.928875 0.253348
C14   C     C_R   0.078081 0.500078 0.928875 0.253350
C15   C     C_R   0.422382 0.987794 0.928059 0.045449
C16   C     C_R   0.922381 0.487801 0.928059 0.045431
C17   C     C_3   0.339324 0.041044 0.914280 -0.507015
C18   C     C_3   0.839328 0.541062 0.914281 -0.506977
C19   C     C_3   0.342794 0.052656 0.065968 0.477034
C20   C     C_3   0.842799 0.552671 0.065969 0.477028
C21   C     C_R   0.621373 0.118475 0.499985 0.892266
C22   C     C_R   0.620416 0.880965 0.500598 0.888415
C23   C     C_R   0.121373 0.618475 0.499985 0.892267
C24   C     C_R   0.120417 0.380966 0.500598 0.888423
C25   C     C_R   0.249650 0.185973 0.597336 0.125700
C26   C     C_R   0.289556 0.774515 0.622513 0.125399
C27   C     C_R   0.749635 0.685958 0.597312 0.125686
C28   C     C_R   0.789558 0.274514 0.622513 0.125398
C29   C     C_R   0.317785 0.189237 0.502827 -0.082251
C30   C     C_R   0.324848 0.804176 0.501151 -0.113483
C31   C     C_R   0.817782 0.689234 0.502825 -0.082232
C32   C     C_R   0.824848 0.304177 0.501151 -0.113485
C33   C     C_R   0.330373 0.264333 0.423131 -0.156400
C34   C     C_R   0.306669 0.759040 0.381470 -0.188151
C35   C     C_R   0.830379 0.764339 0.423152 -0.156398
C36   C     C_R   0.806667 0.259042 0.381469 -0.188152
C37   C     C_R   0.765196 0.829425 0.422632 -0.142370
C38   C     C_R   0.741633 0.194736 0.381294 -0.169382
C39   C     C_R   0.265189 0.329419 0.422610 -0.142382
C40   C     C_R   0.241635 0.694733 0.381295 -0.169377
C41   C     C_R   0.690114 0.818680 0.504378 -0.100189
C42   C     C_R   0.695917 0.175913 0.500901 -0.121013
C43   C     C_R   0.190116 0.318683 0.504378 -0.100211
C44   C     C_R   0.195917 0.675913 0.500901 -0.121012
C45   C     C_R   0.686067 0.750816 0.598421 0.167046
C46   C     C_R   0.725549 0.210777 0.622409 0.174687
C47   C     C_R   0.186082 0.250831 0.598444 0.167065
C48   C     C_R   0.225547 0.710778 0.622409 0.174683
C49   C     C_3   0.612010 0.687161 0.623224 -0.462540
C50   C     C_3   0.673701 0.254327 0.732164 -0.425033
C51   C     C_3   0.112029 0.187180 0.623296 -0.462524
C52   C     C_3   0.173697 0.754330 0.732160 -0.425028
H1    H     H_    0.388633 0.271300 0.359774 0.196647
H2    H     H_    0.337949 0.777018 0.287127 0.193403
H3    H     H_    0.888646 0.771311 0.359809 0.196631
H4    H     H_    0.837945 0.277021 0.287125 0.193402
H5    H     H_    0.772143 0.886237 0.357228 0.214303
H6    H     H_    0.723605 0.164494 0.286724 0.224643
H7    H     H_    0.272129 0.386223 0.357189 0.214324
H8    H     H_    0.223609 0.664490 0.286726 0.224645
H9    H     H_    0.581167 0.696448 0.723802 0.226351
H10   H     H_    0.673181 0.214303 0.826220 0.240911
H11   H     H_    0.081202 0.196483 0.723881 0.226360
H12   H     H_    0.173176 0.714308 0.826217 0.240910
H13   H     H_    0.563858 0.683644 0.537758 0.204787
H14   H     H_    0.607040 0.278571 0.697874 0.203874
H15   H     H_    0.063864 0.183649 0.537848 0.204779
H16   H     H_    0.107037 0.778573 0.697866 0.203873
H17   H     H_    0.191632 0.082399 0.720823 0.212826
H18   H     H_    0.285457 0.825879 0.826196 0.224100
H19   H     H_    0.691600 0.582364 0.720739 0.212810
H20   H     H_    0.785463 0.325875 0.826199 0.224100
H21   H     H_    0.175758 0.069450 0.534735 0.223863
H22   H     H_    0.219615 0.890602 0.697870 0.201386
H23   H     H_    0.675754 0.569446 0.534641 0.223884
H24   H     H_    0.719618 0.390600 0.697877 0.201383
H25   H     H_    0.349175 0.102789 0.855822 0.238225
H26   H     H_    0.282584 0.000118 0.879174 0.193992
H27   H     H_    0.849189 0.602806 0.855826 0.238225
H28   H     H_    0.782583 0.500143 0.879170 0.193994
N1    N     N_R   0.499140 0.000000 0.142800 -0.150658
N2    N     N_R   0.999140 0.500000 0.142800 -0.150657
N3    N     N_R   0.499160 0.000000 0.857150 -0.139026
N4    N     N_R   0.999160 0.500000 0.857150 -0.139028
O1    O     O_R   0.408400 0.908380 0.614690 -0.618835
O2    O     O_R   0.408400 0.091620 0.614690 -0.632234
O3    O     O_R   0.908400 0.408380 0.614690 -0.618835
O4    O     O_R   0.908400 0.591620 0.614690 -0.632236
O5    O     O_R   0.408370 0.908370 0.385350 -0.604137
O6    O     O_R   0.408370 0.091630 0.385350 -0.563821
O7    O     O_R   0.908370 0.408370 0.385350 -0.604140
O8    O     O_R   0.908370 0.591630 0.385350 -0.563817
O9    O     O_R   0.591610 0.091610 0.614650 -0.590878
O10   O     O_R   0.591610 0.908390 0.614650 -0.584519
O11   O     O_R   0.091610 0.591610 0.614650 -0.590878
O12   O     O_R   0.091610 0.408390 0.614650 -0.584522
O13   O     O_R   0.591590 0.091600 0.385310 -0.581295
O14   O     O_R   0.591590 0.908400 0.385310 -0.576079
O15   O     O_R   0.091590 0.591600 0.385310 -0.581290
O16   O     O_R   0.091590 0.408400 0.385310 -0.576084
Zn1   Zn    Zn3+2 0.500010 0.000000 0.653130 0.994434
Zn2   Zn    Zn3+2 0.000010 0.500000 0.653130 0.994430
Zn3   Zn    Zn3+2 0.499980 0.000000 0.346870 1.043152
Zn4   Zn    Zn3+2 0.999980 0.500000 0.346870 1.043153
Br1   Br    Br    0.369484 0.174257 0.110360 -0.462044
Br2   Br    Br    0.240196 0.005535 0.160428 -0.477413
Br3   Br    Br    0.869501 0.674269 0.110369 -0.462022
Br4   Br    Br    0.740196 0.505558 0.160426 -0.477425
Cl1   Cl    Cl    0.680166 0.999796 0.160221 -0.573761
Cl2   Cl    Cl    0.180166 0.499794 0.160220 -0.573776
Br5   Br    Br    0.690757 0.000952 0.836939 -0.408466
Br6   Br    Br    0.190757 0.500947 0.836939 -0.408466

loop_
_geom_bond_atom_site_label_1
_geom_bond_atom_site_label_2
_ccdc_geom_bond_type
C23   O15   A    
C40   H8    S    
O12   Zn2   S    
C11   Cl1   S    
N4    Zn2   S    
C14   N4    A    
O7    Zn4   S    
C12   Cl2   S    
C11   N1    A    
C14   Br6   S    
C28   C46   A    
C33   C39   A    
C49   H13   S    
C2    C29   S    
C34   C40   A    
C32   C36   A    
C35   C37   A    
C38   C42   A    
C24   O12   A    
C7    H19   S    
C22   C41   S    
O14   Zn3   S    
C29   C33   A    
C16   N4    A    
C7    C27   S    
C3    O7    A    
C42   C46   A    
C2    O6    A    
C27   C31   A    
C17   H26   S    
C5    H17   S    
C38   H6    S    
C9    C19   S    
O16   Zn4   S    
C47   C51   S    
O10   Zn1   S    
C10   C20   S    
C18   H27   S    
C25   C47   A    
C40   C44   A    
C52   H16   S    
O11   Zn2   S    
C26   C48   A    
C20   Br3   S    
C27   C45   A    
O15   Zn4   S    
O5    Zn3   S    
C25   C29   A    
C22   O10   A    
C20   Br4   S    
C6    H22   S    
C33   H1    S    
C8    H20   S    
C49   H9    S    
C30   C34   A    
C35   H3    S    
C28   C32   A    
C51   H11   S    
C7    C49   S    
C52   H12   S    
O9    Zn1   S    
C22   O14   A    
C7    H23   S    
C3    O3    A    
C10   N2    A    
C23   C44   S    
N2    Zn4   S    
C36   H4    S    
O3    Zn2   S    
C21   O13   A    
C45   C49   S    
C39   H7    S    
C17   H25   S    
C12   N2    A    
C51   H15   S    
C50   H14   S    
O13   Zn3   S    
C5    C25   S    
C19   Br1   S    
C18   H28   S    
C12   C14   A    
C34   H2    S    
C8    H24   S    
C50   H10   S    
C31   C35   A    
C1    O1    A    
C8    C50   S    
O1    Zn1   S    
N1    Zn3   S    
C6    H18   S    
C46   C50   S    
C1    O5    A    
N3    Zn1   S    
C24   O16   A    
C5    H21   S    
O4    Zn2   S    
C26   C30   A    
C4    O4    A    
C13   N3    A    
C36   C38   A    
C9    C15   A    
C13   Br5   S    
C10   C16   A    
C11   C13   A    
C6    C26   S    
C21   O9    A    
C15   N3    A    
C1    C30   S    
C17   C19   S    
C23   O11   A    
C2    O2    A    
C18   C20   S    
C37   C41   A    
C3    C32   S    
O6    Zn3   S    
C4    C31   S    
O8    Zn4   S    
C21   C42   S    
C19   Br2   S    
C48   C52   S    
C39   C43   A    
C8    C28   S    
C16   C18   S    
C24   C43   S    
C41   C45   A    
C5    C51   S    
C6    C52   S    
C15   C17   S    
O2    Zn1   S    
C43   C47   A    
C37   H5    S    
C44   C48   A    
C9    N1    A    
C4    O8    A    
