data_mof_unit_25142.cif
_audit_creation_date              2012-12-11T14:01:29-0500
_audit_creation_method            fapswitch 2.2
_symmetry_space_group_name_H-M    P1
_symmetry_Int_Tables_number       1
_space_group_crystal_system       triclinic
_cell_length_a                    19.263524
_cell_length_b                    11.022614
_cell_length_c                    18.675806
_cell_angle_alpha                 90.34593
_cell_angle_beta                  89.156622
_cell_angle_gamma                 90.649744
_cell_volume                      3964.76296648

loop_
_atom_site_label
_atom_site_type_symbol
_atom_type_description
_atom_site_fract_x
_atom_site_fract_y
_atom_site_fract_z
_atom_type_partial_charge
C1    C     C_R   0.292875 0.988537 0.858672 0.613193
C2    C     C_R   0.729255 0.045476 0.149526 0.605446
C3    C     C_R   0.792874 0.488537 0.858672 0.613182
C4    C     C_R   0.229254 0.545475 0.149525 0.605447
C5    C     C_R   0.512430 0.054543 0.056480 -0.103011
C6    C     C_R   0.536339 0.049809 0.908989 -0.093933
C7    C     C_R   0.012417 0.554537 0.056484 -0.102995
C8    C     C_R   0.036330 0.549821 0.908994 -0.093928
C9    C     C_R   0.004543 0.661652 0.015390 0.297814
C10   C     C_R   0.024434 0.661236 0.942865 0.313345
C11   C     C_R   0.504553 0.161652 0.015381 0.297815
C12   C     C_R   0.524442 0.161227 0.942855 0.313358
C13   C     C_2   0.250609 0.615452 0.924941 0.015394
C14   C     C_2   0.762398 0.565306 0.086067 0.035269
C15   C     C_2   0.750612 0.115457 0.924942 0.015394
C16   C     C_2   0.262401 0.065302 0.086069 0.035275
C17   C     C_2   0.250883 0.573965 0.078332 0.183869
C18   C     C_2   0.791911 0.475644 0.937519 0.148006
C19   C     C_2   0.750884 0.073968 0.078333 0.183871
C20   C     C_2   0.291914 0.975645 0.937519 0.148009
C21   C     C_2   0.223920 0.500794 0.027647 -0.155558
C22   C     C_2   0.734014 0.452473 0.977118 -0.082849
C23   C     C_2   0.723922 0.000799 0.027647 -0.155559
C24   C     C_2   0.234018 0.952469 0.977120 -0.082841
C25   C     C_2   0.244485 0.505994 0.952130 0.244558
C26   C     C_2   0.731729 0.466028 0.057841 0.350827
C27   C     C_2   0.744487 0.005999 0.952130 0.244565
C28   C     C_2   0.231733 0.966022 0.057842 0.350834
C29   C     C_2   0.485057 0.828429 0.570669 -0.104050
C30   C     C_2   0.485745 0.839279 0.414557 -0.115311
C31   C     C_2   0.985057 0.328429 0.570669 -0.104049
C32   C     C_2   0.985745 0.339279 0.414557 -0.115311
C33   C     C_2   0.465241 0.742067 0.451286 -0.157068
C34   C     C_2   0.451193 0.749960 0.527471 -0.148744
C35   C     C_2   0.965241 0.242067 0.451286 -0.157067
C36   C     C_2   0.951193 0.249960 0.527471 -0.148745
C37   C     C_2   0.248801 0.561135 0.583947 0.246528
C38   C     C_2   0.750354 0.561848 0.415838 0.251400
C39   C     C_2   0.748801 0.061135 0.583947 0.246527
C40   C     C_2   0.250354 0.061847 0.415838 0.251400
C41   C     C_2   0.237375 0.573706 0.426468 -0.071391
C42   C     C_2   0.762356 0.573063 0.573690 -0.075268
C43   C     C_2   0.737375 0.073705 0.426468 -0.071391
C44   C     C_2   0.262356 0.073063 0.573690 -0.075268
C45   C     C_R   0.474965 0.822060 0.849358 0.592886
C46   C     C_R   0.557681 0.819611 0.137596 0.600819
C47   C     C_R   0.974966 0.322062 0.849356 0.592906
C48   C     C_R   0.057679 0.319611 0.137595 0.600828
C49   C     C_2   0.185264 0.547611 0.472817 -0.129987
C50   C     C_2   0.814186 0.548893 0.526834 -0.134539
C51   C     C_2   0.685264 0.047610 0.472817 -0.129987
C52   C     C_2   0.314186 0.048893 0.526834 -0.134541
C53   C     C_2   0.189809 0.575302 0.548519 -0.143047
C54   C     C_2   0.809503 0.576972 0.451342 -0.142218
C55   C     C_2   0.689809 0.075301 0.548519 -0.143048
C56   C     C_2   0.309503 0.076972 0.451342 -0.142218
C57   C     C_R   0.260395 0.639190 0.850886 0.578272
C58   C     C_R   0.742295 0.627697 0.153078 0.581668
C59   C     C_R   0.760396 0.139193 0.850887 0.578274
C60   C     C_R   0.242296 0.127694 0.153080 0.581672
C61   C     C_R   0.273922 0.043814 0.647300 0.545685
C62   C     C_R   0.726046 0.043873 0.352691 0.538157
C63   C     C_R   0.773922 0.543814 0.647300 0.545678
C64   C     C_R   0.226046 0.543873 0.352691 0.538156
C65   C     C_R   0.467873 0.823267 0.646025 0.545161
C66   C     C_R   0.527273 0.824386 0.350228 0.569344
C67   C     C_R   0.967873 0.323267 0.646025 0.545167
C68   C     C_R   0.027273 0.324386 0.350228 0.569344
C69   C     C_R   0.260534 0.633961 0.647617 0.551724
C70   C     C_R   0.739234 0.633885 0.352371 0.560882
C71   C     C_R   0.760533 0.133961 0.647617 0.551723
C72   C     C_R   0.239235 0.133885 0.352371 0.560878
C73   C     C_R   0.542468 0.831561 0.059740 0.026907
C74   C     C_R   0.519790 0.830161 0.912170 0.039305
C75   C     C_R   0.042465 0.331560 0.059737 0.026896
C76   C     C_R   0.019793 0.330172 0.912166 0.039301
C77   C     C_R   0.529365 0.943273 0.023165 -0.019192
C78   C     C_R   0.530008 0.941508 0.947391 -0.020773
C79   C     C_R   0.029357 0.443273 0.023166 -0.019198
C80   C     C_R   0.030002 0.441516 0.947392 -0.020776
C81   C     C_R   0.539810 0.724096 0.946890 0.300541
C82   C     C_R   0.562279 0.733887 0.016433 0.199722
C83   C     C_R   0.039827 0.224111 0.946877 0.300532
C84   C     C_R   0.062284 0.233894 0.016426 0.199741
Cr1   Cr    Cr6+3 0.230530 0.836340 0.748870 1.008911
Cr2   Cr    Cr6+3 0.769470 0.836340 0.251130 0.994747
Cr3   Cr    Cr6+3 0.730530 0.336340 0.748870 1.008909
Cr4   Cr    Cr6+3 0.269470 0.336340 0.251130 0.994758
Cr5   Cr    Cr6+3 0.387420 0.989430 0.750820 0.990062
Cr6   Cr    Cr6+3 0.612580 0.989430 0.249180 0.994031
Cr7   Cr    Cr6+3 0.887420 0.489430 0.750820 0.990068
Cr8   Cr    Cr6+3 0.112580 0.489430 0.249180 0.994030
Cr9   Cr    Cr6+3 0.385640 0.677860 0.749230 1.050201
Cr10  Cr    Cr6+3 0.614360 0.677860 0.250770 1.036998
Cr11  Cr    Cr6+3 0.885640 0.177860 0.749230 1.050196
Cr12  Cr    Cr6+3 0.114360 0.177860 0.250770 1.036997
H1    H     H_    0.135558 0.513206 0.454038 0.134039
H2    H     H_    0.863898 0.516115 0.545124 0.139377
H3    H     H_    0.635558 0.013206 0.454038 0.134039
H4    H     H_    0.363898 0.016115 0.545124 0.139378
H5    H     H_    0.144616 0.616022 0.574058 0.101392
H6    H     H_    0.854950 0.618399 0.425971 0.103431
H7    H     H_    0.644615 0.116021 0.574058 0.101391
H8    H     H_    0.354950 0.118399 0.425971 0.103432
H9    H     H_    0.287065 0.611409 0.442579 0.138310
H10   H     H_    0.712684 0.609167 0.558130 0.147042
H11   H     H_    0.787064 0.111409 0.442579 0.138311
H12   H     H_    0.212684 0.109167 0.558130 0.147043
H13   H     H_    0.499892 0.057662 0.112405 0.144117
H14   H     H_    0.549144 0.045943 0.852541 0.114189
H15   H     H_    0.999874 0.557646 0.112409 0.144117
H16   H     H_    0.049136 0.545963 0.852546 0.114193
H17   H     H_    0.184508 0.433898 0.042114 0.147617
H18   H     H_    0.685206 0.441840 0.949461 0.170438
H19   H     H_    0.684509 0.933904 0.042113 0.147621
H20   H     H_    0.185210 0.941830 0.949463 0.170437
H21   H     H_    0.240122 0.695113 0.957807 0.110420
H22   H     H_    0.794026 0.622375 0.051362 0.097749
H23   H     H_    0.740127 0.195118 0.957808 0.110426
H24   H     H_    0.294026 0.122374 0.051364 0.097752
H25   H     H_    0.465537 0.651954 0.427338 0.161102
H26   H     H_    0.415885 0.681507 0.549319 0.191048
H27   H     H_    0.965537 0.151954 0.427338 0.161101
H28   H     H_    0.915885 0.181507 0.549319 0.191048
H29   H     H_    0.481312 0.929887 0.437402 0.089711
H30   H     H_    0.520463 0.898101 0.550660 0.080589
H31   H     H_    0.981313 0.429887 0.437402 0.089711
H32   H     H_    0.020463 0.398101 0.550660 0.080590
O1    O     O_R   0.215090 0.709860 0.828130 -0.558136
O2    O     O_R   0.784910 0.709860 0.171870 -0.561482
O3    O     O_R   0.715090 0.209860 0.828130 -0.558123
O4    O     O_R   0.284910 0.209860 0.171870 -0.561475
O5    O     O_R   0.445660 0.919250 0.676780 -0.515353
O6    O     O_R   0.554340 0.919250 0.323220 -0.505379
O7    O     O_R   0.945660 0.419250 0.676780 -0.515352
O8    O     O_R   0.054340 0.419250 0.323220 -0.505380
O9    O     O_R   0.456260 0.718170 0.670000 -0.505973
O10   O     O_R   0.543740 0.718170 0.330000 -0.502772
O11   O     O_R   0.956260 0.218170 0.670000 -0.505968
O12   O     O_R   0.043740 0.218170 0.330000 -0.502773
O13   O     O_R   0.320940 0.626760 0.674370 -0.492338
O14   O     O_R   0.679060 0.626760 0.325630 -0.481653
O15   O     O_R   0.820940 0.126760 0.674370 -0.492339
O16   O     O_R   0.179060 0.126760 0.325630 -0.481655
O17   O     O_3   0.334530 0.834540 0.749640 -0.285497
O18   O     O_3   0.665470 0.834540 0.250360 -0.265363
O19   O     O_3   0.834530 0.334540 0.749640 -0.285496
O20   O     O_3   0.165470 0.334540 0.250360 -0.265359
O21   O     O_R   0.236990 0.958390 0.823710 -0.500179
O22   O     O_R   0.763010 0.958390 0.176290 -0.513626
O23   O     O_R   0.736990 0.458390 0.823710 -0.500192
O24   O     O_R   0.263010 0.458390 0.176290 -0.513618
O25   O     O_R   0.332380 0.074750 0.830850 -0.520803
O26   O     O_R   0.667620 0.074750 0.169150 -0.542593
O27   O     O_R   0.832380 0.574750 0.830850 -0.520805
O28   O     O_R   0.167620 0.574750 0.169150 -0.542596
O29   O     O_R   0.445800 0.917770 0.825070 -0.511947
O30   O     O_R   0.554200 0.917770 0.174930 -0.527205
O31   O     O_R   0.945800 0.417770 0.825070 -0.511948
O32   O     O_R   0.054200 0.417770 0.174930 -0.527207
O33   O     O_R   0.456410 0.716580 0.829970 -0.451267
O34   O     O_R   0.543590 0.716580 0.170030 -0.496686
O35   O     O_R   0.956410 0.216580 0.829970 -0.451275
O36   O     O_R   0.043590 0.216580 0.170030 -0.496677
O37   O     O_R   0.321080 0.625290 0.822650 -0.481022
O38   O     O_R   0.678920 0.625290 0.177350 -0.478868
O39   O     O_R   0.821080 0.125290 0.822650 -0.481029
O40   O     O_R   0.178920 0.125290 0.177350 -0.478863
O41   O     O_R   0.214930 0.711450 0.668160 -0.548814
O42   O     O_R   0.785070 0.711450 0.331840 -0.544390
O43   O     O_R   0.714930 0.211450 0.668160 -0.548817
O44   O     O_R   0.285070 0.211450 0.331840 -0.544389
O45   O     O_R   0.236850 0.959870 0.675420 -0.476149
O46   O     O_R   0.763150 0.959870 0.324580 -0.482452
O47   O     O_R   0.736850 0.459870 0.675420 -0.476154
O48   O     O_R   0.263150 0.459870 0.324580 -0.482451
O49   O     O_R   0.332230 0.076350 0.670880 -0.534994
O50   O     O_R   0.667770 0.076350 0.329120 -0.530216
O51   O     O_R   0.832230 0.576350 0.670880 -0.534991
O52   O     O_R   0.167770 0.576350 0.329120 -0.530216
Cl1   Cl    Cl    0.554992 0.585810 0.900472 -0.561267
Cl2   Cl    Cl    0.647375 0.693078 0.023062 -0.752101
Cl3   Cl    Cl    0.055059 0.085877 0.900430 -0.561273
Cl4   Cl    Cl    0.147373 0.193062 0.023077 -0.752058
O53   O     O_3   0.304979 0.502992 0.552261 -0.581120
C85   C     C_3   0.313828 0.389571 0.585063 0.008663
H33   H     H_    0.271473 0.326347 0.568791 0.137514
H34   H     H_    0.314306 0.396615 0.644622 0.139417
C86   C     C_3   0.383182 0.338197 0.560321 -0.370033
H35   H     H_    0.425838 0.402643 0.573832 0.156098
H36   H     H_    0.392698 0.250804 0.587390 0.121632
H37   H     H_    0.383147 0.323061 0.501473 0.156099
O54   O     O_3   0.693717 0.502953 0.447157 -0.565760
C87   C     C_3   0.684704 0.388573 0.414344 0.012005
H38   H     H_    0.727835 0.327815 0.429130 0.133364
H39   H     H_    0.682556 0.395199 0.354890 0.143575
C88   C     C_3   0.616333 0.333530 0.440907 -0.363443
H40   H     H_    0.572937 0.395415 0.428972 0.157816
H41   H     H_    0.606522 0.245383 0.413766 0.121164
H42   H     H_    0.618117 0.318928 0.499639 0.156925
O55   O     O_3   0.804979 0.002992 0.552261 -0.581119
C89   C     C_3   0.813828 0.889571 0.585062 0.008661
H43   H     H_    0.771473 0.826347 0.568791 0.137512
H44   H     H_    0.814307 0.896614 0.644621 0.139417
C90   C     C_3   0.883182 0.838197 0.560320 -0.370032
H45   H     H_    0.925839 0.902643 0.573831 0.156099
H46   H     H_    0.892698 0.750804 0.587390 0.121633
H47   H     H_    0.883147 0.823061 0.501472 0.156098
O56   O     O_3   0.193717 0.002952 0.447157 -0.565759
C91   C     C_3   0.184704 0.888573 0.414344 0.012005
H48   H     H_    0.227835 0.827815 0.429129 0.133364
H49   H     H_    0.182556 0.895199 0.354890 0.143574
C92   C     C_3   0.116333 0.833530 0.440906 -0.363443
H50   H     H_    0.072937 0.895416 0.428972 0.157815
H51   H     H_    0.106522 0.745383 0.413766 0.121164
H52   H     H_    0.118117 0.818928 0.499639 0.156925
O57   O     O_3   0.977070 0.769491 0.041553 -0.570628
C93   C     C_3   0.939411 0.757767 0.106385 -0.053476
H53   H     H_    0.975302 0.743589 0.151574 0.103817
H54   H     H_    0.901215 0.681690 0.103753 0.175535
C94   C     C_3   0.900403 0.874586 0.120401 -0.300697
H55   H     H_    0.855171 0.878554 0.084508 0.180758
H56   H     H_    0.883156 0.877447 0.177270 0.150995
H57   H     H_    0.933612 0.955546 0.110151 0.184024
O58   O     O_3   0.034328 0.772179 0.908495 -0.523364
C95   C     C_3   0.006713 0.774766 0.838518 -0.016735
H58   H     H_    0.977600 0.860464 0.833647 0.181105
H59   H     H_    0.969278 0.699786 0.826501 0.118776
C96   C     C_3   0.064483 0.779520 0.782011 -0.321725
H60   H     H_    0.092278 0.692253 0.779035 0.151305
H61   H     H_    0.041910 0.796976 0.728725 0.071612
H62   H     H_    0.101694 0.853971 0.794687 0.221837
O59   O     O_3   0.477078 0.269492 0.041540 -0.570613
C97   C     C_3   0.439416 0.257772 0.106370 -0.053471
H63   H     H_    0.475304 0.243604 0.151562 0.103815
H64   H     H_    0.401222 0.181689 0.103739 0.175534
C98   C     C_3   0.400401 0.374587 0.120379 -0.300699
H65   H     H_    0.355167 0.378539 0.084489 0.180738
H66   H     H_    0.383157 0.377459 0.177248 0.150993
H67   H     H_    0.433605 0.455549 0.110120 0.184051
O60   O     O_3   0.534330 0.272165 0.908478 -0.523328
C99   C     C_3   0.506710 0.274738 0.838503 -0.016721
H68   H     H_    0.477592 0.360430 0.833629 0.181101
H69   H     H_    0.469277 0.199751 0.826492 0.118791
C100  C     C_3   0.564476 0.279491 0.781992 -0.321740
H70   H     H_    0.592281 0.192233 0.779026 0.151322
H71   H     H_    0.541898 0.296919 0.728705 0.071602
H72   H     H_    0.601680 0.353960 0.794657 0.221803
O61   O     O_3   0.239251 0.406111 0.906988 -0.551830
C101  C     C_3   0.278994 0.309755 0.933111 0.025632
H73   H     H_    0.257708 0.224512 0.910206 0.218091
H74   H     H_    0.276553 0.299874 0.992171 0.151563
C102  C     C_3   0.354149 0.323656 0.909126 -0.345687
H75   H     H_    0.377834 0.406250 0.933373 0.197718
H76   H     H_    0.383337 0.243284 0.926612 0.182765
H77   H     H_    0.356762 0.330404 0.849862 0.151830
O62   O     O_3   0.698948 0.384113 0.104128 -0.544505
C103  C     C_3   0.634309 0.342900 0.078603 0.012797
H78   H     H_    0.619769 0.259819 0.108583 0.176094
H79   H     H_    0.635642 0.312998 0.021839 0.145342
C104  C     C_3   0.578240 0.436760 0.093609 -0.299454
H80   H     H_    0.600077 0.525322 0.106458 0.234823
H81   H     H_    0.545724 0.449933 0.045928 0.229832
H82   H     H_    0.547214 0.410816 0.141540 0.102101
O63   O     O_3   0.739255 0.906117 0.906988 -0.551835
C105  C     C_3   0.778994 0.809757 0.933113 0.025624
H83   H     H_    0.757710 0.724518 0.910201 0.218083
H84   H     H_    0.776546 0.799872 0.992172 0.151585
C106  C     C_3   0.854152 0.823656 0.909140 -0.345695
H85   H     H_    0.883329 0.743255 0.926602 0.182748
H86   H     H_    0.856773 0.830459 0.849879 0.151836
H87   H     H_    0.877842 0.906217 0.933420 0.197703
O64   O     O_3   0.198954 0.884105 0.104129 -0.544505
C107  C     C_3   0.134315 0.842889 0.078604 0.012796
H88   H     H_    0.119778 0.759801 0.108580 0.176100
H89   H     H_    0.135646 0.812995 0.021839 0.145334
C108  C     C_3   0.078243 0.936739 0.093619 -0.299459
H90   H     H_    0.100077 0.025301 0.106473 0.234827
H91   H     H_    0.045725 0.949918 0.045940 0.229805
H92   H     H_    0.047220 0.910782 0.141549 0.102096
Cl5   Cl    Cl    0.326703 0.664249 0.066620 -0.594494
Cl6   Cl    Cl    0.872642 0.472523 0.978092 -0.666502
Cl7   Cl    Cl    0.826704 0.164252 0.066623 -0.594492
Cl8   Cl    Cl    0.372646 0.972538 0.978090 -0.666512

loop_
_geom_bond_atom_site_label_1
_geom_bond_atom_site_label_2
_ccdc_geom_bond_type
Cr12  O12   S    
C16   C28   D    
C87   H39   S    
C38   C70   S    
C100  H71   S    
Cr10  O18   S    
Cr4   O44   S    
C37   C69   S    
Cr8   O20   S    
C107  C108  S    
Cr4   O24   S    
O55   C89   S    
C19   C23   D    
C35   C36   S    
C81   Cl1   S    
Cr10  O38   S    
Cr7   O19   S    
C81   C82   A    
O53   C85   S    
C59   O39   A    
C94   H57   S    
C47   O31   A    
C92   H50   S    
C88   H42   S    
Cr5   O17   S    
C48   O32   A    
C59   O3    A    
O61   C101  S    
C60   O40   A    
C75   C79   A    
C41   H9    S    
C2    O22   A    
C74   C78   A    
C72   O44   A    
C32   H31   S    
C57   O1    A    
C36   H28   S    
Cr1   O17   S    
C47   C76   S    
C5    C11   A    
C96   H62   S    
C8    H16   S    
Cr9   O9    S    
C6    C12   A    
C104  H80   S    
Cr6   O6    S    
C75   C84   A    
C6    C78   A    
C87   C88   S    
C13   C57   S    
C88   H40   S    
C69   O13   A    
C46   O30   A    
C55   H7    S    
O60   C99   S    
C63   O51   A    
C3    C18   S    
C7    C9    A    
O62   C103  S    
C16   C60   S    
Cr3   O3    S    
Cr3   O47   S    
C88   H41   S    
C45   O33   A    
C21   C25   S    
Cr8   O52   S    
C67   O7    A    
Cr1   O1    S    
C66   O6    A    
C15   C27   D    
C37   O53   S    
C20   C24   D    
C53   H5    S    
C40   C56   D    
C89   C90   S    
C38   C54   D    
C10   O58   S    
C99   H69   S    
Cr12  O40   S    
C1    O21   A    
C107  H88   S    
C23   C27   S    
C64   O48   A    
C18   C22   D    
C67   O11   A    
O59   C97   S    
Cr10  O34   S    
Cr7   O31   S    
C17   Cl5   S    
C24   H20   S    
C77   C78   A    
C32   C68   S    
C47   O35   A    
C44   C52   D    
C101  C102  S    
C90   H46   S    
C87   H38   S    
C30   H29   S    
Cr9   O37   S    
C34   H26   S    
Cr3   O23   S    
C106  H85   S    
C85   H34   S    
C33   H25   S    
C6    H14   S    
C48   C75   S    
C13   C25   D    
Cr8   O8    S    
C97   H64   S    
C65   O9    A    
Cr3   O19   S    
C4    O24   A    
Cr2   O18   S    
C76   C83   A    
C41   C49   D    
O58   C95   S    
C18   Cl6   S    
Cr1   O21   S    
C44   H12   S    
C64   O52   A    
C51   H3    S    
C26   O62   S    
C14   C58   S    
O56   C91   S    
C39   C55   D    
C50   H2    S    
C99   C100  S    
Cr5   O5    S    
C89   H43   S    
C31   H32   S    
Cr10  O14   S    
C32   C35   D    
C76   C80   A    
C84   Cl4   S    
Cr11  O19   S    
C56   H8    S    
C21   H17   S    
C104  H81   S    
C106  H86   S    
Cr2   O2    S    
C69   O41   A    
C7    H15   S    
C14   H22   S    
C101  H73   S    
C90   H45   S    
C49   H1    S    
C40   O56   S    
C52   H4    S    
C89   H44   S    
Cr5   O25   S    
Cr12  O36   S    
Cr12  O20   S    
Cr7   O51   S    
C45   C74   S    
Cr2   O46   S    
C97   C98   S    
Cr6   O30   S    
C86   H37   S    
C103  H79   S    
C17   C21   D    
C28   O64   S    
Cr7   O27   S    
C96   H60   S    
Cr11  O35   S    
C104  H82   S    
C94   H55   S    
C93   H54   S    
C83   C84   A    
C66   O10   A    
C96   H61   S    
Cr9   O33   S    
C61   O49   A    
Cr3   O43   S    
C25   O61   S    
C3    O27   A    
C33   C34   S    
C108  H92   S    
C45   O29   A    
Cr5   O29   S    
Cr8   O28   S    
C43   H11   S    
C14   C26   D    
C68   O8    A    
Cr9   O17   S    
C42   H10   S    
Cr2   O22   S    
C30   C66   S    
C22   C26   S    
C105  H84   S    
C42   C50   D    
C29   C65   S    
C4    C17   S    
C4    O28   A    
C94   H56   S    
O54   C87   S    
C95   H59   S    
Cr5   O49   S    
C98   H66   S    
C106  H87   S    
C46   O34   A    
Cr10  O10   S    
C108  H90   S    
C71   O43   A    
Cr11  O11   S    
C98   H67   S    
C103  C104  S    
Cr6   O26   S    
C97   H63   S    
Cr4   O4    S    
C74   C81   A    
C5    C77   A    
Cr12  O16   S    
C95   C96   S    
C73   C82   A    
C50   C54   S    
Cr9   O13   S    
C93   C94   S    
C7    C79   A    
O63   C105  S    
C90   H47   S    
C9    O57   S    
C95   H58   S    
C72   O16   A    
C92   H52   S    
C83   Cl3   S    
C1    C20   S    
C15   C59   S    
C60   O4    A    
C40   C72   S    
C30   C33   D    
C99   H68   S    
C2    C19   S    
Cr2   O42   S    
C3    O23   A    
C54   H6    S    
C70   O14   A    
Cr11  O15   S    
C24   C28   S    
C100  H70   S    
C105  C106  S    
Cr11  O39   S    
C62   O50   A    
C102  H77   S    
C13   H21   S    
C11   C12   A    
C63   O47   A    
C48   O36   A    
C44   C61   S    
O64   C107  S    
C91   C92   S    
C19   Cl7   S    
C82   Cl2   S    
C91   H49   S    
Cr4   O48   S    
C38   O54   S    
Cr8   O32   S    
C85   C86   S    
C108  H91   S    
C103  H78   S    
C70   O42   A    
C92   H51   S    
C37   C53   D    
Cr6   O18   S    
C2    O26   A    
Cr4   O20   S    
C43   C51   D    
C93   H53   S    
C102  H75   S    
C71   O15   A    
C5    H13   S    
C11   O59   S    
C58   O2    A    
C49   C53   S    
C29   C34   D    
O57   C93   S    
C35   H27   S    
C15   H23   S    
C9    C10   A    
C51   C55   S    
C91   H48   S    
C39   O55   S    
C86   H35   S    
C58   O38   A    
Cr1   O45   S    
Cr1   O41   S    
C1    O25   A    
C68   O12   A    
C105  H83   S    
C31   C67   S    
C23   H19   S    
C79   C80   A    
C22   H18   S    
Cr7   O7    S    
C73   C77   A    
C8    C10   A    
C12   O60   S    
C102  H76   S    
C100  H72   S    
C8    C80   A    
C61   O45   A    
C39   C71   S    
C31   C36   D    
C57   O37   A    
C29   H30   S    
C20   Cl8   S    
C41   C64   S    
C86   H36   S    
C85   H33   S    
C98   H65   S    
C16   H24   S    
C101  H74   S    
C42   C63   S    
C46   C73   S    
C65   O5    A    
C52   C56   S    
C43   C62   S    
Cr6   O50   S    
C27   O63   S    
C107  H89   S    
C62   O46   A    
