data_mof_unit_34470.cif
_audit_creation_date              2012-12-10T17:03:27-0500
_audit_creation_method            fapswitch 2.2
_symmetry_space_group_name_H-M    P1
_symmetry_Int_Tables_number       1
_space_group_crystal_system       triclinic
_cell_length_a                    15.075263
_cell_length_b                    10.885483
_cell_length_c                    9.805394
_cell_angle_alpha                 109.382528
_cell_angle_beta                  97.909264
_cell_angle_gamma                 93.576516
_cell_volume                      1493.35797277

loop_
_atom_site_label
_atom_site_type_symbol
_atom_type_description
_atom_site_fract_x
_atom_site_fract_y
_atom_site_fract_z
_atom_type_partial_charge
C1    C     C_R   0.486922 0.253394 0.443546 0.786221
C2    C     C_R   0.501977 0.745608 0.556702 0.880173
C3    C     C_R   0.027136 0.261235 0.416890 0.084294
C4    C     C_R   0.975434 0.742667 0.630245 0.044351
C5    C     C_2   0.471009 0.112400 0.419760 -0.444000
C6    C     C_2   0.494161 0.883850 0.579755 -0.406336
C7    C     C_2   0.438619 0.065182 0.517777 0.163042
C8    C     C_2   0.434857 0.923060 0.489685 0.177989
C9    C     C_2   0.500059 0.527338 0.087213 0.475094
C10   C     C_2   0.480270 0.510157 0.925290 0.436572
C11   C     C_R   0.329038 0.501223 0.501418 0.861374
C12   C     C_R   0.671156 0.501865 0.499444 0.907798
C13   C     C_R   0.825914 0.614255 0.591045 0.395341
C14   C     C_R   0.172483 0.385642 0.428315 0.400258
C15   C     C_R   0.768069 0.501981 0.500481 -0.280959
C16   C     C_R   0.232656 0.500492 0.505792 -0.273297
C17   C     C_R   0.803850 0.387404 0.425216 0.398223
C18   C     C_R   0.201418 0.616144 0.590979 0.396836
C19   C     C_R   0.897559 0.384336 0.452603 -0.081143
C20   C     C_R   0.107384 0.620941 0.588132 -0.084137
C21   C     C_R   0.955619 0.502592 0.522902 -0.127082
C22   C     C_R   0.049198 0.501766 0.525522 -0.136562
C23   C     C_R   0.919145 0.621406 0.583651 -0.061588
C24   C     C_R   0.083695 0.381830 0.457531 -0.016624
C25   C     C_R   0.933934 0.264044 0.414972 0.494451
C26   C     C_R   0.070397 0.741901 0.639107 0.469864
Cu1   Cu    Cu3+1 0.515770 0.521810 0.644910 0.967482
Cu2   Cu    Cu3+1 0.484230 0.478190 0.355090 0.977070
H1    H     H_    0.538829 0.956137 0.671780 0.141403
H2    H     H_    0.486117 0.044361 0.318501 0.132237
H3    H     H_    0.602465 0.592852 0.923064 0.172122
H4    H     H_    0.422104 0.362453 0.063883 0.168435
N1    N     N_2   0.460520 0.445420 0.137370 -0.319949
N2    N     N_2   0.539480 0.554580 0.862630 -0.319253
O1    O     O_R   0.508410 0.332340 0.577400 -0.559175
O2    O     O_R   0.491590 0.667660 0.422600 -0.545895
O3    O     O_R   0.481780 0.295500 0.332650 -0.601765
O4    O     O_R   0.518220 0.704500 0.667350 -0.568015
O5    O     O_R   0.383570 0.518390 0.622380 -0.536359
O6    O     O_R   0.616430 0.481610 0.377620 -0.511429
O7    O     O_R   0.356940 0.481550 0.377630 -0.582419
O8    O     O_R   0.643060 0.518450 0.622370 -0.585826
O9    O     O_3   0.790024 0.716154 0.685301 -0.576126
C27   C     C_3   0.807118 0.707707 0.827176 -0.283275
H5    H     H_    0.777108 0.612489 0.829269 0.167376
H6    H     H_    0.775835 0.786577 0.902504 0.183661
H7    H     H_    0.880630 0.721893 0.870265 0.153685
O10   O     O_3   0.187473 0.298110 0.295235 -0.578359
C28   C     C_3   0.260605 0.225854 0.309413 -0.296153
H8    H     H_    0.290797 0.240513 0.423983 0.124152
H9    H     H_    0.312284 0.248713 0.248896 0.211483
H10   H     H_    0.237891 0.120426 0.252302 0.160229
O11   O     O_3   0.752296 0.288946 0.305980 -0.537709
C29   C     C_3   0.690253 0.212125 0.348790 -0.209443
H11   H     H_    0.684506 0.249224 0.467276 0.099733
H12   H     H_    0.708381 0.110612 0.319991 0.195729
H13   H     H_    0.623723 0.204246 0.281529 0.179013
O12   O     O_3   0.261784 0.729189 0.654662 -0.548992
C30   C     C_3   0.289262 0.749828 0.804993 -0.288252
H14   H     H_    0.233377 0.727623 0.859797 0.131178
H15   H     H_    0.316572 0.853986 0.862007 0.165972
H16   H     H_    0.345856 0.693712 0.820691 0.201137
O13   O     O_3   0.878656 0.148374 0.383213 -0.568041
C31   C     C_3   0.865775 0.132747 0.516901 -0.392759
H17   H     H_    0.830368 0.212324 0.583044 0.161792
H18   H     H_    0.930624 0.129424 0.583534 0.170455
H19   H     H_    0.823236 0.038660 0.492029 0.194443
O14   O     O_3   0.125688 0.858205 0.669916 -0.552054
C32   C     C_3   0.132370 0.939144 0.818333 -0.288716
H20   H     H_    0.111164 0.887495 0.891674 0.127880
H21   H     H_    0.094332 0.023981 0.825226 0.181396
H22   H     H_    0.203287 0.982205 0.861648 0.182484
C33   C     C_3   0.064672 0.129976 0.391429 -0.348722
C34   C     C_3   0.124236 0.127256 0.529812 -0.872119
H23   H     H_    0.186411 0.196637 0.559244 0.251696
H24   H     H_    0.087437 0.153774 0.624130 0.246069
H25   H     H_    0.143238 0.026979 0.511518 0.275387
H26   H     H_    0.010578 0.047020 0.359705 0.230918
H27   H     H_    0.100038 0.104928 0.296704 0.226420
C35   C     C_3   0.934793 0.867939 0.630460 -0.302496
C36   C     C_3   0.917722 0.955770 0.781157 -0.777838
H28   H     H_    0.951438 0.926323 0.871482 0.239979
H29   H     H_    0.942864 0.059409 0.801620 0.207379
H30   H     H_    0.844457 0.953549 0.784691 0.278751
H31   H     H_    0.979659 0.925608 0.587272 0.203953
H32   H     H_    0.870982 0.843533 0.550366 0.205628
C37   C     C_3   0.361297 0.827363 0.372525 -0.317062
C38   C     C_3   0.292294 0.891472 0.297668 -0.914668
H33   H     H_    0.262166 0.965449 0.380361 0.272639
H34   H     H_    0.324557 0.937984 0.229022 0.239073
H35   H     H_    0.237544 0.815651 0.224943 0.244240
H36   H     H_    0.391471 0.759505 0.284694 0.212604
H37   H     H_    0.324172 0.768395 0.424368 0.239805
C39   C     C_3   0.409233 0.152853 0.657151 -0.310960
C40   C     C_3   0.352762 0.080781 0.731777 -0.845132
H38   H     H_    0.294890 0.016730 0.652288 0.297198
H39   H     H_    0.394596 0.021150 0.781208 0.251975
H40   H     H_    0.326044 0.153438 0.821180 0.235610
H41   H     H_    0.469923 0.207305 0.737553 0.228640
H42   H     H_    0.367046 0.223585 0.629313 0.233259
O15   O     O_3   0.400910 0.438158 0.838466 -0.573319
C41   C     C_3   0.323752 0.478009 0.901632 -0.395019
H43   H     H_    0.334661 0.577348 0.987763 0.131466
H44   H     H_    0.297541 0.404782 0.946637 0.177179
H45   H     H_    0.269608 0.479328 0.813450 0.192404
O16   O     O_3   0.564650 0.625743 0.184070 -0.539054
C42   C     C_3   0.553154 0.749646 0.170602 -0.366772
H46   H     H_    0.485573 0.756035 0.112531 0.117797
H47   H     H_    0.606372 0.777775 0.115391 0.162396
H48   H     H_    0.562666 0.824250 0.282136 0.199959

loop_
_geom_bond_atom_site_label_1
_geom_bond_atom_site_label_2
_ccdc_geom_bond_type
C37   C38   S    
O15   C41   S    
C33   C34   S    
C40   H38   S    
C36   H28   S    
C40   H40   S    
C7    C8    S    
O11   C29   S    
C34   H24   S    
C1    C5    S    
C39   H41   S    
C19   C21   A    
C4    C35   S    
C32   H20   S    
O16   C42   S    
Cu2   O6    S    
Cu1   O4    S    
Cu2   O7    S    
C13   C23   A    
C41   H45   S    
C25   O13   S    
C14   C24   A    
C32   H21   S    
C12   O8    A    
C18   O12   S    
Cu1   O5    S    
O14   C32   S    
C28   H9    S    
C34   H25   S    
C35   H32   S    
C42   H46   S    
C38   H35   S    
C9    C10   S    
C18   C20   A    
C27   H7    S    
C1    O3    A    
C30   H14   S    
C21   C22   A    
C9    N1    D    
C42   H47   S    
C3    C24   A    
C2    C6    S    
C19   C25   A    
C36   H29   S    
C27   H6    S    
Cu1   N2    S    
C29   H12   S    
C30   H15   S    
C34   H23   S    
C41   H43   S    
C31   H19   S    
C3    C25   A    
C5    C7    D    
C4    C23   A    
C6    C8    D    
Cu1   O1    S    
C9    O16   S    
C31   H18   S    
C12   O6    A    
C32   H22   S    
C11   O5    A    
O9    C27   S    
C35   H31   S    
C11   C16   S    
C2    O4    A    
C12   C15   S    
C39   H42   S    
C33   H26   S    
C28   H10   S    
C33   H27   S    
H3    N2    S    
C10   N2    D    
C41   H44   S    
O10   C28   S    
C38   H34   S    
Cu2   N1    S    
C13   C15   A    
C42   H48   S    
C14   C16   A    
C17   O11   S    
C13   O9    S    
C36   H30   S    
C27   H5    S    
C1    O1    A    
C5    H2    S    
C2    O2    A    
C15   C17   A    
C7    C39   S    
C29   H11   S    
C30   H16   S    
C10   O15   S    
C20   C22   A    
C35   C36   S    
C4    C26   A    
C40   H39   S    
C8    C37   S    
C26   O14   S    
C31   H17   S    
C21   C23   A    
O12   C30   S    
H4    N1    S    
Cu1   O8    S    
C20   C26   A    
Cu2   O3    S    
C37   H37   S    
C17   C19   A    
C11   O7    A    
C22   C24   A    
C39   C40   S    
C3    C33   S    
O13   C31   S    
C6    H1    S    
C38   H33   S    
Cu2   O2    S    
C16   C18   A    
C28   H8    S    
Cu1   Cu2   S    
C14   O10   S    
C37   H36   S    
C29   H13   S    
