data_mof_unit_39190.cif
_audit_creation_date              2012-12-11T18:11:28-0500
_audit_creation_method            fapswitch 2.2
_symmetry_space_group_name_H-M    P1
_symmetry_Int_Tables_number       1
_space_group_crystal_system       triclinic
_cell_length_a                    8.509463
_cell_length_b                    13.385944
_cell_length_c                    18.657313
_cell_angle_alpha                 100.859854
_cell_angle_beta                  91.342155
_cell_angle_gamma                 98.906429
_cell_volume                      2058.94470806

loop_
_atom_site_label
_atom_site_type_symbol
_atom_type_description
_atom_site_fract_x
_atom_site_fract_y
_atom_site_fract_z
_atom_type_partial_charge
Ba1   Ba    Ba6+2 0.852780 0.548340 0.465070 1.873640
Ba2   Ba    Ba6+2 0.337060 0.451750 0.534940 1.831222
C1    C     C_3   0.672181 0.877476 0.235234 0.380514
C2    C     C_R   0.924051 0.376723 0.083326 0.334909
C3    C     C_R   0.777165 0.455931 0.964554 0.008931
C4    C     C_3   0.122325 0.791733 0.255037 0.403608
C5    C     C_R   0.940791 0.472284 0.980229 -0.012860
C6    C     C_R   0.713005 0.456663 0.895627 0.370718
C7    C     C_R   0.814876 0.480179 0.839004 -0.128519
C8    C     C_R   0.976508 0.523289 0.860903 -0.014823
C9    C     C_R   0.038931 0.520095 0.932409 0.039121
C10   C     C_R   0.768990 0.459824 0.762576 0.017040
C11   C     C_R   0.884603 0.482835 0.711789 -0.017212
C12   C     C_3   0.641012 0.786870 0.276624 0.404116
C13   C     C_R   0.028713 0.548629 0.735244 0.134473
C14   C     C_R   0.077164 0.567133 0.811147 0.002080
C15   C     C_R   0.163337 0.493869 0.069549 0.038483
C16   C     C_3   0.057745 0.803802 0.177915 0.397713
C17   C     C_R   0.222122 0.483903 0.140078 -0.020827
C18   C     C_R   0.120130 0.434419 0.187291 -0.055678
C19   C     C_R   0.979779 0.370986 0.154031 0.139870
C20   C     C_R   0.228013 0.620537 0.838223 0.044677
C21   C     C_R   0.287851 0.618476 0.908360 0.012748
C22   C     C_R   0.198881 0.562312 0.955152 0.091480
C23   C     C_3   0.462741 0.253266 0.310639 0.279044
C24   C     C_R   0.261890 0.548791 0.024192 0.063510
C25   C     C_R   0.422880 0.582623 0.047810 -0.018643
C26   C     C_R   0.380951 0.527282 0.164173 -0.047611
C27   C     C_R   0.481322 0.569246 0.114986 -0.047965
C28   C     C_3   0.282941 0.776378 0.633416 0.647450
C29   C     C_R   0.433737 0.530031 0.237098 0.016004
C30   C     C_R   0.326979 0.491005 0.285415 -0.249347
C31   C     C_R   0.169062 0.445107 0.263508 0.054296
C32   C     C_R   0.756324 0.177801 0.528505 -0.300115
C33   C     C_R   0.441673 0.810248 0.462430 0.129411
C34   C     C_3   0.488086 0.213777 0.229319 0.410600
C35   C     C_R   0.400225 0.979327 0.445245 0.007632
C36   C     C_R   0.341972 0.873605 0.437864 -0.014316
C37   C     C_R   0.582800 0.850492 0.507703 0.008106
C38   C     C_R   0.638049 0.963042 0.520811 -0.112853
C39   C     C_R   0.547216 0.027017 0.485866 -0.018081
C40   C     C_3   0.336372 0.889404 0.660247 -0.261828
C41   C     C_R   0.608561 0.136785 0.492233 0.073336
C42   C     C_R   0.845415 0.120284 0.562983 0.049230
C43   C     C_R   0.783568 0.015785 0.563242 0.371679
C44   C     C_3   0.958835 0.215853 0.372548 0.344878
C45   C     C_3   0.049741 0.219617 0.749555 0.642271
C46   C     C_3   0.905563 0.104087 0.336577 0.514595
C47   C     C_3   0.704921 0.750444 0.704343 0.853859
C48   C     C_3   0.604461 0.777027 0.770866 -0.102713
C49   C     C_3   0.073689 0.175486 0.821086 0.779921
C50   C     C_3   0.509970 0.204018 0.697873 0.483552
C51   C     C_3   0.510692 0.106420 0.727643 0.300346
C52   C     C_R   0.005849 0.449339 0.045007 0.018319
Cl1   Cl    Cl    0.873867 0.021439 0.398868 -0.812002
Cl2   Cl    Cl    0.606560 0.125492 0.815944 -0.516871
Cl3   Cl    Cl    0.504170 0.430972 0.891764 -0.576242
Cl4   Cl    Cl    0.769620 0.277243 0.039457 -0.569807
Cl5   Cl    Cl    0.901066 0.961667 0.619203 -0.543735
Cl6   Cl    Cl    0.385999 0.676615 0.434227 -0.675280
Cl7   Cl    Cl    0.926545 0.693388 0.128875 -0.667621
Cl8   Cl    Cl    0.158740 0.765206 0.557309 -0.582031
Cl9   Cl    Cl    0.050564 0.058608 0.277779 -0.635547
Cl10  Cl    Cl    0.906965 0.782613 0.735101 -0.590284
Cl11  Cl    Cl    0.656504 0.618193 0.674708 -0.759621
Cl12  Cl    Cl    0.356716 0.099195 0.191465 -0.529604
Cl13  Cl    Cl    0.633248 0.836958 0.138496 -0.578129
Cl14  Cl    Cl    0.156532 0.346427 0.762435 -0.679004
Cl15  Cl    Cl    0.274981 0.187010 0.850207 -0.390706
Cl16  Cl    Cl    0.995763 0.041538 0.805405 -0.495488
H1    H     H_    0.696502 0.812981 0.333063 0.082744
H2    H     H_    0.477714 0.762127 0.752322 0.089552
H3    H     H_    0.335058 0.258630 0.318441 0.053056
H4    H     H_    0.536134 0.330839 0.328037 -0.061369
H5    H     H_    0.608853 0.193050 0.224787 0.088643
H6    H     H_    0.618938 0.217047 0.667745 -0.219498
H7    H     H_    0.408198 0.191394 0.657183 0.030087
H8    H     H_    0.572105 0.053067 0.689639 -0.026592
H9    H     H_    0.385592 0.073141 0.732577 0.094249
H10   H     H_    0.304414 0.661030 0.804533 0.072602
H11   H     H_    0.606829 0.593480 0.127672 0.184116
H12   H     H_    0.414209 0.901051 0.710226 0.098144
H13   H     H_    0.369986 0.492570 0.340588 0.107367
H14   H     H_    0.696414 0.443205 0.007086 0.161040
H15   H     H_    0.406259 0.660179 0.923818 0.085243
H16   H     H_    0.238109 0.840932 0.262700 -0.056613
H17   H     H_    0.508535 0.617954 0.014694 0.131507
H18   H     H_    0.808712 0.255470 0.525415 0.033627
H19   H     H_    0.993793 0.869915 0.183699 0.174046
H20   H     H_    0.385079 0.736245 0.619845 -0.024620
H21   H     H_    0.742997 0.891471 0.845061 0.291899
H22   H     H_    0.675556 0.931278 0.771134 0.285374
H23   H     H_    0.400854 0.923831 0.617698 -0.001671
H24   H     H_    0.420524 0.747366 0.227880 0.169756
H25   H     H_    0.432020 0.812178 0.316987 0.100118
H26   H     H_    0.462508 0.936473 0.242096 0.222971
H27   H     H_    0.581727 0.972918 0.318733 0.164525
H28   H     H_    0.353145 0.304938 0.187245 0.185308
H29   H     H_    0.546803 0.357707 0.205782 0.119129
H30   H     H_    0.260109 0.893124 0.152174 0.250939
H31   H     H_    0.257682 0.765153 0.125755 0.185553
H32   H     H_    0.868520 0.261593 0.696234 0.114037
H33   H     H_    0.842600 0.270211 0.782120 0.156655
H34   H     H_    0.231009 0.927905 0.673597 0.221660
H35   H     H_    0.878532 0.205395 0.882639 0.271874
H36   H     H_    0.025093 0.308037 0.887949 0.174477
H37   H     H_    0.021973 0.643323 0.258724 0.244911
H38   H     H_    0.178988 0.653813 0.206790 0.147972
H39   H     H_    0.784756 0.472502 0.608048 0.242555
H40   H     H_    0.811891 0.359859 0.629425 0.111354
H41   H     H_    0.902726 0.220675 0.156660 0.268669
H42   H     H_    0.783781 0.306187 0.193318 0.196849
H43   H     H_    0.197985 0.033284 0.424381 0.265644
H44   H     H_    0.306197 0.002223 0.350620 0.214827
H45   H     H_    0.857353 0.248387 0.398751 -0.101554
H46   H     H_    0.059978 0.223487 0.412834 0.063088
H47   H     H_    0.795522 0.100470 0.303147 0.079468
H48   H     H_    0.798341 0.910428 0.244946 0.145239
H49   H     H_    0.618608 0.725772 0.810411 0.110167
N1    N     N_3   0.644262 0.884317 0.808975 -0.400864
N2    N     N_3   0.900352 0.293274 0.188897 -0.433551
N3    N     N_3   0.312812 0.036175 0.405993 -0.419711
N4    N     N_3   0.471798 0.755165 0.280279 -0.503507
N5    N     N_3   0.580382 0.959360 0.261752 -0.462152
N6    N     N_3   0.469727 0.289731 0.184463 -0.425770
N7    N     N_3   0.187903 0.823524 0.129941 -0.415686
N8    N     N_3   0.880559 0.221835 0.737674 -0.480112
N9    N     N_3   0.000955 0.228537 0.884685 -0.412795
N10   N     N_3   0.135534 0.684473 0.256003 -0.485064
N11   N     N_3   0.860486 0.436841 0.635530 -0.457254
O1    O     O_2   0.873090 0.425890 0.325140 -0.462799
O2    O     O_2   0.171003 0.127704 0.550999 -0.454458
O3    O     O_3   0.109747 0.158340 0.688258 -0.546259
O4    O     O_3   0.122420 0.434370 0.414380 -0.475704
O5    O     O_3   0.578370 0.633800 0.536380 -0.399511
O6    O     O_2   0.341510 0.231850 0.465510 -0.455217
O7    O     O_3   0.511862 0.183296 0.350335 -0.618208
O8    O     O_2   0.446916 0.474866 0.753744 -0.340420
O9    O     O_3   0.494643 0.286705 0.754670 -0.469935
O10   O     O_3   0.659500 0.627100 0.368810 -0.435750
O11   O     O_2   0.761032 0.521409 0.246046 -0.491868
O12   O     O_3   0.673461 0.808003 0.651224 -0.628273
O13   O     O_3   0.006664 0.262142 0.314558 -0.616507
O14   O     O_3   0.710228 0.703762 0.241025 -0.534896
O15   O     O_2   0.848200 0.768190 0.534530 -0.328811
O16   O     O_3   0.081160 0.685950 0.404810 -0.363893
O17   O     O_2   0.018784 0.867573 0.454580 -0.349207
O18   O     O_3   0.037216 0.832135 0.314798 -0.558001
O19   O     O_2   0.316610 0.574140 0.674900 -0.446628
O20   O     O_3   0.067290 0.565720 0.585630 -0.420537
O21   O     O_3   0.530210 0.372990 0.631200 -0.479540
O22   O     O_3   0.195689 0.738731 0.686908 -0.584605
O23   O     O_3   0.611340 0.366290 0.463630 -0.486765
O24   O     O_3   0.108550 0.314140 0.595200 -0.450825
P1    P     P_3+3 0.041040 0.394770 0.336330 1.026754
P2    P     P_3+3 0.672880 0.754030 0.556100 1.185025
P3    P     P_3+3 0.127899 0.816901 0.398711 1.139705
P4    P     P_3+3 0.148670 0.605320 0.663680 1.141224
P5    P     P_3+3 0.054632 0.182671 0.600589 1.077925
P6    P     P_3+3 0.639027 0.591488 0.273712 1.030569
P7    P     P_3+3 0.521682 0.231532 0.444881 0.987118
P8    P     P_3+3 0.563690 0.400880 0.725451 1.159620

loop_
_geom_bond_atom_site_label_1
_geom_bond_atom_site_label_2
_ccdc_geom_bond_type
Ba2   O20   S    
C46   Cl1   S    
C25   C27   A    
C40   H23   S    
C12   H1    S    
Ba1   O15   S    
C34   N6    S    
C40   H12   S    
C28   H20   S    
H29   N6    S    
O16   P3    S    
C42   C43   A    
C5    C9    A    
C24   C25   A    
Ba2   O4    S    
C47   Cl11  S    
C44   H45   S    
H30   N7    S    
C49   N9    S    
C26   C27   A    
C51   H9    S    
C22   C24   A    
Ba1   Ba2   S    
H27   N5    S    
C34   Cl12  S    
H41   N2    S    
C13   C14   A    
H36   N9    S    
C9    C22   A    
C50   O9    S    
C23   H4    S    
Ba1   P1    S    
C48   H2    S    
O15   P2    D    
C28   O22   S    
H28   N6    S    
H43   N3    S    
O4    P1    S    
C1    H48   S    
C6    C7    A    
C11   N11   S    
C49   Cl16  S    
O14   P6    S    
H33   N8    S    
C7    C8    A    
C29   P6    S    
C21   C22   A    
H37   N10   S    
H24   N4    S    
Ba2   O19   S    
Ba2   O24   S    
C47   Cl10  S    
C45   O3    S    
C19   N2    S    
C39   C41   A    
Ba1   O16   S    
C4    N10   S    
C44   C46   S    
O6    P7    D    
C26   C29   A    
C38   C43   A    
C4    C16   S    
O22   P4    S    
O2    P5    D    
H26   N5    S    
C48   H49   S    
C33   C36   A    
C32   C42   A    
C13   P4    S    
H32   N8    S    
C37   C38   A    
C3    C5    A    
C3    H14   S    
C46   Cl9   S    
C45   C49   S    
C50   H6    S    
C16   N7    S    
Ba2   O6    S    
O5    P2    S    
O23   P7    S    
C33   Cl6   S    
O3    P5    S    
Ba1   P2    S    
C33   C37   A    
C27   H11   S    
C35   C36   A    
C34   H5    S    
C6    Cl3   S    
C4    O18   S    
O11   P6    D    
O13   P1    S    
C29   C30   A    
C12   O14   S    
Ba2   P4    S    
O21   P8    S    
C47   O12   S    
H31   N7    S    
Ba1   O20   S    
O8    P8    D    
C32   H18   S    
C50   C51   S    
C18   C19   A    
Ba1   O23   S    
C17   C26   A    
Ba1   O10   S    
H38   N10   S    
C46   H47   S    
C1    C12   S    
C18   C31   A    
C41   P7    S    
C38   C39   A    
Ba2   O23   S    
C28   Cl8   S    
C48   N1    S    
C15   C24   A    
Ba1   O4    S    
O17   P3    D    
C45   Cl14  S    
C1    N5    S    
O19   P4    D    
C51   Cl2   S    
H25   N4    S    
Ba2   O21   S    
C30   H13   S    
C43   Cl5   S    
C14   C20   A    
C12   N4    S    
O20   P4    S    
H35   N9    S    
C2    C52   A    
H21   N1    S    
C16   H19   S    
O9    P8    S    
C1    Cl13  S    
C32   C41   A    
C36   P3    S    
Ba1   O1    S    
C40   H34   S    
C3    C6    A    
C31   P1    S    
C16   Cl7   S    
C45   N8    S    
C44   O13   S    
Ba2   O5    S    
C4    H16   S    
C44   H46   S    
C37   P2    S    
C30   C31   A    
C17   C18   A    
C11   C13   A    
C51   H8    S    
H22   N1    S    
C20   H10   S    
O24   P5    S    
C8    C14   A    
C25   H17   S    
O7    P7    S    
C2    C19   A    
O1    P1    D    
C15   C17   A    
H40   N11   S    
C23   H3    S    
O18   P3    S    
C35   C39   A    
C7    C10   A    
C8    C9    A    
C23   C34   S    
C10   P8    S    
C35   N3    S    
H44   N3    S    
H42   N2    S    
C10   C11   A    
C47   C48   S    
C21   H15   S    
C2    Cl4   S    
H39   N11   S    
C42   P5    S    
C20   C21   A    
C28   C40   S    
C23   O7    S    
C49   Cl15  S    
C5    C52   A    
O12   P2    S    
Ba1   O5    S    
C15   C52   A    
O10   P6    S    
C50   H7    S    
