data_mof_unit_63733.cif
_audit_creation_date              2012-12-10T19:35:01-0500
_audit_creation_method            fapswitch 2.2
_symmetry_space_group_name_H-M    P1
_symmetry_Int_Tables_number       1
_space_group_crystal_system       triclinic
_cell_length_a                    11.207175
_cell_length_b                    15.971421
_cell_length_c                    17.190051
_cell_angle_alpha                 92.13322
_cell_angle_beta                  91.972528
_cell_angle_gamma                 92.302044
_cell_volume                      3070.32279757

loop_
_atom_site_label
_atom_site_type_symbol
_atom_type_description
_atom_site_fract_x
_atom_site_fract_y
_atom_site_fract_z
_atom_type_partial_charge
C1    C     C_R   0.502039 0.492763 0.348660 0.866435
C2    C     C_R   0.497959 0.507237 0.651340 0.866434
C3    C     C_R   0.500099 0.494229 0.261988 -0.098562
C4    C     C_R   0.499898 0.505770 0.738012 -0.098562
C5    C     C_R   0.522241 0.568648 0.220146 0.170066
C6    C     C_R   0.477753 0.431351 0.779852 0.170064
C7    C     C_R   0.502634 0.566720 0.138461 -0.063855
C8    C     C_R   0.497359 0.433278 0.861538 -0.063856
C9    C     C_R   0.470119 0.489974 0.098564 0.263628
C10   C     C_R   0.529878 0.510022 0.901436 0.263626
C11   C     C_R   0.453187 0.417197 0.139508 -0.134133
C12   C     C_R   0.546813 0.582800 0.860492 -0.134133
C13   C     C_R   0.468837 0.418966 0.219921 -0.178650
C14   C     C_R   0.531163 0.581032 0.780079 -0.178650
C15   C     C_R   0.429399 0.756671 0.471125 0.273377
C16   C     C_R   0.570600 0.243329 0.528876 0.273379
C17   C     C_R   0.418058 0.844146 0.483983 0.054818
C18   C     C_R   0.581941 0.155854 0.516018 0.054816
C19   C     C_R   0.508541 0.891826 0.525061 0.269284
C20   C     C_R   0.491458 0.108174 0.474940 0.269285
C21   C     C_R   0.596902 0.848015 0.564537 -0.219891
C22   C     C_R   0.403097 0.151985 0.435464 -0.219890
C23   C     C_R   0.262339 0.499812 0.494443 0.843699
C24   C     C_R   0.737661 0.500188 0.505556 0.843701
C25   C     C_R   0.598208 0.758552 0.557106 0.225764
C26   C     C_R   0.401792 0.241448 0.442895 0.225763
C27   C     C_R   0.131906 0.408609 0.607341 0.113822
C28   C     C_R   0.868096 0.591395 0.392660 0.113826
C29   C     C_R   0.067903 0.345911 0.644452 0.183648
C30   C     C_R   0.932101 0.654092 0.355550 0.183643
C31   C     C_R   0.954476 0.364253 0.666990 -0.154626
C32   C     C_R   0.045526 0.635747 0.333010 -0.154625
C33   C     C_R   0.897104 0.429512 0.631275 0.144723
C34   C     C_R   0.102896 0.570487 0.368724 0.144721
C35   C     C_R   0.942627 0.460945 0.561782 0.018464
C36   C     C_R   0.057374 0.539055 0.438217 0.018464
C37   C     C_R   0.067697 0.453045 0.551588 -0.014828
C38   C     C_R   0.932304 0.546956 0.448412 -0.014829
C39   C     C_R   0.872256 0.503042 0.506543 -0.094657
C40   C     C_R   0.127744 0.496958 0.493456 -0.094655
Cu1   Cu    Cu3+1 0.493970 0.415220 0.496180 1.052741
Cu2   Cu    Cu3+1 0.506030 0.584780 0.503820 1.052741
H1    H     H_    0.087159 0.670419 0.287567 0.203015
H2    H     H_    0.912842 0.329579 0.712431 0.203015
H3    H     H_    0.428449 0.358382 0.108582 0.183156
H4    H     H_    0.571553 0.641614 0.891419 0.183158
H5    H     H_    0.453502 0.360995 0.249345 0.205642
H6    H     H_    0.546501 0.639003 0.750656 0.205642
N1    N     N_2   0.456709 0.483641 0.016519 -0.235640
N2    N     N_2   0.543288 0.516355 0.983481 -0.235638
N3    N     N_R   0.515100 0.712130 0.509560 -0.217300
N4    N     N_R   0.484900 0.287870 0.490440 -0.217299
N5    N     N_2   0.509418 0.982297 0.531507 -0.128904
N6    N     N_2   0.490581 0.017703 0.468494 -0.128903
O1    O     O_R   0.494360 0.420530 0.382500 -0.566708
O2    O     O_R   0.505640 0.579470 0.617500 -0.566707
O3    O     O_R   0.504550 0.563720 0.388950 -0.549415
O4    O     O_R   0.495450 0.436280 0.611050 -0.549415
O5    O     O_R   0.314560 0.428400 0.496770 -0.553091
O6    O     O_R   0.685440 0.571600 0.503230 -0.553091
O7    O     O_R   0.324750 0.571590 0.503220 -0.559626
O8    O     O_R   0.675250 0.428410 0.496780 -0.559626
I1    I     I_    0.747691 0.098895 0.543160 -0.163503
I2    I     I_    0.252307 0.901104 0.456843 -0.163500
C41   C     C_2   0.685597 0.895833 0.616616 0.505058
H7    H     H_    0.779442 0.881817 0.615863 0.105450
O9    O     O_2   0.653893 0.950189 0.662348 -0.462359
C42   C     C_2   0.314400 0.104167 0.383388 0.505059
H8    H     H_    0.220556 0.118184 0.384142 0.105450
O10   O     O_2   0.346101 0.049809 0.337657 -0.462359
I3    I     I_    0.731581 0.702637 0.626758 -0.267860
I4    I     I_    0.268419 0.297362 0.373242 -0.267858
I5    I     I_    0.202868 0.498847 0.692048 -0.276652
I6    I     I_    0.797128 0.501160 0.307951 -0.276651
I7    I     I_    0.122498 0.221501 0.650282 -0.165150
I8    I     I_    0.877496 0.778497 0.349697 -0.165137
I9    I     I_    0.795779 0.500651 0.707227 -0.294029
I10   I     I_    0.204220 0.499347 0.292773 -0.294032
I11   I     I_    0.407922 0.316007 0.725772 -0.144863
I12   I     I_    0.592066 0.683994 0.274225 -0.144858
C43   C     C_2   0.491361 0.355537 0.906328 0.481314
H9    H     H_    0.564517 0.342626 0.946558 0.081673
O11   O     O_2   0.402169 0.308939 0.903235 -0.469481
C44   C     C_2   0.508629 0.644460 0.093670 0.481313
H10   H     H_    0.435472 0.657369 0.053440 0.081673
O12   O     O_2   0.597819 0.691059 0.096762 -0.469481
I13   I     I_    0.676057 0.295564 0.621428 -0.232005
I14   I     I_    0.323939 0.704436 0.378574 -0.232006

loop_
_geom_bond_atom_site_label_1
_geom_bond_atom_site_label_2
_ccdc_geom_bond_type
C27   C29   A    
C26   I4    S    
Cu1   Cu2   S    
C2    C4    S    
C28   I6    S    
C43   H9    S    
N5    N6    D    
C23   O5    A    
C35   C37   A    
C44   O12   D    
Cu1   O4    S    
C37   C40   A    
C1    O3    A    
C17   I2    S    
C38   C39   A    
C33   C35   A    
C18   I1    S    
C23   C40   S    
C24   C39   S    
C7    C9    A    
Cu1   O1    S    
Cu2   O2    S    
C42   H8    S    
C41   O9    D    
C16   I13   S    
C31   C33   A    
C25   I3    S    
C15   N3    A    
Cu1   N4    S    
C18   C20   A    
C3    C13   A    
Cu2   N3    S    
C21   C41   S    
C19   N5    S    
C7    C44   S    
C20   N6    S    
Cu1   O8    S    
Cu2   O3    S    
C43   O11   D    
C31   H2    S    
C8    C43   S    
C36   C40   A    
C9    N1    S    
C44   H10   S    
Cu1   O5    S    
C12   H4    S    
Cu2   O6    S    
C5    C7    A    
C14   H6    S    
C1    C3    S    
C32   C34   A    
C35   C39   A    
C25   N3    A    
C26   N4    A    
C30   I8    S    
C28   C38   A    
C24   O6    A    
C16   C18   A    
C5    I12   S    
C9    C11   A    
Cu2   O7    S    
C22   C42   S    
C10   C12   A    
C4    C6    A    
C20   C22   A    
N1    N2    D    
C11   H3    S    
C10   N2    S    
C13   H5    S    
C15   C17   A    
C21   C25   A    
C24   O8    A    
C19   C21   A    
C16   N4    A    
C12   C14   A    
C3    C5    A    
C6    C8    A    
C2    O4    A    
C29   I7    S    
C36   C38   A    
C1    O1    A    
C29   C31   A    
C2    O2    A    
C34   I10   S    
C30   C32   A    
C11   C13   A    
C33   I9    S    
C6    I11   S    
C27   C37   A    
C28   C30   A    
C17   C19   A    
C32   H1    S    
C34   C36   A    
C4    C14   A    
C23   O7    A    
C8    C10   A    
C41   H7    S    
C22   C26   A    
C42   O10   D    
C27   I5    S    
C15   I14   S    
