data_mof_unit_13826.cif
_audit_creation_date              2012-12-11T17:05:25-0500
_audit_creation_method            fapswitch 2.2
_symmetry_space_group_name_H-M    P1
_symmetry_Int_Tables_number       1
_space_group_crystal_system       triclinic
_cell_length_a                    6.975227
_cell_length_b                    14.56761
_cell_length_c                    15.977308
_cell_angle_alpha                 90.192002
_cell_angle_beta                  90.068729
_cell_angle_gamma                 89.952752
_cell_volume                      1623.481567

loop_
_atom_site_label
_atom_site_type_symbol
_atom_type_description
_atom_site_fract_x
_atom_site_fract_y
_atom_site_fract_z
_atom_type_partial_charge
O1    O     O_R   0.494380 0.415640 0.412830 -0.532122
O2    O     O_R   0.823960 0.405540 0.586560 -0.534043
O3    O     O_R   0.994270 0.584360 0.587170 -0.554139
C1    C     C_R   0.655370 0.383567 0.615204 0.687714
O4    O     O_R   0.824090 0.404620 0.413450 -0.523607
O5    O     O_R   0.994400 0.583430 0.412820 -0.520976
C2    C     C_R   0.655253 0.382511 0.384519 0.782174
O6    O     O_R   0.494250 0.416570 0.587180 -0.549755
O7    O     O_3   0.660800 0.558670 0.500000 -0.356965
V1    V     V_3+5 0.935650 0.489120 0.500000 1.560373
O8    O     O_R   0.324110 0.594460 0.413440 -0.508892
C3    C     C_R   0.155155 0.617116 0.385217 0.835635
O9    O     O_R   0.323980 0.595380 0.586550 -0.542577
C4    C     C_R   0.155325 0.616508 0.616141 0.702485
V2    V     V_3+5 0.435660 0.510880 0.500000 1.567242
O10   O     O_3   0.160640 0.441330 0.500000 -0.360994
C5    C     C_3   0.029599 0.648277 0.761473 -0.398239
H1    H     H_    0.886195 0.623732 0.740592 0.154508
H2    H     H_    0.106559 0.588083 0.788058 0.181933
C6    C     C_3   0.002388 0.722413 0.830536 -0.338842
H3    H     H_    0.848480 0.741872 0.833568 0.188116
H4    H     H_    0.888673 0.759332 0.644799 0.098848
H5    H     H_    0.895511 0.874371 0.738943 0.111768
C7    C     C_3   0.041745 0.776787 0.656705 0.151909
C8    C     C_3   0.348252 0.712805 0.718745 -0.329994
C9    C     C_3   0.144737 0.687325 0.686139 -0.030892
H6    H     H_    0.428923 0.649311 0.734690 0.167091
C10   C     C_3   0.124589 0.809065 0.811316 -0.069202
C11   C     C_3   0.045713 0.851323 0.728127 0.066314
C12   C     C_3   0.336652 0.776993 0.795962 0.145545
H7    H     H_    0.429868 0.837402 0.783985 0.151030
C13   C     C_R   0.274128 0.750318 0.187022 0.071934
C14   C     C_R   0.119633 0.811642 0.180073 -0.100366
C15   C     C_R   0.975375 0.807138 0.241542 -0.132467
H8    H     H_    0.856426 0.854823 0.240120 0.144295
C16   C     C_R   0.990772 0.745420 0.308965 -0.042570
H9    H     H_    0.888865 0.747484 0.358994 0.198649
C17   C     C_R   0.144006 0.683987 0.315423 -0.088052
C18   C     C_R   0.286907 0.689538 0.254595 0.127520
C19   C     C_3   0.491694 0.712529 0.268788 0.389146
C20   C     C_3   0.482274 0.773293 0.191999 -0.429992
H10   H     H_    0.562800 0.745887 0.137354 0.213225
H11   H     H_    0.508256 0.847235 0.205156 0.175331
C21   C     C_R   0.491271 0.253025 0.688479 0.139568
C22   C     C_R   0.647509 0.312737 0.681317 -0.130756
C23   C     C_R   0.799246 0.301790 0.738660 -0.114568
C24   C     C_R   0.788001 0.236896 0.803664 -0.161510
H12   H     H_    0.904232 0.232488 0.848318 0.130758
C25   C     C_R   0.622875 0.182550 0.814244 -0.116147
C26   C     C_R   0.477754 0.190711 0.754214 0.137555
C27   C     C_3   0.269594 0.210383 0.765890 -0.438681
C28   C     C_3   0.283293 0.275096 0.691733 0.101260
H13   H     H_    0.241529 0.246714 0.825951 0.134081
H14   H     H_    0.177622 0.149644 0.754653 0.249932
H15   H     H_    0.254696 0.348203 0.707542 0.079878
C29   C     C_R   0.495201 0.316934 0.255887 0.157459
C30   C     C_R   0.647295 0.316653 0.313418 -0.132977
C31   C     C_R   0.797709 0.254003 0.298563 -0.105459
H16   H     H_    0.919336 0.251667 0.340472 0.149073
C32   C     C_R   0.786943 0.189509 0.232670 -0.153764
H17   H     H_    0.901176 0.139830 0.225724 0.128797
C33   C     C_R   0.624649 0.185104 0.180013 -0.103938
C34   C     C_R   0.483564 0.252353 0.191470 0.073486
C35   C     C_3   0.272349 0.242209 0.201289 -0.441609
C36   C     C_3   0.284452 0.313616 0.270849 0.096262
H18   H     H_    0.232948 0.172839 0.224262 0.150814
H19   H     H_    0.248146 0.286822 0.333908 0.117280
O11   O     O_R   0.771490 0.080820 0.910070 -0.539179
O12   O     O_R   0.441590 0.092730 0.083780 -0.544796
O13   O     O_R   0.271350 0.913900 0.084390 -0.534419
C37   C     C_R   0.610668 0.114658 0.112877 0.690380
O14   O     O_R   0.441780 0.091820 0.910670 -0.538028
O15   O     O_R   0.271540 0.912980 0.910040 -0.515309
C38   C     C_R   0.610728 0.114756 0.882832 0.724712
O16   O     O_R   0.771300 0.081740 0.084420 -0.547719
O17   O     O_3   0.604960 0.938700 0.997240 -0.352920
V3    V     V_3+5 0.330090 0.008230 0.997220 1.477709
O18   O     O_R   0.941820 0.901930 0.910640 -0.541299
C39   C     C_R   0.111319 0.878747 0.882585 0.770067
O19   O     O_R   0.941630 0.902840 0.083750 -0.545341
C40   C     C_R   0.110600 0.880957 0.112517 0.713953
V4    V     V_3+5 0.830090 0.986410 0.997190 1.468168
O20   O     O_3   0.105080 0.055990 0.997200 -0.379936
Br1   Br    Br    0.133838 0.818717 0.547189 -0.416409
Br2   Br    Br    0.184866 0.963673 0.699073 -0.474864
Br3   Br    Br    0.649696 0.603379 0.256946 -0.479587
Br4   Br    Br    0.523892 0.783205 0.372420 -0.500141
H20   H     H_    0.922321 0.346625 0.735800 0.127766
Br5   Br    Br    0.153658 0.229138 0.592390 -0.456981
H21   H     H_    0.192820 0.265294 0.144826 0.212950
H22   H     H_    0.040093 0.693345 0.892647 0.212818
Br6   Br    Br    0.161986 0.428794 0.241517 -0.490560
H23   H     H_    0.430586 0.747570 0.668365 0.184674
Br7   Br    Br    0.447837 0.716345 0.894130 -0.600601

loop_
_geom_bond_atom_site_label_1
_geom_bond_atom_site_label_2
_ccdc_geom_bond_type
C36   Br6   S    
C8    H23   S    
C7    Br1   S    
C20   H10   S    
O12   V3    S    
C35   H21   S    
C1    O6    A    
C24   C25   A    
C22   C23   A    
O14   V3    S    
C5    C9    S    
H5    C11   S    
C19   Br4   S    
C16   H9    S    
C7    C9    S    
O5    C3    A    
C17   C18   A    
V3    O20   S    
O11   C38   A    
C29   C36   S    
C5    C6    S    
C29   C30   A    
C32   C33   A    
C15   H8    S    
C13   C18   A    
C19   Br3   S    
O12   C37   A    
C10   C39   S    
C7    C11   S    
O8    V2    S    
C36   H19   S    
C13   C20   S    
O1    V2    S    
O7    V1    S    
C11   Br2   S    
C28   H15   S    
C21   C28   S    
O9    C4    A    
O13   V3    S    
C20   H11   S    
C28   Br5   S    
C26   C27   S    
C23   H20   S    
C1    C22   S    
C6    H22   S    
C27   C28   S    
O17   V3    S    
O14   C38   A    
O17   V4    S    
C18   C19   S    
O4    C2    A    
O18   C39   A    
C6    C10   S    
C31   H16   S    
C32   H17   S    
C27   H13   S    
C35   H18   S    
O2    C1    A    
C33   C34   A    
O18   V4    S    
C24   H12   S    
C5    H1    S    
O15   C39   A    
C29   C34   A    
C4    C9    S    
O3    C4    A    
O19   V4    S    
C19   C20   S    
V4    O20   S    
O6    V2    S    
O9    V2    S    
H4    C7    S    
O2    V1    S    
C21   C22   A    
C21   C26   A    
C8    C12   S    
C23   C24   A    
C10   C11   S    
O1    C2    A    
O19   C40   A    
O5    V1    S    
O8    C3    A    
O16   V4    S    
C8    H6    S    
C27   H14   S    
O11   V4    S    
C35   C36   S    
C16   C17   A    
C8    C9    S    
O4    V1    S    
C12   Br7   S    
O3    V1    S    
V1    O10   S    
C13   C14   A    
C37   O16   A    
C30   C31   A    
C12   H7    S    
C14   C40   S    
C10   C12   S    
C5    H2    S    
C14   C15   A    
C33   C37   S    
C15   C16   A    
C3    C17   S    
C34   C35   S    
C6    H3    S    
C25   C26   A    
O15   V3    S    
C25   C38   S    
O13   C40   A    
C31   C32   A    
C2    C30   S    
V2    O10   S    
O7    V2    S    
