data_mof_unit_65432.cif
_audit_creation_date              2012-12-10T18:33:03-0500
_audit_creation_method            fapswitch 2.2
_symmetry_space_group_name_H-M    P1
_symmetry_Int_Tables_number       1
_space_group_crystal_system       triclinic
_cell_length_a                    38.772491
_cell_length_b                    44.870358
_cell_length_c                    29.804215
_cell_angle_alpha                 90.034709
_cell_angle_beta                  130.631905
_cell_angle_gamma                 89.946836
_cell_volume                      39350.5070024

loop_
_atom_site_label
_atom_site_type_symbol
_atom_type_description
_atom_site_fract_x
_atom_site_fract_y
_atom_site_fract_z
_atom_type_partial_charge
C1    C     C_R   0.790664 0.790699 0.080984 0.898531
C2    C     C_R   0.209351 0.790700 0.919016 0.901724
C3    C     C_R   0.290663 0.290699 0.080984 0.898563
C4    C     C_R   0.709335 0.290700 0.919016 0.898523
C5    C     C_R   0.645116 0.750284 0.000471 -0.174760
C6    C     C_R   0.354802 0.750276 0.999371 -0.174561
C7    C     C_R   0.145115 0.250283 0.000470 -0.174690
C8    C     C_R   0.854803 0.250275 0.999372 -0.174669
C9    C     C_R   0.464590 0.751509 0.998947 0.322468
C10   C     C_R   0.535134 0.751506 0.000515 0.322475
C11   C     C_R   0.964589 0.251507 0.998945 0.322387
C12   C     C_R   0.035132 0.251504 0.000511 0.322382
C13   C     C_3   0.896624 0.841883 0.267029 -0.408989
C14   C     C_3   0.103778 0.841854 0.732855 -0.405295
C15   C     C_3   0.396593 0.341878 0.267039 -0.408945
C16   C     C_3   0.603490 0.341895 0.732941 -0.408921
C17   C     C_3   0.868217 0.881181 0.189790 -0.494747
C18   C     C_3   0.131564 0.881109 0.809991 -0.492974
C19   C     C_3   0.368240 0.381171 0.189808 -0.495250
C20   C     C_3   0.631769 0.381200 0.810155 -0.495145
C21   C     C_3   0.892288 0.905551 0.238188 -0.379075
C22   C     C_3   0.107489 0.905478 0.761598 -0.378708
C23   C     C_3   0.392313 0.405541 0.238206 -0.379169
C24   C     C_3   0.607713 0.405570 0.761760 -0.379163
C25   C     C_1   0.936804 0.937519 0.373910 -0.159076
C26   C     C_1   0.063286 0.937533 0.626114 -0.158790
C27   C     C_1   0.436802 0.437521 0.373908 -0.159739
C28   C     C_1   0.563264 0.437521 0.626094 -0.159682
C29   C     C_3   0.853535 0.854964 0.207952 0.187286
C30   C     C_3   0.146625 0.854982 0.792081 0.183866
C31   C     C_3   0.353525 0.354965 0.207949 0.187727
C32   C     C_3   0.646528 0.354965 0.792055 0.187648
C33   C     C_3   0.920699 0.866060 0.315840 0.507115
C34   C     C_3   0.079712 0.866033 0.684054 0.507189
C35   C     C_3   0.420669 0.366055 0.315849 0.506942
C36   C     C_3   0.579430 0.366071 0.684133 0.506939
C37   C     C_3   0.894749 0.896077 0.290197 0.160961
C38   C     C_3   0.105415 0.896099 0.709844 0.159637
C39   C     C_3   0.394741 0.396079 0.290193 0.161649
C40   C     C_3   0.605339 0.396079 0.709811 0.161574
C41   C     C_3   0.845659 0.891441 0.266134 -0.544605
C42   C     C_3   0.154652 0.891608 0.734308 -0.544438
C43   C     C_3   0.345639 0.391461 0.266097 -0.545077
C44   C     C_3   0.654461 0.391417 0.733969 -0.544979
C45   C     C_R   0.682562 0.750005 0.999952 0.919981
C46   C     C_R   0.317421 0.749996 0.000015 0.919886
C47   C     C_R   0.182562 0.250005 0.999952 0.919974
C48   C     C_R   0.817421 0.249996 0.000015 0.920049
C49   C     C_3   0.820757 0.867202 0.216999 0.377952
C50   C     C_3   0.179551 0.867363 0.783439 0.377223
C51   C     C_3   0.320736 0.367222 0.216963 0.378198
C52   C     C_3   0.679350 0.367177 0.783106 0.378123
C53   C     C_1   0.917713 0.918919 0.336024 -0.017180
C54   C     C_1   0.082428 0.918940 0.664014 -0.016821
C55   C     C_1   0.417708 0.418921 0.336021 -0.017604
C56   C     C_1   0.582377 0.418922 0.663983 -0.017613
C57   C     C_1   0.831266 0.832071 0.162259 -0.063938
C58   C     C_1   0.168860 0.832082 0.837757 -0.061112
C59   C     C_1   0.331258 0.332072 0.162258 -0.064196
C60   C     C_1   0.668772 0.332073 0.837744 -0.064266
C61   C     C_1   0.812797 0.813155 0.125025 -0.194296
C62   C     C_1   0.187278 0.813159 0.874979 -0.190400
C63   C     C_1   0.312791 0.313155 0.125025 -0.194612
C64   C     C_1   0.687221 0.313155 0.874976 -0.194594
C65   C     C_R   0.852162 0.764632 0.956880 -0.190228
C66   C     C_R   0.149846 0.764258 0.045969 -0.190390
C67   C     C_R   0.351533 0.264846 0.956252 -0.188850
C68   C     C_R   0.648518 0.264848 0.043878 -0.188864
C69   C     C_R   0.888866 0.765089 0.958732 -0.238762
C70   C     C_R   0.114223 0.764337 0.046342 -0.230907
C71   C     C_R   0.387855 0.265344 0.957382 -0.241547
C72   C     C_R   0.612215 0.265338 0.042794 -0.241487
C73   C     C_R   0.930836 0.752862 0.007076 -0.017090
C74   C     C_R   0.072997 0.750355 0.000840 -0.021034
C75   C     C_R   0.429805 0.252783 0.004970 -0.016885
C76   C     C_R   0.570272 0.252801 0.995199 -0.016899
C77   C     C_R   0.936248 0.740705 0.055078 0.520205
C78   C     C_R   0.068072 0.735537 0.955188 0.497722
C79   C     C_R   0.435597 0.240218 0.052984 0.522367
C80   C     C_R   0.564466 0.240267 0.947135 0.522341
C81   C     C_R   0.898012 0.738572 0.050633 -0.301639
C82   C     C_R   0.103963 0.735727 0.954930 -0.284137
C83   C     C_R   0.397670 0.238093 0.049257 -0.301491
C84   C     C_R   0.602374 0.238143 0.950817 -0.301441
C85   C     C_R   0.856343 0.751004 0.002392 -0.091307
C86   C     C_R   0.144948 0.749981 0.000291 -0.100075
C87   C     C_R   0.356034 0.250890 0.001757 -0.091162
C88   C     C_R   0.644003 0.250917 0.998321 -0.091163
C89   C     C_R   0.709463 0.709278 0.918889 0.919627
C90   C     C_R   0.290535 0.709278 0.081111 0.917780
C91   C     C_R   0.209463 0.209277 0.918889 0.919937
C92   C     C_R   0.790538 0.209278 0.081111 0.919963
C93   C     C_R   0.035963 0.751108 0.002256 0.298268
C94   C     C_R   0.967959 0.752443 0.005642 0.316657
C95   C     C_R   0.533594 0.252632 0.997484 0.326736
C96   C     C_R   0.466494 0.252619 0.002705 0.326739
C97   C     C_3   0.657733 0.613404 0.820946 -0.385897
C98   C     C_3   0.342244 0.613400 0.179056 -0.386803
C99   C     C_3   0.157743 0.113402 0.820948 -0.385363
C100  C     C_3   0.842250 0.113400 0.179059 -0.385414
C101  C     C_3   0.593827 0.649365 0.749968 0.503375
C102  C     C_3   0.406116 0.649327 0.250078 0.503855
C103  C     C_3   0.093828 0.149360 0.749978 0.503338
C104  C     C_3   0.906127 0.149325 0.250079 0.503315
C105  C     C_3   0.569702 0.624977 0.701570 -0.544136
C106  C     C_3   0.430228 0.624939 0.298474 -0.544246
C107  C     C_3   0.069703 0.124973 0.701579 -0.543834
C108  C     C_3   0.930237 0.124938 0.298476 -0.543920
C109  C     C_1   0.562933 0.562750 0.625874 -0.191795
C110  C     C_1   0.437003 0.562749 0.374124 -0.191838
C111  C     C_1   0.062933 0.062750 0.625873 -0.191301
C112  C     C_1   0.937004 0.062750 0.374125 -0.191357
C113  C     C_3   0.646056 0.644769 0.792496 0.157451
C114  C     C_3   0.353889 0.644769 0.207502 0.158638
C115  C     C_3   0.146058 0.144768 0.792498 0.156692
C116  C     C_3   0.853899 0.144769 0.207505 0.156715
C117  C     C_3   0.633241 0.588813 0.772505 0.374904
C118  C     C_3   0.366723 0.588809 0.227497 0.375301
C119  C     C_3   0.133249 0.088811 0.772508 0.374594
C120  C     C_3   0.866728 0.088810 0.227499 0.374644
C121  C     C_3   0.605174 0.603672 0.710347 0.189532
C122  C     C_3   0.394749 0.603671 0.289650 0.189759
C123  C     C_3   0.105175 0.103670 0.710349 0.188956
C124  C     C_3   0.894756 0.103672 0.289653 0.189004
C125  C     C_3   0.637324 0.622277 0.707386 -0.365222
C126  C     C_3   0.362561 0.622317 0.292561 -0.365127
C127  C     C_3   0.137320 0.122279 0.707381 -0.364875
C128  C     C_3   0.862571 0.122320 0.292565 -0.364827
C129  C     C_3   0.661752 0.646374 0.756247 -0.524659
C130  C     C_3   0.338146 0.646414 0.243699 -0.525968
C131  C     C_3   0.161747 0.146376 0.756242 -0.524048
C132  C     C_3   0.838159 0.146417 0.243704 -0.524021
C133  C     C_R   0.817574 0.750081 0.000198 0.886508
C134  C     C_R   0.182553 0.749996 0.000069 0.888578
C135  C     C_R   0.317536 0.250061 0.000125 0.886902
C136  C     C_R   0.682476 0.250073 0.999899 0.886857
C137  C     C_1   0.581896 0.581275 0.663807 -0.063229
C138  C     C_1   0.418022 0.581274 0.336191 -0.063349
C139  C     C_1   0.081896 0.081274 0.663807 -0.062944
C140  C     C_1   0.918026 0.081275 0.336193 -0.062950
C141  C     C_1   0.668861 0.667767 0.837929 -0.014958
C142  C     C_1   0.331099 0.667767 0.162069 -0.016245
C143  C     C_1   0.168862 0.167766 0.837931 -0.014497
C144  C     C_1   0.831110 0.167767 0.162071 -0.014503
C145  C     C_1   0.687437 0.686780 0.874950 -0.154089
C146  C     C_1   0.312541 0.686780 0.125049 -0.155779
C147  C     C_1   0.187438 0.186780 0.874951 -0.153560
C148  C     C_1   0.812549 0.186780 0.125050 -0.153574
C149  C     C_R   0.040636 0.959537 0.581117 0.901202
C150  C     C_R   0.959389 0.959534 0.418888 0.901208
C151  C     C_R   0.540632 0.459534 0.581113 0.901389
C152  C     C_R   0.459388 0.459534 0.418888 0.901384
C153  C     C_R   0.459351 0.540635 0.418719 0.898254
C154  C     C_R   0.540628 0.540635 0.581280 0.898251
C155  C     C_R   0.959352 0.040635 0.418720 0.897940
C156  C     C_R   0.040628 0.040635 0.581280 0.897944
C157  C     C_R   0.618611 0.776062 0.983022 -0.281726
C158  C     C_R   0.381186 0.776074 0.016657 -0.281845
C159  C     C_R   0.118617 0.276064 0.983033 -0.281925
C160  C     C_R   0.881202 0.276067 0.016687 -0.281968
C161  C     C_R   0.583124 0.776668 0.983812 -0.154010
C162  C     C_R   0.416597 0.776685 0.015721 -0.153963
C163  C     C_R   0.083129 0.276668 0.983822 -0.154258
C164  C     C_R   0.916614 0.276678 0.015751 -0.154303
C165  C     C_R   0.573243 0.751318 0.001157 -0.006853
C166  C     C_R   0.426524 0.751322 0.998393 -0.006887
C167  C     C_R   0.073242 0.251316 0.001154 -0.006784
C168  C     C_R   0.926525 0.251321 0.998393 -0.006821
C169  C     C_R   0.599711 0.725519 0.018471 -0.233638
C170  C     C_R   0.400171 0.725507 0.981231 -0.233794
C171  C     C_R   0.099703 0.225516 0.018455 -0.233620
C172  C     C_R   0.900157 0.225510 0.981203 -0.233662
C173  C     C_R   0.635601 0.724997 0.018534 0.639676
C174  C     C_R   0.364354 0.724978 0.981312 0.639650
C175  C     C_R   0.135595 0.224994 0.018520 0.639706
C176  C     C_R   0.864340 0.224981 0.981285 0.639645
H1    H     H_    0.625622 0.795842 0.969326 0.179106
H2    H     H_    0.374137 0.795863 0.030335 0.179075
H3    H     H_    0.125633 0.295845 0.969347 0.178852
H4    H     H_    0.874165 0.295853 0.030388 0.178906
H5    H     H_    0.873345 0.926932 0.218961 0.172426
H6    H     H_    0.126250 0.926897 0.780924 0.172476
H7    H     H_    0.373386 0.426927 0.218970 0.172299
H8    H     H_    0.626626 0.426944 0.781012 0.172329
H9    H     H_    0.791543 0.878487 0.175258 0.063092
H10   H     H_    0.208584 0.878673 0.825269 0.063379
H11   H     H_    0.291537 0.378510 0.175214 0.062742
H12   H     H_    0.708527 0.378456 0.824866 0.062876
H13   H     H_    0.846602 0.884979 0.302993 0.209053
H14   H     H_    0.153987 0.885222 0.697638 0.208800
H15   H     H_    0.346558 0.385009 0.302940 0.208628
H16   H     H_    0.653580 0.384942 0.697154 0.208631
H17   H     H_    0.887392 0.822699 0.281026 0.175865
H18   H     H_    0.113287 0.822734 0.719032 0.176008
H19   H     H_    0.387338 0.322703 0.281022 0.175625
H20   H     H_    0.612778 0.322700 0.718986 0.175611
H21   H     H_    0.921631 0.858762 0.352313 0.087750
H22   H     H_    0.079066 0.858805 0.647773 0.087414
H23   H     H_    0.421577 0.358767 0.352306 0.087193
H24   H     H_    0.578561 0.358762 0.647704 0.087185
H25   H     H_    0.826439 0.912789 0.247875 0.160391
H26   H     H_    0.173702 0.912995 0.752685 0.160393
H27   H     H_    0.326433 0.412815 0.247828 0.160041
H28   H     H_    0.673653 0.412758 0.752253 0.160118
H29   H     H_    0.820231 0.774352 0.919181 0.168271
H30   H     H_    0.181269 0.775319 0.081559 0.168965
H31   H     H_    0.319629 0.274846 0.919095 0.168013
H32   H     H_    0.680419 0.274828 0.081039 0.167983
H33   H     H_    0.884412 0.775117 0.922197 0.173718
H34   H     H_    0.118725 0.775724 0.081908 0.170155
H35   H     H_    0.383116 0.275701 0.920877 0.170173
H36   H     H_    0.616961 0.275672 0.079338 0.170170
H37   H     H_    0.563088 0.796808 0.970101 0.164538
H38   H     H_    0.436545 0.796839 0.029315 0.164674
H39   H     H_    0.063097 0.296810 0.970121 0.164253
H40   H     H_    0.936573 0.296828 0.029367 0.164337
H41   H     H_    0.900808 0.727136 0.084860 0.162885
H42   H     H_    0.099587 0.724729 0.919143 0.174144
H43   H     H_    0.400661 0.226392 0.083412 0.162868
H44   H     H_    0.599375 0.226459 0.916623 0.162882
H45   H     H_    0.609153 0.577388 0.775472 0.064672
H46   H     H_    0.390839 0.577353 0.224569 0.064677
H47   H     H_    0.109166 0.077384 0.775482 0.064948
H48   H     H_    0.890842 0.077352 0.224571 0.064801
H49   H     H_    0.647379 0.611758 0.848012 0.184231
H50   H     H_    0.352631 0.611725 0.152026 0.184180
H51   H     H_    0.147394 0.111754 0.848022 0.184400
H52   H     H_    0.852637 0.111724 0.152028 0.184342
H53   H     H_    0.585083 0.671649 0.728591 0.087755
H54   H     H_    0.414835 0.671613 0.271452 0.087744
H55   H     H_    0.085080 0.171645 0.728601 0.087636
H56   H     H_    0.914849 0.171612 0.271453 0.087648
H57   H     H_    0.545922 0.612146 0.703101 0.218094
H58   H     H_    0.454035 0.612079 0.296981 0.218156
H59   H     H_    0.045927 0.112139 0.703114 0.218337
H60   H     H_    0.954042 0.112076 0.296982 0.218257
H61   H     H_    0.548946 0.635697 0.657242 0.163043
H62   H     H_    0.450954 0.635661 0.342800 0.163108
H63   H     H_    0.048943 0.135693 0.657251 0.163062
H64   H     H_    0.950965 0.135660 0.342802 0.163055
H65   H     H_    0.699174 0.642985 0.785808 0.212312
H66   H     H_    0.300724 0.643053 0.214103 0.210943
H67   H     H_    0.199169 0.142991 0.785797 0.213208
H68   H     H_    0.800737 0.143059 0.214110 0.213232
H69   H     H_    0.654188 0.668795 0.735703 0.178963
H70   H     H_    0.345685 0.668839 0.264239 0.178722
H71   H     H_    0.154177 0.168798 0.735697 0.178834
H72   H     H_    0.845701 0.168843 0.264244 0.178840
H73   H     H_    0.662956 0.607584 0.712798 0.221145
H74   H     H_    0.336923 0.607652 0.287114 0.220799
H75   H     H_    0.162952 0.107589 0.712790 0.221719
H76   H     H_    0.836932 0.107657 0.287119 0.221754
H77   H     H_    0.592795 0.705725 0.032233 0.183098
H78   H     H_    0.407124 0.705702 0.967486 0.183027
H79   H     H_    0.092783 0.205720 0.032207 0.183184
H80   H     H_    0.907099 0.205709 0.967436 0.183194
H81   H     H_    0.695207 0.609960 0.851737 0.196073
H82   H     H_    0.304771 0.609983 0.148231 0.194821
H83   H     H_    0.195216 0.109960 0.851734 0.196672
H84   H     H_    0.804777 0.109985 0.148235 0.196675
H85   H     H_    0.617543 0.633180 0.663344 0.170569
H86   H     H_    0.382312 0.633223 0.336600 0.170392
H87   H     H_    0.117534 0.133182 0.663339 0.170534
H88   H     H_    0.882324 0.133226 0.336604 0.170544
H89   H     H_    0.920269 0.833235 0.260947 0.205093
H90   H     H_    0.080027 0.833104 0.738643 0.209423
H91   H     H_    0.420247 0.333217 0.260981 0.205157
H92   H     H_    0.579814 0.333265 0.738952 0.205181
H93   H     H_    0.838006 0.890936 0.147164 0.178600
H94   H     H_    0.161598 0.890898 0.852709 0.178527
H95   H     H_    0.338045 0.390931 0.147174 0.178235
H96   H     H_    0.661942 0.390949 0.852805 0.178314
H97   H     H_    0.891648 0.873032 0.182985 0.209684
H98   H     H_    0.108029 0.872859 0.816517 0.212458
H99   H     H_    0.391679 0.373009 0.183026 0.209479
H100  H     H_    0.608306 0.373071 0.816891 0.209485
H101  H     H_    0.927073 0.909349 0.254169 0.229348
H102  H     H_    0.072591 0.909170 0.745329 0.230409
H103  H     H_    0.427107 0.409326 0.254211 0.229173
H104  H     H_    0.572903 0.409388 0.745710 0.229171
N1    N     N_R   0.517246 0.725479 0.000205 -0.163225
N2    N     N_R   0.482556 0.725481 0.999307 -0.163207
N3    N     N_R   0.017234 0.225477 0.000181 -0.163033
N4    N     N_R   0.982545 0.225479 0.999284 -0.163046
N5    N     N_R   0.482527 0.777575 0.999407 -0.178606
N6    N     N_R   0.517108 0.777573 0.999986 -0.178565
N7    N     N_R   0.982538 0.277573 0.999426 -0.178977
N8    N     N_R   0.017118 0.277571 0.000004 -0.178978
N9    N     N_R   0.011938 0.752598 0.056330 -0.140738
N10   N     N_R   0.991984 0.751107 0.951466 -0.113536
N11   N     N_R   0.510656 0.252596 0.052917 -0.141310
N12   N     N_R   0.489433 0.252641 0.947274 -0.141320
N13   N     N_R   0.045363 0.752024 0.054719 -0.191215
N14   N     N_R   0.958575 0.751801 0.953133 -0.183169
N15   N     N_R   0.543616 0.252669 0.050393 -0.185267
N16   N     N_R   0.456474 0.252702 0.949798 -0.185309
O1    O     O_R   0.798060 0.763370 0.096070 -0.615949
O2    O     O_R   0.201940 0.763370 0.903930 -0.613103
O3    O     O_R   0.298060 0.263370 0.096070 -0.615746
O4    O     O_R   0.701940 0.263370 0.903930 -0.615761
O5    O     O_R   0.001940 0.969340 0.561310 -0.603971
O6    O     O_R   0.998060 0.969340 0.438690 -0.604488
O7    O     O_R   0.501940 0.469340 0.561310 -0.604425
O8    O     O_R   0.498060 0.469340 0.438690 -0.604472
O9    O     O_R   0.497920 0.530770 0.438300 -0.616490
O10   O     O_R   0.502080 0.530770 0.561700 -0.616607
O11   O     O_R   0.997920 0.030770 0.438300 -0.616521
O12   O     O_R   0.002080 0.030770 0.561700 -0.616394
O13   O     O_R   0.440430 0.530760 0.438330 -0.616220
O14   O     O_R   0.559570 0.530760 0.561670 -0.616090
O15   O     O_R   0.940430 0.030760 0.438330 -0.615901
O16   O     O_R   0.059570 0.030760 0.561670 -0.615975
O17   O     O_R   0.763350 0.798040 0.026640 -0.622122
O18   O     O_R   0.236650 0.798040 0.973360 -0.622543
O19   O     O_R   0.263350 0.298040 0.026640 -0.622543
O20   O     O_R   0.736650 0.298040 0.973360 -0.622508
O21   O     O_R   0.716420 0.732650 0.034650 -0.555975
O22   O     O_R   0.283580 0.732650 0.965350 -0.556241
O23   O     O_R   0.216420 0.232650 0.034650 -0.555970
O24   O     O_R   0.783580 0.232650 0.965350 -0.556050
O25   O     O_R   0.681710 0.767330 0.965220 -0.632619
O26   O     O_R   0.318290 0.767330 0.034780 -0.632620
O27   O     O_R   0.181710 0.267330 0.965220 -0.632769
O28   O     O_R   0.818290 0.267330 0.034780 -0.632704
O29   O     O_R   0.736630 0.701940 0.973210 -0.601141
O30   O     O_R   0.263370 0.701940 0.026790 -0.603211
O31   O     O_R   0.236630 0.201940 0.973210 -0.600732
O32   O     O_R   0.763370 0.201940 0.026790 -0.600766
O33   O     O_R   0.701920 0.736610 0.903790 -0.619563
O34   O     O_R   0.298080 0.736610 0.096210 -0.619538
O35   O     O_R   0.201920 0.236610 0.903790 -0.619850
O36   O     O_R   0.798080 0.236610 0.096210 -0.619823
O37   O     O_R   0.818270 0.732650 0.034640 -0.627293
O38   O     O_R   0.181730 0.732650 0.965360 -0.628720
O39   O     O_R   0.318270 0.232650 0.034640 -0.626699
O40   O     O_R   0.681730 0.232650 0.965360 -0.626693
O41   O     O_R   0.783570 0.767330 0.965210 -0.626886
O42   O     O_R   0.216430 0.767330 0.034790 -0.626568
O43   O     O_R   0.283570 0.267330 0.965210 -0.627805
O44   O     O_R   0.716430 0.267330 0.034790 -0.627789
O45   O     O_R   0.059430 0.969340 0.561280 -0.617897
O46   O     O_R   0.940570 0.969340 0.438720 -0.617481
O47   O     O_R   0.559430 0.469340 0.561280 -0.617922
O48   O     O_R   0.440570 0.469340 0.438720 -0.617898
Zn1   Zn    Zn3+2 0.773170 0.726840 0.046290 1.018626
Zn2   Zn    Zn3+2 0.226830 0.726840 0.953710 1.018908
Zn3   Zn    Zn3+2 0.273170 0.226840 0.046290 1.019656
Zn4   Zn    Zn3+2 0.726830 0.226840 0.953710 1.019674
Zn5   Zn    Zn3+2 0.726820 0.773140 0.953570 0.962812
Zn6   Zn    Zn3+2 0.273180 0.773140 0.046430 0.962866
Zn7   Zn    Zn3+2 0.226820 0.273140 0.953570 0.961213
Zn8   Zn    Zn3+2 0.773180 0.273140 0.046430 0.961431
Zn9   Zn    Zn3+2 0.538320 0.500060 0.499790 0.980921
Zn10  Zn    Zn3+2 0.461680 0.500060 0.500210 0.980763
Zn11  Zn    Zn3+2 0.038320 0.000060 0.499790 0.981811
Zn12  Zn    Zn3+2 0.961680 0.000060 0.500210 0.982880
O49   O     O_3   0.806911 0.843792 0.234428 -0.640143
C177  C     C_3   0.761126 0.835345 0.188424 0.096604
H105  H     H_    0.757583 0.811732 0.196039 0.176458
H106  H     H_    0.751102 0.836106 0.143891 0.118502
C178  C     C_3   0.729078 0.854483 0.189768 -0.368441
H107  H     H_    0.738738 0.852505 0.233881 0.240388
H108  H     H_    0.732128 0.878253 0.182382 0.211506
C179  C     C_3   0.679768 0.844657 0.142234 -0.931416
H109  H     H_    0.669188 0.846910 0.097650 0.260909
H110  H     H_    0.657360 0.858879 0.144257 0.269861
H111  H     H_    0.675605 0.821094 0.149361 0.270324
O50   O     O_3   0.193745 0.844043 0.766239 -0.640271
C180  C     C_3   0.239500 0.835610 0.812537 0.096364
H112  H     H_    0.243209 0.812014 0.804979 0.176292
H113  H     H_    0.249239 0.836332 0.856907 0.118132
C181  C     C_3   0.271708 0.854804 0.811675 -0.368227
H114  H     H_    0.262343 0.852871 0.767727 0.239970
H115  H     H_    0.268498 0.878557 0.819021 0.211521
C182  C     C_3   0.321005 0.844994 0.859531 -0.932095
H116  H     H_    0.331293 0.847203 0.903961 0.260947
H117  H     H_    0.343532 0.859256 0.857855 0.269772
H118  H     H_    0.325332 0.821447 0.852460 0.270269
O51   O     O_3   0.306860 0.343824 0.234373 -0.640504
C183  C     C_3   0.261074 0.335384 0.188347 0.096773
H119  H     H_    0.257514 0.311775 0.195957 0.176244
H120  H     H_    0.251072 0.336140 0.143827 0.118503
C184  C     C_3   0.229020 0.354536 0.189658 -0.368868
H121  H     H_    0.238658 0.352564 0.233758 0.239875
H122  H     H_    0.232087 0.378302 0.182275 0.211150
C185  C     C_3   0.179708 0.344719 0.142100 -0.933044
H123  H     H_    0.169150 0.346966 0.097527 0.260895
H124  H     H_    0.157295 0.358950 0.144098 0.269391
H125  H     H_    0.175527 0.321159 0.149223 0.270426
O52   O     O_3   0.693271 0.343752 0.765737 -0.640492
C186  C     C_3   0.739028 0.335246 0.811840 0.096739
H126  H     H_    0.742573 0.311619 0.804239 0.176252
H127  H     H_    0.748960 0.336025 0.856320 0.118546
C187  C     C_3   0.771175 0.354315 0.810666 -0.368812
H128  H     H_    0.761613 0.352321 0.766609 0.239867
H129  H     H_    0.768123 0.378097 0.818042 0.211238
C188  C     C_3   0.820459 0.344424 0.858311 -0.932861
H130  H     H_    0.830943 0.346692 0.902843 0.260921
H131  H     H_    0.842941 0.358597 0.856411 0.269400
H132  H     H_    0.824625 0.320846 0.851200 0.270439
O53   O     O_3   0.977202 0.727629 0.102102 -0.637085
C189  C     C_3   0.995057 0.740969 0.156656 0.081408
H133  H     H_    0.019796 0.725052 0.192406 0.175261
H134  H     H_    0.969106 0.745005 0.161109 0.122803
C190  C     C_3   0.020295 0.769985 0.167176 -0.360201
H135  H     H_    0.048919 0.765140 0.168231 0.247904
H136  H     H_    0.996800 0.785933 0.130657 0.218199
C191  C     C_3   0.039201 0.784457 0.225604 -0.927287
H137  H     H_    0.011141 0.790166 0.225256 0.267403
H138  H     H_    0.057518 0.805241 0.232134 0.271665
H139  H     H_    0.063338 0.769126 0.263050 0.266193
O54   O     O_3   0.027832 0.721597 0.909708 -0.632900
C192  C     C_3   0.031224 0.691168 0.924130 0.065074
H140  H     H_    0.039757 0.688478 0.967616 0.140484
H141  H     H_    0.057740 0.680004 0.925809 0.138503
C193  C     C_3   0.985533 0.676120 0.876628 -0.289138
H142  H     H_    0.958770 0.687239 0.874313 0.238522
H143  H     H_    0.976548 0.678495 0.832965 0.230033
C194  C     C_3   0.987005 0.643083 0.889914 -0.960642
H144  H     H_    0.013067 0.631413 0.891506 0.265828
H145  H     H_    0.953365 0.632838 0.854603 0.270259
H146  H     H_    0.995075 0.640206 0.932902 0.269578
O55   O     O_3   0.476544 0.226820 0.099214 -0.633605
C195  C     C_3   0.495053 0.239684 0.154384 0.083642
H147  H     H_    0.519794 0.223502 0.189470 0.176612
H148  H     H_    0.469490 0.243582 0.159578 0.121996
C196  C     C_3   0.520486 0.268678 0.165398 -0.362476
H149  H     H_    0.548744 0.263923 0.165666 0.248470
H150  H     H_    0.496963 0.284907 0.129520 0.216848
C197  C     C_3   0.540122 0.282631 0.224513 -0.927525
H151  H     H_    0.512443 0.288244 0.224977 0.267301
H152  H     H_    0.558562 0.303412 0.231378 0.271206
H153  H     H_    0.564302 0.267014 0.261334 0.266572
O56   O     O_3   0.523530 0.226889 0.900896 -0.633607
C198  C     C_3   0.504981 0.239777 0.845739 0.083640
H154  H     H_    0.480252 0.223611 0.810633 0.176579
H155  H     H_    0.530523 0.243678 0.840523 0.121987
C199  C     C_3   0.479517 0.268777 0.834793 -0.362405
H156  H     H_    0.451275 0.264022 0.834538 0.248454
H157  H     H_    0.503027 0.284989 0.870695 0.216858
C200  C     C_3   0.459842 0.282756 0.775694 -0.927690
H158  H     H_    0.487503 0.288369 0.775219 0.267303
H159  H     H_    0.441381 0.303540 0.768879 0.271191
H160  H     H_    0.435675 0.267155 0.738851 0.266564
F1    F     F_    0.578480 0.648474 0.780958 -0.651866
F2    F     F_    0.421504 0.648399 0.219135 -0.651695
F3    F     F_    0.078488 0.148465 0.780975 -0.651601
F4    F     F_    0.921513 0.148394 0.219134 -0.651692
O57   O     O_3   0.666474 0.569180 0.782407 -0.639898
C201  C     C_3   0.654752 0.538836 0.778532 0.082616
H161  H     H_    0.671013 0.525929 0.764829 0.172205
H162  H     H_    0.617531 0.534677 0.744140 0.123543
C202  C     C_3   0.672900 0.527318 0.838830 -0.350095
H163  H     H_    0.710261 0.530822 0.871974 0.235603
H164  H     H_    0.656997 0.539907 0.853377 0.216023
C203  C     C_3   0.662715 0.494191 0.836097 -0.965907
H165  H     H_    0.625452 0.490242 0.803848 0.265102
H166  H     H_    0.676234 0.486465 0.880324 0.271281
H167  H     H_    0.679069 0.481018 0.822810 0.258300
O58   O     O_3   0.333484 0.569210 0.217552 -0.640463
C204  C     C_3   0.345227 0.538854 0.221439 0.082450
H168  H     H_    0.328946 0.525975 0.235104 0.172059
H169  H     H_    0.382447 0.534670 0.255861 0.123729
C205  C     C_3   0.327125 0.527324 0.161158 -0.350753
H170  H     H_    0.289764 0.530854 0.127982 0.234893
H171  H     H_    0.343048 0.539884 0.146649 0.216000
C206  C     C_3   0.337331 0.494186 0.163900 -0.966083
H172  H     H_    0.374595 0.490210 0.196183 0.265208
H173  H     H_    0.323846 0.486450 0.119687 0.271086
H174  H     H_    0.320957 0.481040 0.177150 0.258228
O59   O     O_3   0.166482 0.069180 0.782403 -0.639289
C207  C     C_3   0.154751 0.038835 0.778501 0.082893
H175  H     H_    0.171002 0.025935 0.764776 0.172615
H176  H     H_    0.117528 0.034681 0.744115 0.123422
C208  C     C_3   0.172906 0.027300 0.838792 -0.349877
H177  H     H_    0.210269 0.030795 0.871930 0.236222
H178  H     H_    0.157018 0.039884 0.853364 0.216231
C209  C     C_3   0.162705 0.994173 0.836027 -0.964255
H179  H     H_    0.125439 0.990233 0.803787 0.265181
H180  H     H_    0.176232 0.986433 0.880250 0.271688
H181  H     H_    0.179041 0.981004 0.822709 0.258270
O60   O     O_3   0.833488 0.069213 0.217556 -0.639281
C210  C     C_3   0.845226 0.038856 0.221439 0.082999
H182  H     H_    0.828944 0.025978 0.235104 0.172679
H183  H     H_    0.882446 0.034670 0.255860 0.123324
C211  C     C_3   0.827122 0.027327 0.161157 -0.349799
H184  H     H_    0.789762 0.030860 0.127982 0.236249
H185  H     H_    0.843047 0.039886 0.146649 0.216110
C212  C     C_3   0.837323 0.994188 0.163895 -0.964842
H186  H     H_    0.874587 0.990210 0.196177 0.265021
H187  H     H_    0.823837 0.986453 0.119680 0.271601
H188  H     H_    0.820948 0.981043 0.177143 0.258389
F5    F     F_    0.660219 0.699561 0.034924 -0.645395
F6    F     F_    0.339845 0.699527 0.965069 -0.645592
F7    F     F_    0.160207 0.199557 0.034897 -0.645203
F8    F     F_    0.839818 0.199536 0.965014 -0.645240
F9    F     F_    0.965237 0.869359 0.339136 -0.657255
F10   F     F_    0.035056 0.869203 0.660394 -0.654315
F11   F     F_    0.465217 0.369339 0.339175 -0.657506
F12   F     F_    0.534866 0.369394 0.660752 -0.657500

loop_
_geom_bond_atom_site_label_1
_geom_bond_atom_site_label_2
_ccdc_geom_bond_type
C186  C187  S    
C196  H149  S    
O49   C177  S    
C24   H8    S    
C101  C113  S    
C142  C146  T    
C97   H49   S    
C4    O20   A    
C111  C139  T    
C129  H69   S    
O38   Zn2   S    
O28   Zn8   S    
C25   C53   T    
C188  H131  S    
C27   C55   T    
C98   C114  S    
C7    C159  A    
C184  H122  S    
C22   C38   S    
C181  H114  S    
C177  C178  S    
C31   C59   S    
C136  O40   A    
C32   C52   S    
C104  C116  S    
C86   C134  S    
C205  H170  S    
C112  C155  S    
C70   C74   A    
C2    O18   A    
O46   Zn12  S    
C141  C145  T    
O26   Zn6   S    
C180  C181  S    
C98   H82   S    
C182  H117  S    
C156  O16   A    
C192  H141  S    
O17   Zn5   S    
O11   Zn11  S    
C114  C130  S    
C74   C93   S    
C11   N4    A    
C108  C124  S    
C175  F7    S    
C41   C49   S    
O50   C180  S    
C102  F2    S    
C153  O13   A    
C115  C143  S    
C154  O10   A    
C165  C169  A    
C178  C179  S    
C164  C168  A    
C194  H146  S    
C17   H93   S    
C19   C23   S    
C200  H160  S    
C167  C171  A    
C6    C174  A    
C17   C21   S    
C13   H89   S    
C202  C203  S    
C185  H124  S    
C20   H100  S    
C119  O59   S    
C102  C114  S    
C21   H101  S    
C34   F10   S    
O41   Zn5   S    
C78   C82   A    
C92   O36   A    
C68   C72   A    
O43   Zn7   S    
C119  H47   S    
C109  C154  S    
C3    O3    A    
O20   Zn8   S    
C206  H173  S    
C155  O11   A    
C46   O26   A    
C149  O5    A    
C174  F6    S    
C49   O49   S    
C48   O24   A    
C185  H125  S    
C184  H121  S    
O55   C195  S    
C170  C174  A    
C13   C29   S    
C172  H80   S    
C26   C149  S    
C91   O35   A    
C84   C88   A    
O5    Zn12  S    
C17   H97   S    
C182  H116  S    
C57   C61   T    
C119  C123  S    
C59   C63   T    
C181  C182  S    
C9    N5    A    
C60   C64   T    
C193  H142  S    
C125  H73   S    
C134  O42   A    
C158  H2    S    
C11   N7    A    
C190  H135  S    
C44   H16   S    
C99   C115  S    
C66   C70   A    
C205  C206  S    
O22   Zn2   S    
C97   C117  S    
C211  H184  S    
C197  H152  S    
C200  H159  S    
C187  H128  S    
C99   C119  S    
C125  C129  S    
C210  C211  S    
C135  O39   A    
C102  H54   S    
C105  H61   S    
C103  C107  S    
C4    O4    A    
C75   C79   A    
C161  C165  A    
C183  H119  S    
C198  H155  S    
C80   O56   S    
C201  H162  S    
C27   C152  S    
O42   Zn6   S    
C118  H46   S    
C89   O29   A    
C112  C140  T    
C194  H144  S    
O33   Zn5   S    
C91   O31   A    
C91   C147  S    
O53   C189  S    
C28   C56   T    
C35   H23   S    
C29   C49   S    
C204  H168  S    
C48   O28   A    
C23   H7    S    
C196  H150  S    
O7    Zn10  S    
C93   N10   A    
O54   C192  S    
C176  F8    S    
C201  C202  S    
C65   H29   S    
C77   O53   S    
C83   H43   S    
C179  H109  S    
C211  C212  S    
C202  H164  S    
O44   Zn8   S    
C121  C137  S    
C160  H4    S    
C84   H44   S    
C116  C144  S    
C132  H68   S    
C179  H110  S    
C203  H165  S    
O15   Zn12  S    
C21   H5    S    
C135  O43   A    
C37   C53   S    
C44   C52   S    
C120  H48   S    
C92   O32   A    
O30   Zn2   S    
O19   Zn7   S    
C26   C54   T    
C6    C158  A    
O21   Zn1   S    
C98   C118  S    
C127  C131  S    
C103  H55   S    
C39   C55   S    
C134  O38   A    
C193  C194  S    
C169  H77   S    
N12   N16   A    
C207  H175  S    
C190  C191  S    
C23   H103  S    
C157  H1    S    
O3    Zn3   S    
C3    O19   A    
O40   Zn4   S    
C121  C125  S    
C90   O30   A    
C51   O51   S    
C34   H22   S    
C123  C127  S    
C210  H182  S    
C116  C132  S    
C99   H83   S    
C81   H41   S    
C106  C122  S    
C93   N13   A    
O58   C204  S    
C177  H106  S    
C212  H187  S    
C42   C50   S    
C183  C184  S    
C154  O14   A    
C195  H147  S    
C166  C170  A    
C101  F1    S    
C74   C78   A    
C70   H34   S    
C149  O45   A    
C42   H26   S    
C151  O7    A    
C50   H10   S    
C18   H94   S    
C189  H133  S    
C162  H38   S    
C204  C205  S    
C186  H127  S    
C14   H18   S    
C73   C77   A    
C106  H58   S    
N10   N14   A    
C5    C173  A    
C76   C80   A    
C31   C51   S    
C83   C87   A    
C14   C34   S    
C8    C176  A    
C15   C31   S    
C16   C32   S    
C133  O41   A    
C179  H111  S    
O18   Zn6   S    
C184  C185  S    
C22   H6    S    
C110  C153  S    
C188  H130  S    
C16   C36   S    
C130  H66   S    
C203  H167  S    
C47   O27   A    
C181  H115  S    
C9    N2    A    
C37   C41   S    
C209  H179  S    
O48   Zn10  S    
O9    Zn9   S    
C40   C44   S    
C49   H9    S    
C28   C151  S    
C205  H171  S    
O57   C201  S    
C125  H85   S    
N3    N4    A    
C44   H28   S    
C169  C173  A    
C71   H35   S    
C13   H17   S    
C52   H12   S    
O47   Zn9   S    
C97   C113  S    
C81   C85   A    
C172  C176  A    
C18   H98   S    
C152  O8    A    
C58   C62   T    
O1    Zn1   S    
C108  H60   S    
C192  H140  S    
C92   C148  S    
C17   C29   S    
C10   N6    A    
C100  C116  S    
C207  C208  S    
C107  C123  S    
C80   C84   A    
C19   C31   S    
C12   C167  S    
O56   C198  S    
O35   Zn7   S    
O51   C183  S    
C164  H40   S    
C178  H108  S    
O37   Zn1   S    
C160  C164  A    
C1    O1    A    
C194  H145  S    
C15   H91   S    
C20   C32   S    
C182  H118  S    
C126  C130  S    
C45   O21   A    
C100  H52   S    
C199  H156  S    
C161  H37   S    
C162  C166  A    
C163  H39   S    
C195  C196  S    
C118  O58   S    
C40   C56   S    
C68   H32   S    
C89   O33   A    
C69   C73   A    
O39   Zn3   S    
O4    Zn4   S    
C72   C76   A    
C124  C128  S    
C15   H19   S    
O25   Zn5   S    
C30   C50   S    
C18   C22   S    
C94   N9    A    
C73   C94   S    
C50   O50   S    
C75   C96   S    
C117  O57   S    
C87   C135  S    
C88   C136  S    
C188  H132  S    
C132  H72   S    
C82   C86   A    
C107  H63   S    
C33   C37   S    
C199  C200  S    
C193  H143  S    
C35   C39   S    
O59   C207  S    
C8    C48   S    
C66   C86   A    
C103  C115  S    
C16   H20   S    
C199  H157  S    
C52   O52   S    
C33   F9    S    
N7    N8    A    
C38   C54   S    
C77   C81   A    
C22   H102  S    
C128  H76   S    
C211  H185  S    
C197  H153  S    
C122  C138  S    
C187  H129  S    
C46   O22   A    
C210  H183  S    
C29   C57   S    
C192  C193  S    
C5    C157  A    
C11   C168  S    
C173  F5    S    
C32   C60   S    
C41   H25   S    
C104  F4    S    
C157  C161  A    
C104  C108  S    
C183  H120  S    
C9    C166  S    
C124  C140  S    
C36   H24   S    
C159  H3    S    
C90   O34   A    
C187  C188  S    
C1    C61   S    
C35   F11   S    
C19   H95   S    
O52   C186  S    
C3    C63   S    
C24   H104  S    
C4    C64   S    
C126  H74   S    
C94   N14   A    
C190  H136  S    
C185  H123  S    
O36   Zn8   S    
C208  C209  S    
C79   C83   A    
C152  O48   A    
C43   C51   S    
C129  H65   S    
C65   C69   A    
C150  O6    A    
C127  H87   S    
C67   C71   A    
C128  H88   S    
N9    N13   A    
C51   H11   S    
C12   N3    A    
C168  C172  A    
C206  H174  S    
C21   C37   S    
C191  H137  S    
C203  H166  S    
O60   C210  S    
C106  H62   S    
C171  H79   S    
N11   N15   A    
C101  H53   S    
O16   Zn11  S    
C136  O44   A    
C12   N8    A    
C85   C133  S    
C71   C75   A    
O6    Zn11  S    
C100  H84   S    
C123  C139  S    
O34   Zn6   S    
C117  H45   S    
C96   N11   A    
C144  C148  T    
C130  H70   S    
C97   H81   S    
C186  H126  S    
C115  C131  S    
C143  C147  T    
O8    Zn9   S    
C156  O12   A    
N5    N6    A    
C113  C129  S    
C114  C142  S    
C10   N1    A    
C207  H176  S    
C38   C42   S    
C150  O46   A    
C76   C95   S    
C45   O25   A    
C66   H30   S    
C153  O9    A    
C104  H56   S    
C103  F3    S    
C120  O60   S    
C126  H86   S    
C109  C137  T    
C42   H14   S    
C197  H151  S    
C117  C121  S    
C120  C124  S    
C19   H99   S    
C20   C24   S    
C113  C141  S    
C7    C175  A    
O14   Zn9   S    
C100  C120  S    
C212  H186  S    
C20   H96   S    
C198  C199  S    
C195  H148  S    
C201  H161  S    
C89   C145  S    
C43   H15   S    
O27   Zn7   S    
C78   O54   S    
C202  H163  S    
C2    O2    A    
O29   Zn1   S    
C128  C132  S    
C15   C35   S    
C189  H134  S    
C204  H169  S    
C101  C105  S    
C196  C197  S    
C155  O15   A    
O10   Zn10  S    
C170  H78   S    
C108  H64   S    
C36   C40   S    
C208  H177  S    
C39   C43   S    
C209  H181  S    
C79   O55   S    
N1    N2    A    
C14   C30   S    
C171  C175  A    
O12   Zn12  S    
C25   C150  S    
O2    Zn2   S    
C122  C126  S    
C163  C167  A    
C96   N16   A    
C118  C122  S    
O45   Zn11  S    
C189  C190  S    
C206  H172  S    
C82   H42   S    
C191  H139  S    
C33   H21   S    
C105  C121  S    
C5    C45   S    
C151  O47   A    
C95   N12   A    
C209  H180  S    
C16   H92   S    
C131  H71   S    
C18   C30   S    
C110  C138  T    
C1    O17   A    
C43   H27   S    
C68   C88   A    
C159  C163  A    
C69   H33   S    
O24   Zn4   S    
O23   Zn3   S    
C67   H31   S    
C180  H112  S    
C111  C156  S    
C107  H59   S    
C6    C46   S    
C34   C38   S    
C105  H57   S    
C95   N15   A    
C7    C47   S    
C191  H138  S    
C41   H13   S    
C65   C85   A    
O13   Zn10  S    
C178  H107  S    
C67   C87   A    
C208  H178  S    
C90   C146  S    
C131  H67   S    
C47   O23   A    
C200  H158  S    
C72   H36   S    
C10   C165  S    
C23   C39   S    
C30   C58   S    
C24   C40   S    
C102  C106  S    
C127  H75   S    
C177  H105  S    
C212  H188  S    
C99   H51   S    
C158  C162  A    
C133  O37   A    
C198  H154  S    
C36   F12   S    
C2    C62   S    
O31   Zn3   S    
C13   C33   S    
O32   Zn4   S    
C180  H113  S    
C14   H90   S    
C98   H50   S    
C8    C160  A    
