data_mof_unit_52667.cif
_audit_creation_date              2012-10-26T19:51:31-0400
_audit_creation_method            fapswitch 2.2
_symmetry_space_group_name_H-M    P1
_symmetry_Int_Tables_number       1
_space_group_crystal_system       triclinic
_cell_length_a                    19.470605
_cell_length_b                    18.352989
_cell_length_c                    9.05914
_cell_angle_alpha                 89.99951
_cell_angle_beta                  94.659131
_cell_angle_gamma                 89.992481
_cell_volume                      3226.53031875

loop_
_atom_site_label
_atom_site_type_symbol
_atom_type_description
_atom_site_fract_x
_atom_site_fract_y
_atom_site_fract_z
_atom_type_partial_charge
C1    C     C_R   0.367826 0.499928 0.510590 0.579001
C2    C     C_R   0.464717 0.198678 0.387839 -0.122252
C3    C     C_R   0.500016 0.839594 0.499978 -0.009208
C4    C     C_R   0.500039 0.159414 0.499942 -0.006513
C5    C     C_R   0.560915 0.961425 0.537960 -0.108084
C6    C     C_R   0.439222 0.038014 0.461414 -0.108181
C7    C     C_R   0.439141 0.961450 0.461956 -0.108089
C8    C     C_R   0.560846 0.037990 0.538477 -0.108175
C9    C     C_R   0.500037 0.077492 0.499939 0.030655
C10   C     C_R   0.500025 0.921729 0.499964 0.030467
C11   C     C_R   0.499752 0.500016 0.220716 0.542546
C12   C     C_R   0.632177 0.499918 0.489418 0.578916
C13   C     C_R   0.500246 0.500016 0.779284 0.542547
C14   C     C_1   0.499913 0.500035 0.065580 -0.060192
C15   C     C_1   0.500084 0.500034 0.934419 -0.060164
C16   C     C_R   0.740209 0.432101 0.433014 0.179877
C17   C     C_R   0.251464 0.562966 0.516898 0.190154
C18   C     C_R   0.259857 0.432185 0.567536 0.179867
C19   C     C_R   0.748512 0.562960 0.482816 0.190137
C20   C     C_R   0.812634 0.426872 0.440728 0.016934
C21   C     C_R   0.178992 0.558766 0.514444 0.022266
C22   C     C_R   0.187437 0.426945 0.560013 0.016922
C23   C     C_R   0.458229 0.722943 0.396501 0.192678
C24   C     C_R   0.820987 0.558775 0.485322 0.022229
C25   C     C_R   0.852686 0.490114 0.470580 -0.032002
C26   C     C_R   0.147341 0.490129 0.529722 -0.032008
C27   C     C_R   0.707763 0.498633 0.468698 0.005811
C28   C     C_R   0.292250 0.498666 0.531382 0.005837
C29   C     C_R   0.963252 0.483956 0.626616 -0.125858
C30   C     C_R   0.036776 0.483754 0.373744 -0.125832
C31   C     C_R   0.034939 0.485276 0.641413 -0.123504
C32   C     C_R   0.965090 0.485088 0.358940 -0.123510
C33   C     C_R   0.071801 0.484880 0.514969 0.029124
C34   C     C_R   0.533261 0.275860 0.617150 0.185158
C35   C     C_R   0.928228 0.484895 0.485384 0.029166
C36   C     C_3   0.846790 0.352851 0.423088 -0.232238
C37   C     C_3   0.853589 0.333914 0.260576 -0.403690
C38   C     C_3   0.135583 0.628053 0.496014 -0.230848
C39   C     C_3   0.128086 0.653534 0.334908 -0.413818
C40   C     C_3   0.153331 0.352968 0.578390 -0.232271
C41   C     C_3   0.146663 0.334380 0.741110 -0.403775
C42   C     C_3   0.864353 0.628097 0.503286 -0.230830
C43   C     C_3   0.871872 0.653807 0.664237 -0.413778
C44   C     C_3   0.410730 0.688512 0.275508 -0.217413
C45   C     C_R   0.541785 0.722928 0.603479 0.192723
C46   C     C_3   0.439008 0.697736 0.124687 -0.463964
C47   C     C_3   0.565001 0.306287 0.764863 -0.216625
C48   C     C_3   0.633177 0.346940 0.757312 -0.375847
C49   C     C_3   0.589308 0.688483 0.724434 -0.217479
C50   C     C_3   0.561079 0.697744 0.875296 -0.464015
C51   C     C_3   0.434892 0.306328 0.235241 -0.216629
C52   C     C_3   0.366712 0.346957 0.243049 -0.375792
C53   C     C_R   0.466743 0.275874 0.382841 0.184996
C54   C     C_R   0.458088 0.799965 0.397174 -0.111515
C55   C     C_R   0.535342 0.198665 0.612076 -0.122172
C56   C     C_R   0.541939 0.799950 0.602789 -0.111507
Cl1   Cl    Cl    0.691349 0.355572 0.364574 -0.659514
Cl2   Cl    Cl    0.289470 0.650736 0.512787 -0.676475
Cl3   Cl    Cl    0.308796 0.355755 0.636288 -0.659543
Cl4   Cl    Cl    0.710451 0.650733 0.486403 -0.676215
Cu1   Cu    Cu3+1 0.500000 0.573360 0.500000 0.985201
Cu2   Cu    Cu3+1 0.500000 0.426640 0.500000 1.007224
H1    H     H_    0.934994 0.484156 0.724769 0.103388
H2    H     H_    0.391205 0.066434 0.433219 0.111415
H3    H     H_    0.390864 0.933426 0.434792 0.111151
H4    H     H_    0.608866 0.066392 0.566672 0.111448
H5    H     H_    0.802584 0.333119 0.196552 0.207303
H6    H     H_    0.886941 0.373834 0.209041 0.134967
H7    H     H_    0.877250 0.279122 0.253263 0.130400
H8    H     H_    0.898631 0.350459 0.483584 0.135137
H9    H     H_    0.816975 0.309518 0.474852 0.183034
H10   H     H_    0.179074 0.665481 0.294049 0.200584
H11   H     H_    0.102006 0.611252 0.263087 0.137562
H12   H     H_    0.065033 0.483803 0.275590 0.103388
H13   H     H_    0.096515 0.703965 0.326074 0.133394
H14   H     H_    0.083231 0.620737 0.533610 0.136652
H15   H     H_    0.158546 0.672176 0.567857 0.195233
H16   H     H_    0.197715 0.333694 0.804953 0.207267
H17   H     H_    0.113358 0.374434 0.792422 0.134930
H18   H     H_    0.123011 0.279619 0.748980 0.130405
H19   H     H_    0.101451 0.350462 0.518094 0.135163
H20   H     H_    0.183124 0.309523 0.526899 0.183120
H21   H     H_    0.820888 0.665782 0.705103 0.200504
H22   H     H_    0.898009 0.611638 0.736280 0.137580
H23   H     H_    0.061628 0.488211 0.750818 0.105666
H24   H     H_    0.903400 0.704264 0.672745 0.133401
H25   H     H_    0.916695 0.620732 0.465659 0.136611
H26   H     H_    0.841350 0.672114 0.431195 0.195223
H27   H     H_    0.492720 0.677332 0.129362 0.184273
H28   H     H_    0.406947 0.666283 0.040010 0.153273
H29   H     H_    0.438393 0.755935 0.091111 0.141846
H30   H     H_    0.400534 0.630762 0.292432 0.220695
H31   H     H_    0.359403 0.715285 0.272097 0.160683
H32   H     H_    0.660215 0.328975 0.660617 0.203912
H33   H     H_    0.625217 0.406565 0.755903 0.169446
H34   H     H_    0.938399 0.487868 0.249518 0.105668
H35   H     H_    0.667709 0.335426 0.858427 0.122093
H36   H     H_    0.527130 0.334811 0.828002 0.173821
H37   H     H_    0.577848 0.260790 0.843484 0.095669
H38   H     H_    0.507375 0.677338 0.870711 0.184192
H39   H     H_    0.593172 0.666307 0.959962 0.153323
H40   H     H_    0.561690 0.755950 0.908821 0.141883
H41   H     H_    0.599477 0.630724 0.707551 0.220568
H42   H     H_    0.640645 0.715218 0.727746 0.160544
H43   H     H_    0.339819 0.329085 0.340011 0.203974
H44   H     H_    0.374641 0.406589 0.244141 0.169298
H45   H     H_    0.425518 0.829006 0.314198 0.097060
H46   H     H_    0.332057 0.335336 0.142182 0.122023
H47   H     H_    0.472692 0.334879 0.171984 0.173750
H48   H     H_    0.422015 0.260850 0.156608 0.095713
H49   H     H_    0.562196 0.167898 0.701133 0.094815
H50   H     H_    0.574521 0.828982 0.685744 0.097053
H51   H     H_    0.437867 0.167919 0.298773 0.094815
H52   H     H_    0.609189 0.933381 0.565135 0.111154
N1    N     N_R   0.500000 0.683620 0.500000 -0.192366
N2    N     N_R   0.500000 0.316380 0.500000 -0.165057
O1    O     O_R   0.400190 0.561980 0.499980 -0.466270
O2    O     O_R   0.599810 0.438020 0.500020 -0.458501
O3    O     O_R   0.599810 0.561980 0.500020 -0.466304
O4    O     O_R   0.400190 0.438020 0.499980 -0.458626
O5    O     O_R   0.500000 0.561940 0.288400 -0.517714
O6    O     O_R   0.500000 0.438060 0.711600 -0.502360
O7    O     O_R   0.500000 0.561940 0.711600 -0.517775
O8    O     O_R   0.500000 0.438060 0.288400 -0.502408

loop_
_geom_bond_atom_site_label_1
_geom_bond_atom_site_label_2
_ccdc_geom_bond_type
C7    C10   A    
C21   C26   A    
C29   H1    S    
C8    H4    S    
C31   H23   S    
C48   H33   S    
C37   H7    S    
C5    H52   S    
Cu1   O3    S    
C43   H21   S    
C11   O8    A    
C49   H42   S    
Cu2   O8    S    
C47   H37   S    
C46   H27   S    
C38   H14   S    
C49   H41   S    
C48   H35   S    
C47   H36   S    
C48   H32   S    
C54   H45   S    
C36   C37   S    
C38   C39   S    
C13   O7    A    
C3    C54   A    
C20   C25   A    
C34   N2    A    
C37   H6    S    
C24   C42   S    
Cu1   O5    S    
C6    H2    S    
C44   H31   S    
C21   C38   S    
C45   C56   A    
C44   C46   S    
C8    C9    A    
Cu1   N1    S    
C1    C28   S    
C39   H10   S    
C31   C33   A    
C39   H13   S    
C19   C27   A    
Cu2   O4    S    
C44   H30   S    
C53   N2    A    
C17   Cl2   S    
C16   C27   A    
C52   H44   S    
C34   C55   A    
C51   H47   S    
C43   H22   S    
C17   C28   A    
C11   O5    A    
C6    C9    A    
C36   H8    S    
C12   C27   S    
Cu1   O1    S    
C51   C52   S    
C32   C35   A    
C40   H20   S    
C18   C28   A    
C24   C25   A    
C41   H16   S    
C46   H29   S    
C17   C21   A    
C23   C44   S    
C51   C53   S    
C1    O4    A    
C2    C4    A    
Cu2   N2    S    
C7    H3    S    
C12   O3    A    
C3    C56   A    
C45   N1    A    
C26   C33   S    
C47   C48   S    
C45   C49   S    
C16   C20   A    
C22   C40   S    
C11   C14   S    
C1    O1    A    
C25   C35   S    
C12   O2    A    
C40   C41   S    
C32   H34   S    
C52   H43   S    
C50   H40   S    
C51   H48   S    
C13   C15   S    
C4    C55   A    
C42   H25   S    
C42   H26   S    
C42   C43   S    
Cu2   O6    S    
C23   C54   A    
C30   C33   A    
C55   H49   S    
C18   C22   A    
C43   H24   S    
C40   H19   S    
C2    C53   A    
C41   H17   S    
C5    C8    A    
C36   H9    S    
C6    C7    A    
C46   H28   S    
C38   H15   S    
C19   Cl4   S    
C29   C35   A    
C50   H38   S    
Cu1   O7    S    
C19   C24   A    
C5    C10   A    
C29   C31   A    
C3    C10   S    
C30   C32   A    
C13   O6    A    
C30   H12   S    
C37   H5    S    
C2    H51   S    
C16   Cl1   S    
C39   H11   S    
Cu1   Cu2   S    
Cu2   O2    S    
C23   N1    A    
C20   C36   S    
C18   Cl3   S    
C52   H46   S    
C50   H39   S    
C49   C50   S    
C22   C26   A    
C14   C15   T    
C41   H18   S    
C34   C47   S    
C4    C9    S    
C56   H50   S    
