data_mof_unit_50842.cif
_audit_creation_date              2012-10-26T21:00:12-0400
_audit_creation_method            fapswitch 2.2
_symmetry_space_group_name_H-M    P1
_symmetry_Int_Tables_number       1
_space_group_crystal_system       triclinic
_cell_length_a                    19.338668
_cell_length_b                    8.687133
_cell_length_c                    7.444926
_cell_angle_alpha                 102.879965
_cell_angle_beta                  94.915267
_cell_angle_gamma                 92.354095
_cell_volume                      1212.44268138

loop_
_atom_site_label
_atom_site_type_symbol
_atom_type_description
_atom_site_fract_x
_atom_site_fract_y
_atom_site_fract_z
_atom_type_partial_charge
C1    C     C_R   0.497908 0.199689 0.453281 0.555320
C2    C     C_R   0.811216 0.492435 0.329352 -0.135367
C3    C     C_R   0.146573 0.506061 0.499757 -0.007270
C4    C     C_R   0.854620 0.517375 0.495439 -0.013792
C5    C     C_R   0.175704 0.424466 0.342685 -0.097906
C6    C     C_R   0.824961 0.538238 0.663637 -0.097533
C7    C     C_R   0.247911 0.420888 0.340248 0.265374
C8    C     C_R   0.752916 0.536447 0.668153 0.266132
C9    C     C_R   0.291548 0.495954 0.500460 0.025083
C10   C     C_R   0.709129 0.507799 0.499995 0.011751
C11   C     C_R   0.930644 0.518457 0.495012 0.347901
C12   C     C_R   0.502104 0.800309 0.546720 0.541188
C13   C     C_R   0.070669 0.511911 0.497992 0.349696
C14   C     C_3   0.265054 0.403685 0.037268 -0.095528
C15   C     C_3   0.732108 0.711184 0.931298 -0.115276
C16   C     C_2   0.496905 0.031879 0.426892 -0.149201
C17   C     C_2   0.503125 0.968117 0.573111 -0.152782
C18   C     C_R   0.367493 0.497496 0.500647 0.569278
C19   C     C_R   0.632718 0.501836 0.499383 0.553467
C20   C     C_R   0.262221 0.575179 0.658412 -0.200957
C21   C     C_R   0.739183 0.487409 0.331672 -0.186688
C22   C     C_R   0.190362 0.580492 0.658115 -0.146415
Cu1   Cu    Cu3+1 0.507710 0.517380 0.684380 0.975621
Cu2   Cu    Cu3+1 0.492290 0.482620 0.315620 0.978307
H1    H     H_    0.294999 0.635525 0.781296 0.132342
H2    H     H_    0.555085 0.620675 0.051607 0.238451
H3    H     H_    0.296082 0.344655 0.925947 0.146641
H4    H     H_    0.282978 0.531336 0.075286 0.121144
H5    H     H_    0.209614 0.388915 0.979753 0.121417
H6    H     H_    0.705164 0.723855 0.059015 0.133271
H7    H     H_    0.706866 0.787894 0.846595 0.123409
H8    H     H_    0.787528 0.752343 0.973949 0.118392
H9    H     H_    0.707010 0.466653 0.201164 0.174194
H10   H     H_    0.169216 0.643955 0.781545 0.150290
H11   H     H_    0.832820 0.476286 0.197391 0.163169
H12   H     H_    0.142500 0.361266 0.222097 0.145700
H13   H     H_    0.857513 0.554063 0.793057 0.147143
H14   H     H_    0.491042 0.960434 0.285895 0.134726
H15   H     H_    0.508991 0.039560 0.714108 0.136773
H16   H     H_    0.444928 0.379311 0.948380 0.240001
N1    N     N_R   0.028994 0.464695 0.336899 -0.222896
N2    N     N_R   0.972366 0.566510 0.655840 -0.223985
N3    N     N_R   0.960271 0.468002 0.335326 -0.219581
N4    N     N_R   0.041052 0.563616 0.657347 -0.219949
N5    N     N_2   0.480680 0.456420 0.038530 -0.256378
N6    N     N_2   0.519320 0.543580 0.961470 -0.253259
O1    O     O_R   0.505010 0.286130 0.619770 -0.505328
O2    O     O_3   0.725716 0.550654 0.836639 -0.558528
O3    O     O_R   0.494990 0.713870 0.380230 -0.512164
O4    O     O_R   0.491990 0.256780 0.308370 -0.489880
O5    O     O_R   0.508010 0.743220 0.691630 -0.504237
O6    O     O_R   0.406650 0.514660 0.655750 -0.525579
O7    O     O_R   0.593350 0.485340 0.344250 -0.522653
O8    O     O_R   0.393640 0.485310 0.344340 -0.457537
O9    O     O_R   0.606360 0.514690 0.655660 -0.443036
O10   O     O_3   0.275828 0.331423 0.188509 -0.552474

loop_
_geom_bond_atom_site_label_1
_geom_bond_atom_site_label_2
_ccdc_geom_bond_type
C2    H11   S    
C12   C17   S    
C14   O10   S    
Cu1   Cu2   S    
C8    O2    S    
C11   N3    A    
C14   H3    S    
Cu1   N6    S    
C1    O4    A    
C9    C20   A    
C2    C4    A    
C3    C13   S    
C10   C19   S    
C19   O7    A    
C2    C21   A    
C13   N1    A    
C12   O3    A    
C6    H13   S    
C18   O6    A    
C15   H8    S    
C1    C16   S    
N5    N6    D    
C4    C11   S    
Cu1   O9    S    
N1    N3    A    
Cu1   O6    S    
N2    N4    A    
C7    O10   S    
C15   H6    S    
Cu2   N5    S    
C15   O2    S    
C4    C6    A    
C20   C22   A    
C5    C7    A    
C10   C21   A    
Cu2   O4    S    
H16   N5    S    
C22   H10   S    
Cu1   O1    S    
C20   H1    S    
H2    N6    S    
C14   H5    S    
Cu2   O8    S    
C5    H12   S    
C9    C18   S    
C12   O5    A    
C21   H9    S    
C11   N2    A    
C8    C10   A    
C17   H15   S    
C19   O9    A    
Cu2   O3    S    
C7    C9    A    
C18   O8    A    
C1    O1    A    
C3    C22   A    
C6    C8    A    
C14   H4    S    
Cu2   O7    S    
Cu1   O5    S    
C15   H7    S    
C13   N4    A    
C16   H14   S    
C16   C17   D    
C3    C5    A    
