data_mof_unit_63770.cif
_audit_creation_date              2012-12-10T20:32:35-0500
_audit_creation_method            fapswitch 2.2
_symmetry_space_group_name_H-M    P1
_symmetry_Int_Tables_number       1
_space_group_crystal_system       triclinic
_cell_length_a                    28.064114
_cell_length_b                    28.053693
_cell_length_c                    34.487336
_cell_angle_alpha                 89.998995
_cell_angle_beta                  89.999584
_cell_angle_gamma                 90.004158
_cell_volume                      27151.9498579

loop_
_atom_site_label
_atom_site_type_symbol
_atom_type_description
_atom_site_fract_x
_atom_site_fract_y
_atom_site_fract_z
_atom_type_partial_charge
C1    C     C_R   0.802128 0.698278 0.749521 0.057804
C2    C     C_R   0.198413 0.301598 0.250009 0.058467
C3    C     C_R   0.698691 0.198597 0.749852 0.059056
C4    C     C_R   0.300990 0.801264 0.250363 0.057008
C5    C     C_R   0.198156 0.302037 0.749774 0.057681
C6    C     C_R   0.801536 0.698387 0.249971 0.058406
C7    C     C_R   0.301374 0.801350 0.749907 0.059314
C8    C     C_R   0.699126 0.198630 0.250468 0.057240
C9    C     C_R   0.801324 0.300951 0.250514 0.059879
C10   C     C_R   0.198591 0.698599 0.749991 0.061420
C11   C     C_R   0.698695 0.801210 0.249979 0.059928
C12   C     C_R   0.300099 0.199657 0.749444 0.058025
C13   C     C_R   0.198778 0.698954 0.250348 0.059864
C14   C     C_R   0.801470 0.301346 0.749927 0.061374
C15   C     C_R   0.301238 0.198783 0.250025 0.060361
C16   C     C_R   0.700182 0.800640 0.749162 0.057905
C17   C     C_R   0.815098 0.676595 0.784384 -0.157253
C18   C     C_R   0.160247 0.298672 0.276087 -0.155680
C19   C     C_R   0.710651 0.151368 0.741339 -0.159674
C20   C     C_R   0.315131 0.821879 0.215503 -0.160308
C21   C     C_R   0.185646 0.324311 0.784517 -0.156778
C22   C     C_R   0.839720 0.701345 0.276018 -0.155719
C23   C     C_R   0.289398 0.848568 0.741174 -0.159626
C24   C     C_R   0.685264 0.177785 0.215602 -0.160804
C25   C     C_R   0.848927 0.288311 0.244871 -0.166883
C26   C     C_R   0.151389 0.710613 0.741529 -0.157500
C27   C     C_R   0.710959 0.848708 0.257049 -0.158222
C28   C     C_R   0.294217 0.159051 0.772065 -0.172395
C29   C     C_R   0.151190 0.711644 0.244749 -0.166802
C30   C     C_R   0.848681 0.289360 0.741480 -0.157345
C31   C     C_R   0.288782 0.151081 0.256053 -0.158910
C32   C     C_R   0.705809 0.841004 0.772046 -0.172656
C33   C     C_R   0.348920 0.211255 0.243996 -0.157624
C34   C     C_R   0.660082 0.795379 0.725942 -0.170420
C35   C     C_R   0.211478 0.651319 0.255786 -0.166183
C36   C     C_R   0.789450 0.348557 0.758405 -0.156737
C37   C     C_R   0.651207 0.788963 0.242912 -0.156642
C38   C     C_R   0.340286 0.204989 0.726309 -0.170450
C39   C     C_R   0.788576 0.348567 0.255918 -0.166180
C40   C     C_R   0.210582 0.651379 0.758473 -0.156596
C41   C     C_R   0.348591 0.789309 0.758512 -0.162104
C42   C     C_R   0.678090 0.184536 0.285193 -0.161658
C43   C     C_R   0.175680 0.314594 0.715118 -0.156909
C44   C     C_R   0.798633 0.660181 0.223931 -0.155704
C45   C     C_R   0.651479 0.210668 0.758267 -0.162212
C46   C     C_R   0.321698 0.815640 0.285124 -0.161417
C47   C     C_R   0.824040 0.685037 0.714824 -0.157508
C48   C     C_R   0.201317 0.339779 0.223924 -0.155738
C49   C     C_R   0.850139 0.641357 0.784827 0.135952
C50   C     C_R   0.125018 0.333927 0.276366 0.117293
C51   C     C_R   0.675589 0.115955 0.741247 0.131283
C52   C     C_R   0.350258 0.857061 0.214992 0.141307
C53   C     C_R   0.150477 0.359428 0.784876 0.135652
C54   C     C_R   0.874963 0.666100 0.276313 0.117335
C55   C     C_R   0.324444 0.883995 0.741058 0.131319
C56   C     C_R   0.650061 0.142678 0.215047 0.141477
C57   C     C_R   0.884383 0.323164 0.244768 0.146382
C58   C     C_R   0.115938 0.675593 0.741492 0.125286
C59   C     C_R   0.675954 0.884191 0.257097 0.130510
C60   C     C_R   0.328650 0.123205 0.772177 0.160971
C61   C     C_R   0.115700 0.676822 0.244721 0.146327
C62   C     C_R   0.884113 0.324399 0.741460 0.124968
C63   C     C_R   0.323794 0.115607 0.256095 0.131435
C64   C     C_R   0.671232 0.876707 0.772311 0.161528
C65   C     C_R   0.384390 0.176240 0.243946 0.132446
C66   C     C_R   0.624648 0.830238 0.725484 0.153370
C67   C     C_R   0.176713 0.615774 0.255534 0.146727
C68   C     C_R   0.824453 0.384023 0.758484 0.125745
C69   C     C_R   0.615753 0.823998 0.242876 0.131353
C70   C     C_R   0.375579 0.169989 0.725712 0.153785
C71   C     C_R   0.823303 0.384146 0.255584 0.146768
C72   C     C_R   0.175559 0.615930 0.758535 0.125332
C73   C     C_R   0.384048 0.824326 0.758548 0.129135
C74   C     C_R   0.642911 0.149395 0.285436 0.142701
C75   C     C_R   0.140434 0.349633 0.714926 0.135934
C76   C     C_R   0.833909 0.624969 0.223648 0.117241
C77   C     C_R   0.616002 0.175672 0.758327 0.129262
C78   C     C_R   0.356851 0.850809 0.285392 0.142306
C79   C     C_R   0.859199 0.649914 0.714709 0.136490
C80   C     C_R   0.166054 0.375000 0.223630 0.117184
C81   C     C_R   0.872482 0.627744 0.749850 -0.098301
C82   C     C_R   0.127711 0.372279 0.249992 -0.094582
C83   C     C_R   0.627889 0.127885 0.749890 -0.111524
C84   C     C_R   0.371762 0.871990 0.250119 -0.109280
C85   C     C_R   0.127588 0.372349 0.749941 -0.097221
C86   C     C_R   0.872270 0.627721 0.249982 -0.094591
C87   C     C_R   0.372138 0.872100 0.749905 -0.111634
C88   C     C_R   0.628265 0.127990 0.250156 -0.110046
C89   C     C_R   0.871944 0.371817 0.250083 -0.127774
C90   C     C_R   0.127847 0.627860 0.750013 -0.098456
C91   C     C_R   0.627919 0.872042 0.249996 -0.101675
C92   C     C_R   0.370782 0.128227 0.749225 -0.147356
C93   C     C_R   0.128090 0.628153 0.250065 -0.127778
C94   C     C_R   0.872175 0.372121 0.749987 -0.098344
C95   C     C_R   0.372046 0.127967 0.250016 -0.103582
C96   C     C_R   0.629240 0.871805 0.749209 -0.147232
C97   C     C_1   0.766203 0.734295 0.749362 0.002463
C98   C     C_1   0.234646 0.265373 0.250017 -0.000008
C99   C     C_1   0.734926 0.234782 0.749871 0.002790
C100  C     C_1   0.264989 0.765231 0.250442 0.002645
C101  C     C_1   0.234132 0.266064 0.749685 0.002478
C102  C     C_1   0.765287 0.734606 0.249969 0.000089
C103  C     C_1   0.265155 0.765148 0.749939 0.002815
C104  C     C_1   0.735140 0.234648 0.250588 0.002622
C105  C     C_1   0.765350 0.264894 0.250599 0.004736
C106  C     C_1   0.234804 0.734806 0.749964 0.001955
C107  C     C_1   0.734922 0.764964 0.249971 0.002745
C108  C     C_1   0.264275 0.235802 0.749587 0.005382
C109  C     C_1   0.234772 0.734992 0.250430 0.004805
C110  C     C_1   0.765275 0.265125 0.749894 0.001982
C111  C     C_1   0.265006 0.235015 0.250022 0.002841
C112  C     C_1   0.736059 0.764553 0.749253 0.005326
C113  C     C_R   0.053543 0.569556 0.979328 0.162518
C114  C     C_R   0.944477 0.432359 0.019857 0.146015
C115  C     C_R   0.539051 0.921863 0.979664 0.141889
C116  C     C_R   0.453386 0.074537 0.020389 0.171165
C117  C     C_R   0.946848 0.430186 0.979279 0.161763
C118  C     C_R   0.055833 0.567368 0.019902 0.145991
C119  C     C_R   0.458080 0.077082 0.979983 0.140771
C120  C     C_R   0.543770 0.923785 0.020138 0.169830
C121  C     C_R   0.567959 0.944879 0.479758 0.167489
C122  C     C_R   0.429837 0.052050 0.520542 0.159528
C123  C     C_R   0.931304 0.445861 0.480136 0.146087
C124  C     C_R   0.071259 0.550812 0.520810 0.157970
C125  C     C_R   0.432218 0.055263 0.479754 0.167299
C126  C     C_R   0.570316 0.948087 0.520553 0.159491
C127  C     C_R   0.069112 0.553412 0.480253 0.146385
C128  C     C_R   0.929153 0.448271 0.520708 0.161219
C129  C     C_R   0.969182 0.469521 0.917803 0.442049
C130  C     C_R   0.020057 0.538436 0.080882 0.423800
C131  C     C_R   0.472515 0.033910 0.918516 0.411952
C132  C     C_R   0.518638 0.960641 0.082226 0.431709
C133  C     C_R   0.031026 0.530460 0.917775 0.439180
C134  C     C_R   0.980063 0.461438 0.080883 0.423921
C135  C     C_R   0.526620 0.965957 0.918536 0.411639
C136  C     C_R   0.480697 0.038725 0.082117 0.433733
C137  C     C_R   0.462497 0.021562 0.418118 0.435617
C138  C     C_R   0.541223 0.984623 0.581469 0.428801
C139  C     C_R   0.038990 0.518983 0.419148 0.423680
C140  C     C_R   0.968898 0.469649 0.582211 0.440004
C141  C     C_R   0.537596 0.978507 0.418108 0.434858
C142  C     C_R   0.458855 0.015440 0.581449 0.428799
C143  C     C_R   0.961151 0.480818 0.419151 0.423755
C144  C     C_R   0.031130 0.530013 0.582197 0.441020
C145  C     C_R   0.000087 0.499986 0.897891 -0.274103
C146  C     C_R   0.000025 0.499967 0.101286 -0.283227
C147  C     C_R   0.499856 0.000079 0.898374 -0.269558
C148  C     C_R   0.499907 0.999863 0.102057 -0.256315
C149  C     C_R   0.500031 0.000018 0.398164 -0.260357
C150  C     C_R   0.500024 0.000010 0.601902 -0.240750
C151  C     C_R   0.000053 0.499948 0.398729 -0.283024
C152  C     C_R   0.000008 0.499888 0.602110 -0.273768
C153  C     C_R   0.028014 0.534164 0.958494 -0.085198
C154  C     C_R   0.974090 0.464591 0.040318 -0.089817
C155  C     C_R   0.521410 0.961837 0.959208 -0.085686
C156  C     C_R   0.476829 0.037588 0.041312 -0.077448
C157  C     C_R   0.972302 0.465675 0.958495 -0.085921
C158  C     C_R   0.026122 0.535218 0.040334 -0.089885
C159  C     C_R   0.476875 0.037615 0.959294 -0.084523
C160  C     C_R   0.521474 0.961243 0.041277 -0.077731
C161  C     C_R   0.535716 0.974253 0.458986 -0.085433
C162  C     C_R   0.462464 0.022566 0.540974 -0.037529
C163  C     C_R   0.964211 0.474668 0.459688 -0.089946
C164  C     C_R   0.034997 0.526599 0.541530 -0.086863
C165  C     C_R   0.464434 0.025862 0.458990 -0.085583
C166  C     C_R   0.537660 0.977539 0.540983 -0.037542
C167  C     C_R   0.036059 0.524869 0.459723 -0.089250
C168  C     C_R   0.965208 0.472786 0.541511 -0.086014
C169  C     C_R   0.499984 0.000084 0.855851 0.952782
C170  C     C_R   0.500000 0.000085 0.144318 0.912901
C171  C     C_R   0.999990 0.500002 0.855671 0.906687
C172  C     C_R   0.000002 0.499995 0.144017 0.919739
C173  C     C_R   0.000007 0.500004 0.355984 0.917435
C174  C     C_R   0.999997 0.500011 0.644329 0.910670
C175  C     C_R   0.500001 0.000002 0.355765 0.934459
C176  C     C_R   0.500003 0.000002 0.644211 0.838510
C177  C     C_R   0.409122 0.909118 0.749979 0.856467
C178  C     C_R   0.590992 0.090962 0.250016 0.848635
C179  C     C_R   0.909212 0.590809 0.749990 0.860083
C180  C     C_R   0.090818 0.409178 0.249997 0.866935
C181  C     C_R   0.590882 0.090882 0.749978 0.856061
C182  C     C_R   0.409013 0.909035 0.250008 0.848519
C183  C     C_R   0.090789 0.409201 0.749997 0.860056
C184  C     C_R   0.909179 0.590825 0.249997 0.866864
C185  C     C_R   0.409093 0.090912 0.250004 0.856361
C186  C     C_R   0.591371 0.908986 0.749762 0.843597
C187  C     C_R   0.909030 0.409019 0.250001 0.863206
C188  C     C_R   0.090869 0.590873 0.750004 0.851329
C189  C     C_R   0.590897 0.909094 0.250001 0.856961
C190  C     C_R   0.408616 0.091003 0.749746 0.843554
C191  C     C_R   0.090972 0.590980 0.250004 0.863303
C192  C     C_R   0.909134 0.409125 0.750001 0.851134
C193  C     C_R   0.000155 0.499900 0.978941 -0.076046
C194  C     C_R   0.000123 0.499901 0.019808 -0.065704
C195  C     C_R   0.499145 0.999648 0.979836 -0.063559
C196  C     C_R   0.499143 0.999483 0.020828 -0.081298
C197  C     C_R   0.500077 0.000062 0.479508 -0.074961
C198  C     C_R   0.500069 0.000058 0.520484 -0.073036
C199  C     C_R   0.000140 0.499733 0.480212 -0.065853
C200  C     C_R   0.000117 0.499700 0.521067 -0.074782
H1    H     H_    0.797768 0.686854 0.811214 0.174684
H2    H     H_    0.157904 0.269091 0.296280 0.173565
H3    H     H_    0.747188 0.142065 0.734502 0.173088
H4    H     H_    0.298982 0.810378 0.188559 0.175934
H5    H     H_    0.203407 0.314591 0.811311 0.174796
H6    H     H_    0.842066 0.730945 0.296174 0.173525
H7    H     H_    0.252864 0.857844 0.734178 0.173044
H8    H     H_    0.701664 0.189074 0.188681 0.175813
H9    H     H_    0.858586 0.251157 0.240848 0.173756
H10   H     H_    0.142130 0.747172 0.734748 0.172225
H11   H     H_    0.747728 0.858190 0.262744 0.172758
H12   H     H_    0.262372 0.155087 0.789626 0.174838
H13   H     H_    0.141565 0.748813 0.240713 0.173758
H14   H     H_    0.857961 0.252810 0.734697 0.172286
H15   H     H_    0.251850 0.141428 0.260956 0.172728
H16   H     H_    0.737537 0.844863 0.789728 0.174743
H17   H     H_    0.358560 0.248202 0.239095 0.173070
H18   H     H_    0.656364 0.763869 0.707957 0.175871
H19   H     H_    0.248614 0.641700 0.259900 0.174105
H20   H     H_    0.752898 0.357811 0.765162 0.172533
H21   H     H_    0.641714 0.752188 0.237203 0.173162
H22   H     H_    0.344158 0.236642 0.708479 0.175875
H23   H     H_    0.751427 0.358148 0.260056 0.174063
H24   H     H_    0.247125 0.642102 0.765247 0.172571
H25   H     H_    0.357864 0.752726 0.765385 0.172634
H26   H     H_    0.689309 0.200669 0.312242 0.175980
H27   H     H_    0.185334 0.296959 0.688261 0.174912
H28   H     H_    0.769048 0.657788 0.203772 0.173661
H29   H     H_    0.642222 0.247262 0.764983 0.172672
H30   H     H_    0.310247 0.799705 0.312174 0.176012
H31   H     H_    0.814024 0.702218 0.687871 0.174792
H32   H     H_    0.230892 0.342143 0.203740 0.173690
O1    O     O_3   0.500000 0.000000 0.750000 -0.514887
O2    O     O_3   0.500000 0.000000 0.250000 -0.529196
O3    O     O_3   1.000000 0.500000 0.750000 -0.532847
O4    O     O_3   1.000000 0.500000 0.250000 -0.522922
O5    O     O_R   0.539300 1.000000 0.837360 -0.624886
O6    O     O_R   0.460700 1.000000 0.162640 -0.614586
O7    O     O_R   1.000000 0.460700 0.837360 -0.599589
O8    O     O_R   1.000000 0.539300 0.162640 -0.608343
O9    O     O_R   0.460700 1.000000 0.837360 -0.627399
O10   O     O_R   0.539300 1.000000 0.162640 -0.613580
O11   O     O_R   1.000000 0.539300 0.837360 -0.599492
O12   O     O_R   1.000000 0.460700 0.162640 -0.608365
O13   O     O_R   0.039300 0.500000 0.337360 -0.607656
O14   O     O_R   0.960700 0.500000 0.662640 -0.598295
O15   O     O_R   0.500000 0.960700 0.337360 -0.609284
O16   O     O_R   0.500000 0.039300 0.662640 -0.645355
O17   O     O_R   0.960700 0.500000 0.337360 -0.607254
O18   O     O_R   0.039300 0.500000 0.662640 -0.598319
O19   O     O_R   0.500000 0.039300 0.337360 -0.609446
O20   O     O_R   0.500000 0.960700 0.662640 -0.645306
O21   O     O_R   0.405600 0.944810 0.772850 -0.616960
O22   O     O_R   0.594400 0.055190 0.227150 -0.610317
O23   O     O_R   0.944810 0.594400 0.772850 -0.610595
O24   O     O_R   0.055190 0.405600 0.227150 -0.619660
O25   O     O_R   0.594400 0.055190 0.772850 -0.616855
O26   O     O_R   0.405600 0.944810 0.227150 -0.610246
O27   O     O_R   0.055190 0.405600 0.772850 -0.610807
O28   O     O_R   0.944810 0.594400 0.227150 -0.619680
O29   O     O_R   0.405600 0.055190 0.227150 -0.606791
O30   O     O_R   0.594400 0.944810 0.772850 -0.602280
O31   O     O_R   0.944810 0.405600 0.227150 -0.609043
O32   O     O_R   0.055190 0.594400 0.772850 -0.607179
O33   O     O_R   0.594400 0.944810 0.227150 -0.607036
O34   O     O_R   0.405600 0.055190 0.772850 -0.602818
O35   O     O_R   0.055190 0.594400 0.227150 -0.609028
O36   O     O_R   0.944810 0.405600 0.772850 -0.607023
O37   O     O_R   0.905600 0.444810 0.272850 -0.608868
O38   O     O_R   0.094400 0.555190 0.727150 -0.606809
O39   O     O_R   0.444810 0.094400 0.272850 -0.606780
O40   O     O_R   0.555190 0.905600 0.727150 -0.620252
O41   O     O_R   0.094400 0.555190 0.272850 -0.608948
O42   O     O_R   0.905600 0.444810 0.727150 -0.607215
O43   O     O_R   0.555190 0.905600 0.272850 -0.606897
O44   O     O_R   0.444810 0.094400 0.727150 -0.620181
O45   O     O_R   0.905600 0.555190 0.727150 -0.610125
O46   O     O_R   0.094400 0.444810 0.272850 -0.619693
O47   O     O_R   0.444810 0.905600 0.727150 -0.605609
O48   O     O_R   0.555190 0.094400 0.272850 -0.609338
O49   O     O_R   0.094400 0.444810 0.727150 -0.610506
O50   O     O_R   0.905600 0.555190 0.272850 -0.619574
O51   O     O_R   0.555190 0.094400 0.727150 -0.605551
O52   O     O_R   0.444810 0.905600 0.272850 -0.609526
Zn1   Zn    Zn3+2 0.500000 0.943960 0.717190 1.017573
Zn2   Zn    Zn3+2 0.500000 0.056040 0.282810 1.054113
Zn3   Zn    Zn3+2 0.943960 0.500000 0.717190 1.054639
Zn4   Zn    Zn3+2 0.056040 0.500000 0.282810 1.045454
Zn5   Zn    Zn3+2 0.500000 0.056040 0.717190 1.017438
Zn6   Zn    Zn3+2 0.500000 0.943960 0.282810 1.053790
Zn7   Zn    Zn3+2 0.056040 0.500000 0.717190 1.054597
Zn8   Zn    Zn3+2 0.943960 0.500000 0.282810 1.045795
Zn9   Zn    Zn3+2 1.000000 0.443960 0.217190 1.045388
Zn10  Zn    Zn3+2 1.000000 0.556040 0.782810 1.053378
Zn11  Zn    Zn3+2 0.443960 1.000000 0.217190 1.046796
Zn12  Zn    Zn3+2 0.556040 1.000000 0.782810 1.039606
Zn13  Zn    Zn3+2 1.000000 0.556040 0.217190 1.045346
Zn14  Zn    Zn3+2 1.000000 0.443960 0.782810 1.052991
Zn15  Zn    Zn3+2 0.556040 1.000000 0.217190 1.046889
Zn16  Zn    Zn3+2 0.443960 1.000000 0.782810 1.038193
I1    I     I_    0.865279 0.608585 0.839032 -0.318188
I2    I     I_    0.068746 0.327650 0.317312 -0.298142
I3    I     I_    0.696630 0.045839 0.725455 -0.286681
I4    I     I_    0.369473 0.883112 0.159322 -0.323270
I5    I     I_    0.135901 0.393077 0.838830 -0.319840
I6    I     I_    0.931257 0.672445 0.317220 -0.298223
I7    I     I_    0.303440 0.954062 0.724890 -0.286479
I8    I     I_    0.631089 0.116433 0.159296 -0.322889
I9    I     I_    0.955568 0.297678 0.238759 -0.248021
I10   I     I_    0.045664 0.696784 0.726333 -0.296265
I11   I     I_    0.697825 0.954913 0.270197 -0.289310
I12   I     I_    0.309853 0.063537 0.807628 -0.279081
I13   I     I_    0.044530 0.702387 0.238806 -0.248105
I14   I     I_    0.954401 0.303258 0.726304 -0.296768
I15   I     I_    0.301475 0.044567 0.267728 -0.286108
I16   I     I_    0.689489 0.935869 0.808364 -0.277974
I17   I     I_    0.455398 0.198584 0.232318 -0.281847
I18   I     I_    0.567342 0.814011 0.686825 -0.231238
I19   I     I_    0.202283 0.544578 0.261211 -0.244890
I20   I     I_    0.803253 0.454310 0.773660 -0.293974
I21   I     I_    0.545050 0.802174 0.229735 -0.286120
I22   I     I_    0.432920 0.186238 0.687110 -0.230766
I23   I     I_    0.797646 0.455332 0.261160 -0.244659
I24   I     I_    0.196705 0.545629 0.773736 -0.294286
I25   I     I_    0.454335 0.802978 0.773718 -0.251992
I26   I     I_    0.616717 0.129559 0.340991 -0.308703
I27   I     I_    0.106487 0.364290 0.661090 -0.316438
I28   I     I_    0.827628 0.568615 0.182773 -0.295883
I29   I     I_    0.545727 0.197113 0.773255 -0.252723
I30   I     I_    0.382613 0.871065 0.340942 -0.310456
I31   I     I_    0.892384 0.634394 0.660743 -0.314280
I32   I     I_    0.172322 0.431317 0.182701 -0.295768
O53   O     O_3   0.935127 0.444971 0.896910 -0.566740
C201  C     C_3   0.894052 0.473768 0.893941 -0.206958
H33   H     H_    0.901339 0.506702 0.876770 0.154318
H34   H     H_    0.879594 0.483189 0.923183 0.169228
H35   H     H_    0.866211 0.453252 0.878302 0.213905
O54   O     O_3   0.033921 0.578727 0.101087 -0.562151
C202  C     C_3   0.998011 0.613735 0.097119 -0.144718
H36   H     H_    0.962867 0.600539 0.107698 0.152104
H37   H     H_    0.994900 0.626093 0.066560 0.151282
H38   H     H_    0.007897 0.645060 0.115053 0.203796
O55   O     O_3   0.442841 0.063878 0.897554 -0.579834
C203  C     C_3   0.395213 0.047432 0.901247 -0.144070
H39   H     H_    0.382795 0.047174 0.931995 0.149359
H40   H     H_    0.390938 0.011096 0.888320 0.170369
H41   H     H_    0.371635 0.072414 0.885270 0.213033
O56   O     O_3   0.533529 0.921549 0.103421 -0.577708
C204  C     C_3   0.493834 0.892444 0.111961 -0.197153
H42   H     H_    0.467641 0.890347 0.087516 0.162199
H43   H     H_    0.475978 0.905360 0.138845 0.162695
H44   H     H_    0.506586 0.855573 0.117751 0.216086
O57   O     O_3   0.064801 0.555562 0.896806 -0.565833
C205  C     C_3   0.106022 0.527073 0.893176 -0.202461
H45   H     H_    0.098507 0.494754 0.875539 0.154005
H46   H     H_    0.120792 0.516816 0.922114 0.168464
H47   H     H_    0.133867 0.548184 0.877688 0.212931
O58   O     O_3   0.966258 0.421093 0.101064 -0.561852
C206  C     C_3   0.002310 0.386166 0.097129 -0.144312
H48   H     H_    0.037451 0.399491 0.107713 0.151948
H49   H     H_    0.005498 0.373760 0.066574 0.151211
H50   H     H_    0.992490 0.354823 0.115088 0.203745
O59   O     O_3   0.556613 0.936160 0.897707 -0.579500
C207  C     C_3   0.604137 0.952144 0.902475 -0.144545
H51   H     H_    0.615586 0.951080 0.933356 0.150351
H52   H     H_    0.608994 0.988819 0.890632 0.167640
H53   H     H_    0.628052 0.927773 0.886153 0.212710
O60   O     O_3   0.466760 0.078326 0.102950 -0.580159
C208  C     C_3   0.506544 0.107602 0.109920 -0.202283
H54   H     H_    0.532475 0.108226 0.085361 0.159944
H55   H     H_    0.524838 0.095961 0.136936 0.166556
H56   H     H_    0.493895 0.144739 0.114151 0.216863
O61   O     O_3   0.423668 0.037029 0.396945 -0.577974
C209  C     C_3   0.389381 0.000300 0.396355 -0.221475
H57   H     H_    0.375948 0.992362 0.426040 0.176657
H58   H     H_    0.403885 0.967436 0.382744 0.165256
H59   H     H_    0.358617 0.012178 0.378634 0.213504
O62   O     O_3   0.586905 0.989339 0.597164 -0.588682
C210  C     C_3   0.594673 0.961020 0.630486 -0.144090
H60   H     H_    0.572993 0.927765 0.630803 0.178699
H61   H     H_    0.589471 0.982476 0.657177 0.139534
H62   H     H_    0.632613 0.949941 0.630848 0.200229
O63   O     O_3   0.079466 0.532073 0.398921 -0.562090
C211  C     C_3   0.113559 0.495350 0.402637 -0.143693
H63   H     H_    0.099588 0.460719 0.391707 0.152298
H64   H     H_    0.125759 0.491497 0.433152 0.151673
H65   H     H_    0.145043 0.504778 0.384793 0.204717
O64   O     O_3   0.943296 0.436339 0.603150 -0.565138
C212  C     C_3   0.970802 0.394325 0.606081 -0.206508
H66   H     H_    0.004161 0.400701 0.622773 0.153495
H67   H     H_    0.979203 0.379281 0.576890 0.169478
H68   H     H_    0.949677 0.367257 0.622135 0.213067
O65   O     O_3   0.576366 0.962882 0.396891 -0.577547
C213  C     C_3   0.610659 0.999617 0.396047 -0.220739
H69   H     H_    0.624116 0.007805 0.425688 0.176536
H70   H     H_    0.596140 0.032384 0.382262 0.164744
H71   H     H_    0.641398 0.987559 0.378348 0.214053
O66   O     O_3   0.413156 0.010727 0.597104 -0.588730
C214  C     C_3   0.405360 0.039015 0.630436 -0.144001
H72   H     H_    0.427043 0.072264 0.630789 0.178606
H73   H     H_    0.410533 0.017534 0.657117 0.139665
H74   H     H_    0.367423 0.050098 0.630776 0.200327
O67   O     O_3   0.920515 0.467997 0.398984 -0.561708
C215  C     C_3   0.886552 0.504847 0.402959 -0.144107
H75   H     H_    0.900660 0.539544 0.392185 0.152004
H76   H     H_    0.874418 0.508506 0.433523 0.151438
H77   H     H_    0.854934 0.495676 0.385119 0.204470
O68   O     O_3   0.056313 0.563630 0.603129 -0.565991
C216  C     C_3   0.029591 0.606065 0.604182 -0.209909
H78   H     H_    0.994204 0.600448 0.617861 0.154339
H79   H     H_    0.025377 0.621289 0.574568 0.173093
H80   H     H_    0.049039 0.632622 0.622128 0.212238
I33   I     I_    0.081493 0.632852 0.952201 -0.175505
I34   I     I_    0.887702 0.393950 0.048276 -0.188280
I35   I     I_    0.548408 0.853812 0.951593 -0.190350
I36   I     I_    0.401889 0.122148 0.046635 -0.181325
I37   I     I_    0.919362 0.366705 0.951974 -0.175208
I38   I     I_    0.112688 0.605442 0.048390 -0.187901
I39   I     I_    0.445861 0.145685 0.952702 -0.191815
I40   I     I_    0.592984 0.873411 0.045830 -0.182865
I41   I     I_    0.607252 0.888739 0.450988 -0.155069
I42   I     I_    0.382095 0.099360 0.550620 -0.229420
I43   I     I_    0.891562 0.390122 0.451708 -0.187277
I44   I     I_    0.135715 0.575486 0.548285 -0.172318
I45   I     I_    0.393034 0.111450 0.450966 -0.155178
I46   I     I_    0.618068 0.900793 0.550649 -0.229454
I47   I     I_    0.109252 0.609028 0.452090 -0.189143
I48   I     I_    0.865023 0.422477 0.548003 -0.171308

loop_
_geom_bond_atom_site_label_1
_geom_bond_atom_site_label_2
_ccdc_geom_bond_type
C72   I24   S    
O27   Zn14  S    
C37   C69   A    
C130  C146  A    
O53   C201  S    
C18   C50   A    
C157  C193  A    
C181  O51   A    
C75   I27   S    
C182  O52   A    
O24   Zn9   S    
C181  O25   A    
C9    C39   A    
C10   C40   A    
C192  O36   A    
C52   C84   A    
O21   Zn16  S    
O22   Zn15  S    
C192  O42   A    
C141  O65   S    
C3    C19   A    
C129  O53   S    
C140  C152  A    
C129  C145  A    
C160  C196  A    
C208  H56   S    
C23   H7    S    
C175  O15   A    
C170  O6    A    
O52   Zn6   S    
C199  C200  A    
C144  O68   S    
C6    C44   A    
C144  C164  A    
C143  C163  A    
C104  C105  T    
C67   I19   S    
C43   C75   A    
C134  C146  A    
C5    C101  S    
O37   Zn8   S    
C180  O46   A    
O38   Zn7   S    
C12   C108  S    
C97   C112  T    
C99   C110  T    
C117  C157  A    
C78   I30   S    
C35   H19   S    
C149  C175  S    
C166  C198  A    
C176  O20   A    
C87   C177  S    
C123  C163  A    
C29   H13   S    
O8    Zn13  S    
C11   C27   A    
C62   I14   S    
C121  C161  A    
C19   H3    S    
C184  O28   A    
C139  C167  A    
C8    C104  S    
C32   C64   A    
O46   Zn4   S    
O49   Zn7   S    
C124  C127  A    
O50   Zn8   S    
C116  I36   S    
C212  H66   S    
C118  C158  A    
C133  C145  A    
O63   C211  S    
C51   C83   A    
C174  O14   A    
C80   I32   S    
C114  I34   S    
C188  O38   A    
C191  O35   A    
C211  H64   S    
C60   I12   S    
C139  O63   S    
C36   C68   A    
C23   C55   A    
C33   H17   S    
C24   C56   A    
O65   C213  S    
C162  C198  A    
C71   I23   S    
C84   C182  S    
C37   H21   S    
C51   I3    S    
C201  H35   S    
C142  C150  A    
O15   Zn6   S    
C57   I9    S    
O56   C204  S    
C133  O57   S    
C63   I15   S    
C6    C102  S    
C116  C156  A    
C213  H69   S    
C195  C196  A    
C4    C20   A    
C5    C21   A    
C119  C159  A    
C193  C194  A    
C119  I39   S    
C206  H48   S    
C120  C160  A    
C39   C71   A    
C53   C85   A    
C117  I37   S    
O62   C210  S    
C55   I7    S    
C114  C154  A    
C115  I35   S    
C73   I25   S    
C204  H42   S    
C125  C165  A    
C58   I10   S    
C34   C66   A    
C22   C54   A    
C186  O30   A    
C159  C195  A    
C91   C189  S    
O3    Zn7   S    
C128  I48   S    
C134  O58   S    
C14   C36   A    
C56   C88   A    
C31   H15   S    
O28   Zn13  S    
C9    C105  S    
C214  H72   S    
C95   C185  S    
C207  H51   S    
C83   C181  S    
C11   C37   A    
C44   C76   A    
C209  H57   S    
C13   C109  S    
O25   Zn12  S    
C16   C34   A    
O26   Zn11  S    
C73   C87   A    
C207  H52   S    
O64   C212  S    
C212  H68   S    
C131  C147  A    
C179  O23   A    
C69   I21   S    
C189  O43   A    
C163  C199  A    
C7    C103  S    
C189  O33   A    
C25   C57   A    
O23   Zn10  S    
O9    Zn16  S    
C42   H26   S    
O10   Zn15  S    
C182  O26   A    
C29   C61   A    
C68   I20   S    
C31   C63   A    
C215  H75   S    
C64   C96   A    
C80   C82   A    
C17   C49   A    
C54   C86   A    
C201  H33   S    
C210  H62   S    
C140  O64   S    
C173  O17   A    
O40   Zn1   S    
C78   C84   A    
C68   C94   A    
C209  H59   S    
C53   I5    S    
C143  O67   S    
C122  I42   S    
C72   C90   A    
C175  O19   A    
C16   C112  S    
C35   C67   A    
C102  C107  T    
C26   H10   S    
C216  H80   S    
C131  C159  A    
C136  C148  A    
O44   Zn5   S    
C172  O8    A    
C204  H44   S    
C135  C147  A    
O29   Zn11  S    
O30   Zn12  S    
C10   C106  S    
C121  I41   S    
O39   Zn2   S    
C76   I28   S    
C14   C110  S    
C40   C72   A    
C171  O11   A    
C169  O9    A    
O43   Zn6   S    
C15   C31   A    
C178  O22   A    
C16   C32   A    
C125  I45   S    
C1    C17   A    
C122  C162  A    
O1    Zn12  S    
C138  C166  A    
C123  I43   S    
O2    Zn11  S    
C122  C125  A    
C49   I1    S    
C216  H78   S    
C144  C152  A    
C7    C23   A    
C143  C151  A    
C8    C24   A    
O35   Zn13  S    
C206  H50   S    
O1    Zn5   S    
C7    C41   A    
C55   C87   A    
C197  C198  A    
C135  O59   S    
C130  O54   S    
C114  C117  A    
C41   C73   A    
C32   H16   S    
C3    C99   S    
C100  C109  T    
C202  H38   S    
C153  C193  A    
C203  H39   S    
C172  O12   A    
C205  H45   S    
C67   C93   A    
C167  C199  A    
C45   C77   A    
C69   C91   A    
C191  O41   A    
C208  H55   S    
C38   C70   A    
C89   C187  S    
C215  H77   S    
C50   I2    S    
O20   Zn1   S    
C137  C165  A    
O57   C205  S    
C9    C25   A    
C210  H60   S    
O11   Zn10  S    
O45   Zn3   S    
C158  C194  A    
C57   C89   A    
O16   Zn5   S    
C12   C28   A    
C151  C173  S    
O47   Zn1   S    
C13   C29   A    
C156  C196  A    
C61   C93   A    
O12   Zn9   S    
C6    C22   A    
C63   C95   A    
C183  O49   A    
C49   C81   A    
C118  I38   S    
C75   C85   A    
O1    Zn1   S    
C65   I17   S    
C132  O56   S    
C93   C191  S    
O59   C207  S    
C101  C108  T    
C61   I13   S    
C85   C183  S    
C169  O5    A    
C86   C184  S    
C46   H30   S    
C39   H23   S    
O32   Zn10  S    
C92   C190  S    
C136  O60   S    
C41   H25   S    
C42   C74   A    
C141  C149  A    
C96   C186  S    
C20   H4    S    
C176  O16   A    
C46   C78   A    
C1    C47   A    
C139  C151  A    
C4    C46   A    
C2    C48   A    
C24   H8    S    
O51   Zn5   S    
O3    Zn14  S    
C77   I29   S    
O4    Zn9   S    
O5    Zn12  S    
C165  C197  A    
C30   H14   S    
O6    Zn11  S    
C202  H36   S    
C203  H41   S    
O31   Zn9   S    
C74   I26   S    
C18   H2    S    
C190  O34   A    
C88   C178  S    
C26   C58   A    
C81   C179  S    
C213  H70   S    
C58   C90   A    
C183  O27   A    
C62   C94   A    
C127  I47   S    
C76   C86   A    
C50   C82   A    
C66   C96   A    
C173  O13   A    
C168  C200  A    
C124  I44   S    
C70   C92   A    
C215  H76   S    
C126  C166  A    
C213  H71   S    
C142  C162  A    
C34   H18   S    
C13   C35   A    
C28   H12   S    
O60   C208  S    
C161  C197  A    
C130  C158  A    
C38   H22   S    
O3    Zn10  S    
O4    Zn13  S    
C134  C154  A    
C21   C53   A    
C3    C45   A    
C79   I31   S    
O2    Zn6   S    
C209  H58   S    
C155  C195  A    
C185  O39   A    
C186  O40   A    
O68   C216  S    
C187  O37   A    
C212  H67   S    
O41   Zn4   S    
O42   Zn3   S    
C74   C88   A    
C60   C92   A    
C164  C200  A    
C124  C164  A    
C140  C168  A    
C214  H74   S    
C150  C176  S    
O55   C203  S    
C145  C171  S    
C141  C161  A    
C126  I46   S    
O1    Zn16  S    
C146  C172  S    
C2    C18   A    
O2    Zn15  S    
C52   I4    S    
O67   C215  S    
C47   C79   A    
C211  H63   S    
C36   H20   S    
C129  C157  A    
C180  O24   A    
C33   C65   A    
C214  H73   S    
C138  C150  A    
C22   H6    S    
C132  C160  A    
C171  O7    A    
C40   H24   S    
C133  C153  A    
C8    C42   A    
C136  C156  A    
C201  H34   S    
C210  H61   S    
C47   H31   S    
C77   C83   A    
C135  C155  A    
C21   H5    S    
O3    Zn3   S    
O4    Zn4   S    
O19   Zn2   S    
C216  H79   S    
C137  O61   S    
C70   I22   S    
O7    Zn14  S    
C152  C174  S    
C10   C26   A    
O36   Zn14  S    
C204  H43   S    
O13   Zn4   S    
C137  C149  A    
O14   Zn3   S    
C64   I16   S    
C45   H29   S    
C14   C30   A    
C43   H27   S    
O48   Zn2   S    
O33   Zn15  S    
C120  I40   S    
O34   Zn16  S    
C132  C148  A    
C15   C111  S    
C56   I8    S    
C1    C97   S    
C79   C81   A    
C174  O18   A    
C59   C91   A    
C113  I33   S    
O2    Zn2   S    
O17   Zn8   S    
C207  H53   S    
O18   Zn7   S    
C48   H32   S    
C17   H1    S    
C178  O48   A    
C44   H28   S    
C148  C170  S    
C71   C89   A    
C65   C95   A    
C27   H11   S    
C206  H49   S    
C25   H9    S    
O4    Zn8   S    
C179  O45   A    
C28   C60   A    
C66   I18   S    
C127  C167  A    
C202  H37   S    
C203  H40   S    
C115  C120  A    
C205  H46   S    
C4    C100  S    
C11   C107  S    
C211  H65   S    
C208  H54   S    
C98   C111  T    
C115  C155  A    
C170  O10   A    
C54   I6    S    
C113  C153  A    
C142  O66   S    
C205  H47   S    
C177  O21   A    
C188  O32   A    
C116  C119  A    
C48   C80   A    
C30   C62   A    
C121  C126  A    
C20   C52   A    
C27   C59   A    
O61   C209  S    
C59   I11   S    
C185  O29   A    
C123  C128  A    
C90   C188  S    
C187  O31   A    
C103  C106  T    
C12   C38   A    
O58   C206  S    
C94   C192  S    
C177  O47   A    
C113  C118  A    
C154  C194  A    
C19   C51   A    
C2    C98   S    
C184  O50   A    
O54   C202  S    
C82   C180  S    
C128  C168  A    
O66   C214  S    
C5    C43   A    
C190  O44   A    
C131  O55   S    
C15   C33   A    
C147  C169  S    
C138  O62   S    
