data_mof_unit_23965.cif
_audit_creation_date              2012-12-10T17:50:33-0500
_audit_creation_method            fapswitch 2.2
_symmetry_space_group_name_H-M    P1
_symmetry_Int_Tables_number       1
_space_group_crystal_system       triclinic
_cell_length_a                    15.723804
_cell_length_b                    10.806368
_cell_length_c                    10.1135
_cell_angle_alpha                 88.374635
_cell_angle_beta                  89.638705
_cell_angle_gamma                 90.139631
_cell_volume                      1717.72628281

loop_
_atom_site_label
_atom_site_type_symbol
_atom_type_description
_atom_site_fract_x
_atom_site_fract_y
_atom_site_fract_z
_atom_type_partial_charge
C1    C     C_R   0.500378 0.260538 0.501921 0.960066
C2    C     C_3   0.082349 0.517813 0.504186 -0.061262
C3    C     C_3   0.968900 0.627026 0.537829 -0.167956
C4    C     C_3   0.914938 0.515399 0.499456 -0.027337
C5    C     C_3   0.027041 0.604490 0.417477 -0.050978
C6    C     C_3   0.971513 0.492913 0.377836 -0.223658
C7    C     C_1   0.173667 0.514039 0.501854 0.200339
C8    C     C_1   0.824526 0.510086 0.497967 0.118567
C9    C     C_R   0.391311 0.112614 0.690102 0.303314
C10   C     C_R   0.355622 0.035440 0.789180 0.416815
C11   C     C_R   0.337030 0.914328 0.758381 -0.240225
C12   C     C_R   0.338365 0.501079 0.500133 0.950748
C13   C     C_R   0.363644 0.870682 0.635978 -0.138015
C14   C     C_R   0.433874 0.931685 0.574060 0.015831
C15   C     C_R   0.442656 0.059372 0.590788 -0.050519
C16   C     C_R   0.499604 0.126757 0.505365 -0.132088
C17   C     C_R   0.554400 0.064230 0.417788 -0.073284
C18   C     C_R   0.549618 0.936532 0.412972 -0.191652
C19   C     C_R   0.491484 0.871150 0.491798 -0.020507
C20   C     C_R   0.347362 0.495672 0.135007 -0.128363
C21   C     C_R   0.280871 0.424116 0.087616 -0.278099
C22   C     C_R   0.278979 0.406749 0.950114 -0.144390
C23   C     C_R   0.498627 0.738860 0.497860 0.902621
C24   C     C_R   0.343638 0.466943 0.874227 0.427630
C25   C     C_R   0.425676 0.475479 0.931324 0.069897
C26   C     C_R   0.426182 0.481603 0.073106 0.076790
C27   C     C_R   0.570937 0.528336 0.069544 -0.036157
C28   C     C_R   0.570686 0.529852 0.927189 -0.052846
C29   C     C_R   0.661156 0.500910 0.499588 0.923604
C30   C     C_3   0.969148 0.428597 0.586331 0.335350
C31   C     C_3   0.026961 0.406587 0.466070 -0.144066
C32   C     C_1   0.249086 0.507775 0.500570 0.065436
C33   C     C_1   0.749565 0.505329 0.498390 -0.059688
C34   C     C_3   0.024307 0.540181 0.624956 -0.147748
H1    H     H_    0.293017 0.862945 0.821452 0.236027
H2    H     H_    0.594254 0.886849 0.351863 0.211034
H3    H     H_    0.948391 0.473653 0.276924 0.238346
N1    N     N_R   0.499210 0.498800 0.142780 -0.133848
N2    N     N_R   0.499180 0.498720 0.857170 -0.137964
O1    O     O_R   0.500000 0.316780 0.614690 -0.585604
O2    O     O_R   0.499990 0.316750 0.385360 -0.613699
O3    O     O_R   0.376780 0.500000 0.614650 -0.555060
O4    O     O_R   0.376770 0.499980 0.385310 -0.663959
O5    O     O_R   0.500010 0.683250 0.614640 -0.580204
O6    O     O_R   0.500000 0.683220 0.385310 -0.548624
O7    O     O_R   0.623230 0.500020 0.614690 -0.607851
O8    O     O_R   0.623220 0.500000 0.385350 -0.612353
Zn1   Zn    Zn3+2 0.500010 0.500020 0.653130 1.066055
Zn2   Zn    Zn3+2 0.499990 0.499980 0.346870 1.045905
C35   C     C_2   0.056756 0.280849 0.427399 1.082272
O9    O     O_2   0.034578 0.238953 0.322041 -0.525744
O10   O     O_R   0.108957 0.211617 0.512548 -0.741487
H4    H     H_    0.124871 0.128490 0.475644 0.383989
C36   C     C_2   0.302644 0.799521 0.554396 0.975152
O11   O     O_2   0.323674 0.767628 0.444381 -0.611338
O12   O     O_R   0.218077 0.778983 0.593130 -0.688310
H5    H     H_    0.197576 0.831820 0.667577 0.370739
C37   C     C_2   0.645919 0.578002 0.136558 0.976156
O13   O     O_2   0.641860 0.679079 0.187507 -0.592274
O14   O     O_R   0.721789 0.510822 0.138903 -0.747976
H6    H     H_    0.768907 0.555058 0.186812 0.348349
C38   C     C_2   0.324963 0.624635 0.172223 1.044048
O15   O     O_2   0.380003 0.704808 0.175089 -0.536096
O16   O     O_R   0.240520 0.655833 0.198596 -0.786334
H7    H     H_    0.233576 0.747254 0.215181 0.380875
C39   C     C_2   0.211098 0.386707 0.179009 1.075322
O17   O     O_2   0.138910 0.423940 0.159283 -0.499275
O18   O     O_R   0.227350 0.309912 0.289308 -0.777864
H8    H     H_    0.289001 0.283260 0.295145 0.333052
C40   C     C_2   0.204447 0.349716 0.885614 1.132964
O19   O     O_2   0.159761 0.274201 0.945984 -0.498663
O20   O     O_R   0.186093 0.379816 0.754359 -0.768689
H9    H     H_    0.134982 0.332688 0.721743 0.382807
Cl1   Cl    Cl    0.304868 0.611696 0.819419 -0.623899
C41   C     C_2   0.645286 0.581784 0.856242 0.985049
O21   O     O_2   0.712793 0.525817 0.857940 -0.543019
O22   O     O_R   0.638937 0.696663 0.790184 -0.758694
H10   H     H_    0.694234 0.723088 0.745553 0.357557
Cl2   Cl    Cl    0.927576 0.309336 0.694291 -0.433608
C42   C     C_2   0.057670 0.704869 0.323602 1.012969
O23   O     O_2   0.043614 0.698050 0.205320 -0.557597
O24   O     O_R   0.100607 0.807044 0.372397 -0.725492
H11   H     H_    0.115547 0.870868 0.300544 0.360232
C43   C     C_2   0.935791 0.750982 0.577509 0.990380
O25   O     O_2   0.985757 0.832278 0.607120 -0.511911
O26   O     O_R   0.848300 0.772953 0.580550 -0.813325
H12   H     H_    0.834062 0.859761 0.608895 0.365531
C44   C     C_2   0.049712 0.569322 0.763637 1.032920
O27   O     O_2   0.025156 0.503534 0.856526 -0.518244
O28   O     O_R   0.099968 0.672962 0.786281 -0.721417
H13   H     H_    0.112674 0.683093 0.883554 0.384788
C45   C     C_2   0.622272 0.127652 0.337948 0.968548
O29   O     O_2   0.640086 0.091254 0.227751 -0.552791
O30   O     O_R   0.667969 0.225771 0.390321 -0.804077
H14   H     H_    0.712803 0.260275 0.326793 0.368916
Cl3   Cl    Cl    0.330186 0.242334 0.651072 -0.598338
Cl4   Cl    Cl    0.315305 0.094149 0.936813 -0.532527

loop_
_geom_bond_atom_site_label_1
_geom_bond_atom_site_label_2
_ccdc_geom_bond_type
C39   O18   S    
C23   O6    A    
C21   C39   S    
C2    C7    S    
C4    C8    S    
O8    Zn2   S    
N1    Zn2   S    
O22   H10   S    
C29   O8    A    
C43   O26   S    
C12   O4    A    
C30   C31   S    
C27   N1    A    
C37   O14   S    
C15   C16   A    
C29   C33   S    
O12   H5    S    
C18   C19   A    
C12   O3    A    
C1    O1    A    
O18   H8    S    
C16   C17   A    
C35   O10   S    
C40   O19   D    
C9    C10   A    
C38   O16   S    
O20   H9    S    
C2    C34   S    
C39   O17   D    
C21   C22   A    
C12   C32   S    
C20   C38   S    
C17   C45   S    
O2    Zn2   S    
C35   O9    D    
O7    Zn1   S    
C36   O12   S    
C30   C34   S    
C24   C25   A    
C42   O24   S    
O26   H12   S    
C26   N1    A    
O3    Zn1   S    
C3    C34   S    
C37   O13   D    
C23   O5    A    
O14   H6    S    
C10   Cl4   S    
C19   C23   S    
C41   O21   D    
C38   O15   D    
O6    Zn2   S    
C20   C21   A    
C45   O30   S    
C17   C18   A    
C6    H3    S    
C1    C16   S    
C34   C44   S    
C43   O25   D    
C5    C42   S    
C41   O22   S    
C9    Cl3   S    
C30   Cl2   S    
C4    C6    S    
C44   O28   S    
C22   C24   A    
C2    C5    S    
C31   C35   S    
C3    C4    S    
C3    C43   S    
O10   H4    S    
C13   C36   S    
C1    O2    A    
O1    Zn1   S    
C36   O11   D    
C7    C32   T    
C14   C19   A    
O4    Zn2   S    
C42   O23   D    
C3    C5    S    
C27   C37   S    
C28   N2    A    
C29   O7    A    
O16   H7    S    
C11   H1    S    
C25   C26   A    
C25   N2    A    
C11   C13   A    
C24   Cl1   S    
O28   H13   S    
C5    C6    S    
C20   C26   A    
C45   O29   D    
C6    C31   S    
C8    C33   T    
C9    C15   A    
O30   H14   S    
C10   C11   A    
C44   O27   D    
O24   H11   S    
C27   C28   A    
C14   C15   A    
C2    C31   S    
C40   O20   S    
C13   C14   A    
C28   C41   S    
C18   H2    S    
C22   C40   S    
C4    C30   S    
O5    Zn1   S    
N2    Zn1   S    
