data_mof_unit_43830.cif
_audit_creation_date              2012-12-10T17:03:46-0500
_audit_creation_method            fapswitch 2.2
_symmetry_space_group_name_H-M    P1
_symmetry_Int_Tables_number       1
_space_group_crystal_system       triclinic
_cell_length_a                    10.031928
_cell_length_b                    10.738054
_cell_length_c                    13.229683
_cell_angle_alpha                 90.550994
_cell_angle_beta                  70.040568
_cell_angle_gamma                 90.813039
_cell_volume                      1339.39204598

loop_
_atom_site_label
_atom_site_type_symbol
_atom_type_description
_atom_site_fract_x
_atom_site_fract_y
_atom_site_fract_z
_atom_type_partial_charge
C1    C     C_R   0.500374 0.737452 0.502465 0.956755
C2    C     C_R   0.373082 0.494136 0.821077 -0.104931
C3    C     C_2   0.593458 0.069885 0.533905 -0.146663
C4    C     C_R   0.421430 0.503965 0.704023 0.862602
C5    C     C_2   0.485645 0.132137 0.522270 -0.404018
C6    C     C_2   0.585977 0.936233 0.545313 0.427663
C7    C     C_2   0.505689 0.869702 0.500595 -0.407680
C8    C     C_2   0.100941 0.425844 0.440364 -0.163755
C9    C     C_2   0.953824 0.432093 0.434624 0.407121
C10   C     C_R   0.497005 0.262777 0.504398 0.990255
C11   C     C_R   0.578650 0.498941 0.296276 0.892900
C12   C     C_R   0.453740 0.464089 0.973338 -0.017655
C13   C     C_R   0.786612 0.582487 0.012363 -0.193222
C14   C     C_R   0.627175 0.502160 0.179816 -0.069923
C15   C     C_R   0.250287 0.424312 0.872366 -0.271563
C16   C     C_R   0.234392 0.365410 0.968610 -0.132808
C17   C     C_R   0.339964 0.375877 0.014881 0.375154
C18   C     C_R   0.467996 0.524557 0.875666 0.035731
C19   C     C_R   0.556202 0.492931 0.022398 0.101029
C20   C     C_R   0.681356 0.561503 0.966145 0.152533
C21   C     C_R   0.692507 0.619429 0.870262 -0.215770
C22   C     C_R   0.581878 0.609073 0.830534 -0.134087
C23   C     C_R   0.528633 0.471010 0.130672 -0.172643
C24   C     C_R   0.760301 0.550734 0.119262 -0.152854
Cl1   Cl    Cl    0.688632 0.871514 0.616568 -0.631403
Cl2   Cl    Cl    0.919879 0.339685 0.335685 -0.551173
Cl3   Cl    Cl    0.336335 0.256649 0.107121 -0.599815
H1    H     H_    0.837924 0.574717 0.156703 0.181997
H2    H     H_    0.175293 0.402387 0.831979 0.184870
H3    H     H_    0.146445 0.300886 0.001326 0.201705
H4    H     H_    0.588144 0.665580 0.761899 0.208538
H5    H     H_    0.689451 0.117138 0.535123 0.220912
H6    H     H_    0.384331 0.088279 0.530594 0.167744
H7    H     H_    0.445508 0.912420 0.456170 0.141303
H8    H     H_    0.172664 0.357538 0.390037 0.219309
H9    H     H_    0.084224 0.568545 0.541585 0.165413
H10   H     H_    0.871234 0.546356 0.560362 0.141874
H11   H     H_    0.782366 0.679410 0.829704 0.170363
H12   H     H_    0.884487 0.631001 0.968452 0.152055
H13   H     H_    0.423361 0.443489 0.180648 0.206891
N1    N     N_2   0.148270 0.498670 0.498870 -0.215319
N2    N     N_2   0.852610 0.498640 0.498840 -0.208360
O1    O     O_R   0.386950 0.680940 0.500020 -0.613932
O2    O     O_R   0.613110 0.680900 0.499980 -0.561056
O3    O     O_R   0.330780 0.500000 0.653640 -0.615833
O4    O     O_R   0.556930 0.499960 0.653610 -0.614457
O5    O     O_R   0.386890 0.319100 0.500020 -0.612210
O6    O     O_R   0.613050 0.319060 0.499980 -0.572104
O7    O     O_R   0.443070 0.500040 0.346390 -0.616812
O8    O     O_R   0.669220 0.500000 0.346360 -0.568210
Zn1   Zn    Zn3+2 0.349000 0.500030 0.500020 0.970692
Zn2   Zn    Zn3+2 0.651000 0.499970 0.499980 1.032845

loop_
_geom_bond_atom_site_label_1
_geom_bond_atom_site_label_2
_ccdc_geom_bond_type
C12   C17   A    
C14   C23   A    
O8    Zn2   S    
C6    C7    D    
C11   O7    A    
C2    C18   A    
C1    O2    A    
C2    C4    S    
C19   C20   A    
C3    C5    D    
C3    C6    S    
O2    Zn2   S    
H10   N2    S    
C9    N2    D    
C5    C10   S    
C11   O8    A    
C4    O4    A    
C21   C22   A    
C20   C21   A    
C2    C15   A    
O1    Zn1   S    
H9    N1    S    
C15   C16   A    
C12   C19   A    
C11   C14   S    
N1    Zn1   S    
C9    Cl2   S    
C15   H2    S    
C4    O3    A    
C10   O6    A    
C3    H5    S    
C7    H7    S    
C13   H12   S    
C6    Cl1   S    
C22   H4    S    
O3    Zn1   S    
C14   C24   A    
C23   H13   S    
C17   Cl3   S    
O4    Zn2   S    
O6    Zn2   S    
C8    N1    D    
C12   C18   A    
C10   O5    A    
C19   C23   A    
C16   C17   A    
O5    Zn1   S    
C13   C20   A    
C1    C7    S    
C18   C22   A    
C16   H3    S    
C1    O1    A    
C21   H11   S    
C24   H1    S    
C13   C24   A    
N2    Zn2   S    
C8    C9    S    
O7    Zn1   S    
C8    H8    S    
C5    H6    S    
