data_mof_unit_55104.cif
_audit_creation_date              2012-12-11T14:42:21-0500
_audit_creation_method            fapswitch 2.2
_symmetry_space_group_name_H-M    P1
_symmetry_Int_Tables_number       1
_space_group_crystal_system       triclinic
_cell_length_a                    18.819832
_cell_length_b                    11.009517
_cell_length_c                    18.787792
_cell_angle_alpha                 89.998286
_cell_angle_beta                  91.130742
_cell_angle_gamma                 89.998573
_cell_volume                      3892.02097797

loop_
_atom_site_label
_atom_site_type_symbol
_atom_type_description
_atom_site_fract_x
_atom_site_fract_y
_atom_site_fract_z
_atom_type_partial_charge
C1    C     C_R   0.729224 0.950840 0.851878 0.542252
C2    C     C_R   0.253772 0.387571 0.917095 -0.014457
C3    C     C_2   0.858043 0.049354 0.428573 0.569373
C4    C     C_2   0.853092 0.198379 0.958810 0.603188
C5    C     C_2   0.146916 0.198376 0.041188 0.603307
C6    C     C_2   0.353090 0.698382 0.958816 0.603303
C7    C     C_2   0.646913 0.698373 0.041193 0.603197
C8    C     C_R   0.246232 0.887579 0.082904 -0.014455
C9    C     C_R   0.753764 0.887582 0.917101 -0.014211
C10   C     C_R   0.793015 0.305144 0.053034 -0.093210
C11   C     C_R   0.207008 0.305103 0.946955 -0.093006
C12   C     C_R   0.293001 0.805119 0.053044 -0.093001
C13   C     C_R   0.706993 0.805128 0.946964 -0.093214
C14   C     C_R   0.790375 0.275193 0.981015 0.044607
C15   C     C_R   0.209637 0.275176 0.018981 0.044652
C16   C     C_R   0.290369 0.775186 0.981020 0.044655
C17   C     C_R   0.270774 0.950836 0.148124 0.542205
C18   C     C_R   0.709631 0.775183 0.018987 0.044607
C19   C     C_R   0.731609 0.323237 0.938571 -0.016251
C20   C     C_R   0.268394 0.323235 0.061428 -0.016575
C21   C     C_R   0.231609 0.823241 0.938573 -0.016574
C22   C     C_R   0.768393 0.823231 0.061430 -0.016254
C23   C     C_R   0.464228 0.265304 0.546601 -0.113240
C24   C     C_R   0.458822 0.270546 0.474021 -0.105528
C25   C     C_R   0.041676 0.770069 0.525934 -0.105125
C26   C     C_R   0.036093 0.764797 0.453359 -0.113161
C27   C     C_R   0.479792 0.170892 0.432728 0.029635
C28   C     C_R   0.229226 0.450834 0.851875 0.542192
C29   C     C_R   0.493323 0.162012 0.578209 0.026879
C30   C     C_R   0.006459 0.661871 0.421879 0.027016
C31   C     C_R   0.020177 0.670886 0.567322 0.029936
C32   C     C_R   0.500504 0.061927 0.464757 -0.139429
C33   C     C_R   0.506965 0.057102 0.537942 -0.132120
C34   C     C_R   0.992254 0.557325 0.462261 -0.132105
C35   C     C_R   0.998798 0.562234 0.535428 -0.139576
C36   C     C_R   0.807149 0.357049 0.537950 -0.164512
C37   C     C_R   0.192275 0.358032 0.461546 -0.154493
C38   C     C_R   0.307782 0.858175 0.538488 -0.154470
C39   C     C_R   0.770776 0.450842 0.148121 0.542255
C40   C     C_R   0.692784 0.857250 0.462011 -0.164334
C41   C     C_R   0.809566 0.362308 0.465275 -0.130252
C42   C     C_R   0.189826 0.364417 0.534158 -0.119968
C43   C     C_R   0.310232 0.864545 0.465875 -0.119972
C44   C     C_R   0.690354 0.862505 0.534686 -0.129934
C45   C     C_R   0.529081 0.177205 0.850421 0.550136
C46   C     C_R   0.470915 0.177204 0.149576 0.554303
C47   C     C_R   0.029086 0.677204 0.850425 0.554281
C48   C     C_R   0.970919 0.677205 0.149579 0.550145
C49   C     C_R   0.757577 0.425891 0.426598 0.007638
C50   C     C_R   0.683724 0.415398 0.045873 -0.133944
C51   C     C_R   0.241526 0.428982 0.572529 0.003125
C52   C     C_R   0.258506 0.929045 0.427492 0.003128
C53   C     C_R   0.742390 0.925946 0.573382 0.007660
C54   C     C_R   0.702115 0.483713 0.462168 -0.131855
C55   C     C_R   0.295663 0.489745 0.536428 -0.150279
C56   C     C_R   0.204356 0.989785 0.463585 -0.150445
C57   C     C_R   0.797893 0.983672 0.537826 -0.131875
C58   C     C_R   0.698493 0.478392 0.536398 0.041675
C59   C     C_R   0.298683 0.484844 0.462072 0.024611
C60   C     C_R   0.201332 0.984890 0.537941 0.024346
C61   C     C_R   0.316279 0.415401 0.954125 -0.134241
C62   C     C_R   0.801525 0.978359 0.463598 0.041677
C63   C     C_R   0.750457 0.409507 0.574493 0.005895
C64   C     C_R   0.248307 0.411849 0.424661 0.004881
C65   C     C_R   0.251718 0.911925 0.575360 0.004838
C66   C     C_R   0.749530 0.909572 0.425487 0.005877
C67   C     C_R   0.724688 0.308823 0.860092 0.560682
C68   C     C_R   0.275312 0.308825 0.139909 0.561355
C69   C     C_R   0.224689 0.808826 0.860093 0.561355
C70   C     C_R   0.775313 0.808822 0.139910 0.560679
C71   C     C_R   0.727267 0.956731 0.646694 0.560863
C72   C     C_R   0.183721 0.915401 0.045875 -0.134239
C73   C     C_R   0.273022 0.957628 0.353693 0.559394
C74   C     C_R   0.226986 0.457613 0.646316 0.559368
C75   C     C_R   0.772725 0.456715 0.353298 0.560780
C76   C     C_R   0.527592 0.175329 0.646362 0.548673
C77   C     C_R   0.466287 0.176992 0.357686 0.547026
C78   C     C_R   0.033691 0.676996 0.642338 0.546957
C79   C     C_R   0.972356 0.675311 0.353670 0.548647
C80   C     C_R   0.739627 0.363972 0.646552 0.577556
C81   C     C_R   0.260107 0.364573 0.353142 0.576179
C82   C     C_R   0.239899 0.864596 0.646865 0.576071
C83   C     C_R   0.816276 0.915397 0.954127 -0.133945
C84   C     C_R   0.760371 0.863977 0.353444 0.577508
C85   C     C_2   0.496860 0.166929 0.921252 -0.133247
C86   C     C_2   0.503124 0.166923 0.078738 -0.133963
C87   C     C_2   0.996879 0.666924 0.921263 -0.133954
C88   C     C_2   0.003143 0.666928 0.078749 -0.133253
C89   C     C_2   0.500407 0.062281 0.040160 -0.013103
C90   C     C_2   0.499563 0.062284 0.959827 -0.012502
C91   C     C_2   0.000442 0.562284 0.040177 -0.012498
C92   C     C_2   0.999599 0.562282 0.959844 -0.013111
C93   C     C_R   0.676367 0.383691 0.973989 -0.149209
C94   C     C_R   0.746239 0.387590 0.082898 -0.014213
C95   C     C_R   0.323634 0.383696 0.026010 -0.149269
C96   C     C_R   0.176367 0.883699 0.973990 -0.149271
C97   C     C_R   0.823634 0.883688 0.026011 -0.149211
C98   C     C_2   0.501321 0.943530 0.078263 0.655813
C99   C     C_2   0.498632 0.943540 0.921719 0.656073
C100  C     C_2   0.001372 0.443538 0.078288 0.656076
C101  C     C_2   0.998684 0.443532 0.921744 0.655811
C102  C     C_2   0.642024 0.549485 0.571436 0.569351
C103  C     C_2   0.352131 0.561366 0.426026 0.549882
C104  C     C_2   0.147844 0.061334 0.573980 0.549892
Cr1   Cr    Cr6+3 0.769270 0.163730 0.750710 1.071301
Cr2   Cr    Cr6+3 0.385840 0.322500 0.252290 1.078462
Cr3   Cr    Cr6+3 0.114160 0.822500 0.747710 1.078511
Cr4   Cr    Cr6+3 0.885840 0.822500 0.252290 1.081997
Cr5   Cr    Cr6+3 0.230730 0.163730 0.249290 1.066977
Cr6   Cr    Cr6+3 0.269270 0.663730 0.750710 1.066916
Cr7   Cr    Cr6+3 0.730730 0.663730 0.249290 1.071275
Cr8   Cr    Cr6+3 0.612620 0.009790 0.748780 1.062736
Cr9   Cr    Cr6+3 0.387380 0.009790 0.251220 1.064993
Cr10  Cr    Cr6+3 0.112620 0.509790 0.748780 1.065032
Cr11  Cr    Cr6+3 0.887380 0.509790 0.251220 1.062747
Cr12  Cr    Cr6+3 0.614160 0.322500 0.747710 1.081897
H1    H     H_    0.854462 0.320304 0.439813 0.172324
H2    H     H_    0.358181 0.463383 0.927892 0.168952
H3    H     H_    0.141817 0.963374 0.072108 0.168954
H4    H     H_    0.858180 0.963371 0.927893 0.169322
H5    H     H_    0.836138 0.271231 0.086210 0.229068
H6    H     H_    0.163898 0.271166 0.913772 0.229244
H7    H     H_    0.336114 0.771187 0.086225 0.229257
H8    H     H_    0.663874 0.771211 0.913787 0.229054
H9    H     H_    0.848688 0.305579 0.564975 0.152424
H10   H     H_    0.151373 0.304592 0.434898 0.158571
H11   H     H_    0.348700 0.804777 0.565146 0.158510
H12   H     H_    0.145301 0.321945 0.559889 0.178267
H13   H     H_    0.651217 0.805877 0.434970 0.152442
H14   H     H_    0.542644 0.843800 0.159072 0.359940
H15   H     H_    0.457313 0.843868 0.840885 0.359871
H16   H     H_    0.042693 0.343859 0.159122 0.359880
H17   H     H_    0.957362 0.343809 0.840935 0.359949
H18   H     H_    0.663991 0.538609 0.432485 0.164616
H19   H     H_    0.332981 0.546594 0.565819 0.164722
H20   H     H_    0.167019 0.046593 0.434186 0.164710
H21   H     H_    0.836051 0.038478 0.567522 0.164610
H22   H     H_    0.542415 0.617101 0.565485 0.342805
H23   H     H_    0.354772 0.822102 0.440151 0.178114
H24   H     H_    0.447579 0.644905 0.431960 0.342126
H25   H     H_    0.052347 0.144709 0.568052 0.342234
H26   H     H_    0.957689 0.116775 0.434543 0.342945
H27   H     H_    0.628503 0.410936 0.945324 0.167473
H28   H     H_    0.371494 0.410952 0.054678 0.167447
H29   H     H_    0.128505 0.910950 0.945323 0.167436
H30   H     H_    0.871496 0.910937 0.054677 0.167484
H31   H     H_    0.937710 0.097270 0.991305 0.333693
H32   H     H_    0.062294 0.097286 0.008696 0.333654
H33   H     H_    0.437706 0.597271 0.991311 0.333648
H34   H     H_    0.645419 0.820592 0.560134 0.172291
H35   H     H_    0.562290 0.597285 0.008702 0.333697
H36   H     H_    0.451692 0.345613 0.577327 0.158228
H37   H     H_    0.438314 0.353190 0.450369 0.185408
H38   H     H_    0.062719 0.852352 0.549523 0.184715
H39   H     H_    0.049020 0.844788 0.422529 0.157643
H40   H     H_    0.513261 0.982531 0.433383 0.127947
H41   H     H_    0.528428 0.975229 0.562086 0.137587
H42   H     H_    0.970307 0.475754 0.438225 0.137833
H43   H     H_    0.985587 0.483189 0.566896 0.127886
H44   H     H_    0.515747 0.252773 0.053968 0.078951
H45   H     H_    0.484242 0.252782 0.946021 0.079042
H46   H     H_    0.015760 0.752780 0.053978 0.079039
H47   H     H_    0.984255 0.752774 0.946030 0.078956
H48   H     H_    0.641817 0.463363 0.072107 0.169321
O1    O     O_R   0.784320 0.290430 0.830510 -0.433798
O2    O     O_R   0.456080 0.282180 0.333210 -0.512638
O3    O     O_R   0.043920 0.782180 0.666790 -0.512414
O4    O     O_R   0.956080 0.782180 0.333210 -0.503491
O5    O     O_R   0.679040 0.374160 0.674430 -0.451090
O6    O     O_R   0.320960 0.374160 0.325570 -0.461536
O7    O     O_R   0.179040 0.874160 0.674430 -0.461619
O8    O     O_R   0.820960 0.874160 0.325570 -0.451083
O9    O     O_3   0.665350 0.165340 0.749070 -0.298664
O10   O     O_3   0.334650 0.165340 0.250930 -0.300998
O11   O     O_3   0.165350 0.665340 0.749070 -0.301012
O12   O     O_R   0.215680 0.290430 0.169490 -0.433126
O13   O     O_3   0.834650 0.665340 0.250930 -0.298706
O14   O     O_R   0.762640 0.040960 0.825200 -0.491834
O15   O     O_R   0.237360 0.040960 0.174800 -0.492092
O16   O     O_R   0.262640 0.540960 0.825200 -0.492114
O17   O     O_R   0.737360 0.540960 0.174800 -0.491813
O18   O     O_R   0.667400 0.923970 0.829950 -0.501888
O19   O     O_R   0.332600 0.923970 0.170050 -0.501447
O20   O     O_R   0.167400 0.423970 0.829950 -0.501440
O21   O     O_R   0.832600 0.423970 0.170050 -0.501883
O22   O     O_R   0.553960 0.081340 0.821780 -0.468815
O23   O     O_R   0.284320 0.790430 0.830510 -0.433136
O24   O     O_R   0.446040 0.081340 0.178220 -0.467182
O25   O     O_R   0.053960 0.581340 0.821780 -0.467193
O26   O     O_R   0.946040 0.581340 0.178220 -0.468794
O27   O     O_R   0.543180 0.283240 0.826740 -0.527044
O28   O     O_R   0.456820 0.283240 0.173260 -0.522864
O29   O     O_R   0.043180 0.783240 0.826740 -0.522875
O30   O     O_R   0.956820 0.783240 0.173260 -0.527033
O31   O     O_R   0.678360 0.375140 0.822710 -0.485423
O32   O     O_R   0.321640 0.375140 0.177290 -0.483453
O33   O     O_R   0.178360 0.875140 0.822710 -0.483447
O34   O     O_R   0.715680 0.790430 0.169490 -0.433795
O35   O     O_R   0.821640 0.875140 0.177290 -0.485428
O36   O     O_R   0.785050 0.289380 0.670560 -0.527778
O37   O     O_R   0.214950 0.289380 0.329440 -0.527198
O38   O     O_R   0.285050 0.789380 0.670560 -0.527198
O39   O     O_R   0.714950 0.789380 0.329440 -0.527771
O40   O     O_R   0.763320 0.039990 0.676930 -0.510807
O41   O     O_R   0.236680 0.039990 0.323070 -0.513584
O42   O     O_R   0.263320 0.539990 0.676930 -0.513596
O43   O     O_R   0.736680 0.539990 0.323070 -0.510805
O44   O     O_R   0.668130 0.922920 0.670000 -0.502993
O45   O     O_R   0.554640 0.080370 0.673500 -0.508453
O46   O     O_R   0.331870 0.922920 0.330000 -0.499740
O47   O     O_R   0.168130 0.422920 0.670000 -0.499678
O48   O     O_R   0.831870 0.422920 0.330000 -0.503091
O49   O     O_2   0.459513 0.863471 0.061183 -0.473742
O50   O     O_R   0.549536 0.925083 0.134848 -0.651497
O51   O     O_2   0.540415 0.863442 0.938806 -0.473618
O52   O     O_R   0.450430 0.925147 0.865116 -0.652107
O53   O     O_2   0.959585 0.363449 0.061205 -0.473641
O54   O     O_R   0.049576 0.425136 0.134889 -0.652089
O55   O     O_2   0.040488 0.363465 0.938829 -0.473715
O56   O     O_R   0.445360 0.080370 0.326500 -0.503216
O57   O     O_R   0.950470 0.425093 0.865156 -0.651499
O58   O     O_2   0.653717 0.597888 0.629078 -0.507308
O59   O     O_R   0.576187 0.565543 0.536901 -0.706053
O60   O     O_2   0.339613 0.602295 0.366570 -0.497605
O61   O     O_R   0.415701 0.591576 0.461602 -0.733288
O62   O     O_2   0.160341 0.102288 0.633429 -0.497615
O63   O     O_R   0.084249 0.091413 0.538415 -0.732867
O64   O     O_2   0.846385 0.097807 0.370936 -0.507364
O65   O     O_R   0.923888 0.065264 0.463117 -0.705662
O66   O     O_2   0.870097 0.184560 0.897229 -0.485824
O67   O     O_R   0.054640 0.580370 0.673500 -0.503205
O68   O     O_R   0.895820 0.142779 0.011397 -0.696416
O69   O     O_2   0.129909 0.184564 0.102769 -0.486233
O70   O     O_R   0.104187 0.142782 0.988603 -0.696152
O71   O     O_2   0.370106 0.684590 0.897235 -0.486236
O72   O     O_R   0.395811 0.642767 0.011402 -0.696175
O73   O     O_2   0.629918 0.684534 0.102776 -0.485831
O74   O     O_R   0.604178 0.642795 0.988608 -0.696397
O75   O     O_R   0.945360 0.580370 0.326500 -0.508567
O76   O     O_R   0.543920 0.282180 0.666790 -0.503774

loop_
_geom_bond_atom_site_label_1
_geom_bond_atom_site_label_2
_ccdc_geom_bond_type
C76   O45   A    
C25   C31   A    
C87   H47   S    
C6    O71   D    
C23   C29   A    
H25   O63   S    
C16   C21   A    
C55   C59   A    
C85   H45   S    
C97   H30   S    
C70   O35   A    
C36   H9    S    
Cr11  O26   S    
C24   C27   A    
Cr2   O28   S    
Cr1   O14   S    
C23   H36   S    
C10   H5    S    
C3    O65   S    
C38   H11   S    
C68   O12   A    
Cr5   O12   S    
C57   C62   A    
C29   C76   S    
Cr3   O7    S    
Cr6   O11   S    
Cr5   O41   S    
C96   H29   S    
C78   O3    A    
C61   H2    S    
C99   O51   D    
Cr11  O48   S    
C104  O63   S    
Cr2   O2    S    
Cr9   O46   S    
C28   O20   A    
Cr7   O34   S    
C74   O42   A    
Cr11  O21   S    
C72   C96   A    
C55   H19   S    
C43   C52   A    
C99   O52   S    
C10   C94   A    
C49   C54   A    
C54   H18   S    
C29   C33   A    
Cr7   O17   S    
C34   C35   A    
H31   O68   S    
C37   C42   A    
Cr8   O18   S    
C9    C13   A    
C40   C66   A    
C73   O41   A    
C86   H44   S    
C32   H40   S    
Cr12  O31   S    
C11   C15   A    
C44   C53   A    
C45   O27   A    
Cr1   O36   S    
C12   C16   A    
Cr4   O13   S    
H17   O57   S    
C23   C24   A    
C48   C88   S    
C43   H23   S    
C58   C102  S    
C79   O75   A    
C91   C100  S    
C36   C63   A    
C69   O23   A    
Cr9   O56   S    
C48   O26   A    
C19   C93   A    
C2    C61   A    
C42   H12   S    
C42   C51   A    
C67   O1    A    
Cr10  O25   S    
Cr8   O9    S    
Cr4   O4    S    
C100  O54   S    
C95   H28   S    
C70   O34   A    
C22   C97   A    
Cr1   O9    S    
C87   C92   D    
C69   O33   A    
Cr2   O6    S    
C83   H4    S    
Cr12  O9    S    
C26   H39   S    
C15   C20   A    
C4    O68   S    
C75   O43   A    
C80   O5    A    
C67   O31   A    
C2    C11   A    
C41   C49   A    
C56   H20   S    
C33   H41   S    
C102  O59   S    
C40   C44   A    
C63   C80   S    
C46   O24   A    
C71   O40   A    
C75   O48   A    
C85   C90   D    
Cr3   O3    S    
Cr6   O23   S    
C8    C72   A    
H33   O72   S    
C30   C34   A    
C50   H48   S    
C7    O73   D    
C73   O46   A    
C1    C9    S    
Cr8   O44   S    
Cr6   O42   S    
C52   C73   S    
C10   C14   A    
Cr7   O39   S    
Cr10  O67   S    
C82   O38   A    
C13   H8    S    
C62   C66   A    
Cr5   O10   S    
C50   C94   A    
Cr1   O40   S    
C81   O37   A    
C84   O8    A    
C77   O2    A    
Cr10  O20   S    
Cr9   O24   S    
C66   C84   S    
C44   H34   S    
C56   C60   A    
C51   C74   S    
C21   C69   S    
Cr12  O27   S    
C47   C87   S    
Cr10  O47   S    
C47   O25   A    
C45   C85   S    
C39   C94   S    
C20   C68   S    
H24   O61   S    
C103  O60   D    
C1    O14   A    
Cr5   O15   S    
C7    O74   S    
Cr6   O16   S    
C8    C12   A    
C7    C18   S    
C49   C75   S    
Cr2   O10   S    
C57   H21   S    
C68   O32   A    
Cr11  O13   S    
C81   O6    A    
C19   C67   S    
C17   O19   A    
C28   O16   A    
C39   O17   A    
C92   C101  S    
C9    C83   A    
C30   C79   S    
C13   C18   A    
C84   O39   A    
Cr10  O11   S    
C20   C95   A    
C100  O53   D    
C26   C30   A    
C5    O70   S    
Cr4   O8    S    
C74   O47   A    
C79   O4    A    
C31   C35   A    
C101  O55   D    
C11   H6    S    
Cr4   O30   S    
C53   C71   S    
Cr7   O43   S    
C90   C99   S    
Cr3   O29   S    
C37   C64   A    
C24   H37   S    
C102  O58   D    
C31   C78   S    
Cr3   O33   S    
C37   H10   S    
C54   C58   A    
C3    C62   S    
C101  O57   S    
C58   C63   A    
H35   O74   S    
C6    O72   S    
C82   O7    A    
C71   O44   A    
C53   C57   A    
C34   H42   S    
H16   O54   S    
C48   O30   A    
C25   H38   S    
C18   C22   A    
C98   O49   D    
C14   C19   A    
C47   O29   A    
C46   O28   A    
H26   O65   S    
C86   C89   D    
C93   H27   S    
C60   C65   A    
Cr2   O32   S    
C1    O18   A    
C61   C95   A    
C50   C93   A    
C104  O62   D    
C21   C96   A    
C103  O61   S    
C40   H13   S    
Cr12  O76   S    
C8    C17   S    
C76   O76   A    
C89   C98   S    
Cr6   O38   S    
C59   C103  S    
Cr8   O45   S    
Cr4   O35   S    
Cr5   O37   S    
C25   C26   A    
C38   C43   A    
C4    C14   S    
C32   C33   A    
Cr8   O22   S    
C17   O15   A    
C65   C82   S    
Cr9   O19   S    
C12   H7    S    
Cr3   O11   S    
H22   O59   S    
C77   O56   A    
C88   H46   S    
C72   H3    S    
H32   O70   S    
Cr1   O1    S    
Cr12  O5    S    
H14   O50   S    
C51   C55   A    
C98   O50   S    
C45   O22   A    
C35   H43   S    
C64   C81   S    
C5    C15   S    
C27   C32   A    
C6    C16   S    
C39   O21   A    
C59   C64   A    
H15   O52   S    
Cr11  O75   S    
C83   C97   A    
C36   C41   A    
Cr7   O13   S    
C27   C77   S    
C2    C28   S    
C78   O67   A    
C41   H1    S    
C89   C90   S    
C60   C104  S    
C38   C65   A    
C88   C91   D    
C3    O64   D    
C22   C70   S    
C5    O69   D    
C91   C92   S    
C52   C56   A    
C4    O66   D    
Cr9   O10   S    
C46   C86   S    
C80   O36   A    
