data_mof_unit_55309.cif
_audit_creation_date              2012-12-10T17:17:55-0500
_audit_creation_method            fapswitch 2.2
_symmetry_space_group_name_H-M    P1
_symmetry_Int_Tables_number       1
_space_group_crystal_system       triclinic
_cell_length_a                    15.04522
_cell_length_b                    15.711351
_cell_length_c                    9.597026
_cell_angle_alpha                 89.759163
_cell_angle_beta                  91.797449
_cell_angle_gamma                 89.944348
_cell_volume                      2267.41439839

loop_
_atom_site_label
_atom_site_type_symbol
_atom_type_description
_atom_site_fract_x
_atom_site_fract_y
_atom_site_fract_z
_atom_type_partial_charge
Br1   Br    Br    0.500796 0.281061 0.640281 -0.486732
Br2   Br    Br    0.492001 0.748557 0.730180 -0.475269
Br3   Br    Br    0.000796 0.781061 0.640281 -0.486732
Br4   Br    Br    0.992001 0.248557 0.730180 -0.475269
Br5   Br    Br    0.736214 0.996462 0.319444 -0.516681
Br6   Br    Br    0.236214 0.496462 0.319444 -0.516681
C1    C     C_R   0.387296 0.876086 0.499622 0.823266
C2    C     C_R   0.712308 0.222523 0.380492 -0.133402
C3    C     C_R   0.194047 0.261745 0.386711 -0.141121
C4    C     C_R   0.212308 0.722524 0.380492 -0.133402
C5    C     C_R   0.678770 0.806454 0.510061 -0.032113
C6    C     C_R   0.683670 0.189748 0.507760 -0.027227
C7    C     C_R   0.178770 0.306454 0.510061 -0.032113
C8    C     C_R   0.183670 0.689748 0.507760 -0.027227
C9    C     C_R   0.673882 0.014971 0.141365 0.256369
C10   C     C_R   0.173882 0.514971 0.141365 0.256369
C11   C     C_R   0.747062 0.030984 0.058088 -0.163840
C12   C     C_R   0.384982 0.122276 0.498370 0.829847
C13   C     C_R   0.247062 0.530984 0.058088 -0.163840
C14   C     C_R   0.740791 0.023783 0.917612 -0.266089
C15   C     C_R   0.240791 0.523783 0.917612 -0.266089
C16   C     C_R   0.660178 0.007898 0.854709 -0.181879
C17   C     C_R   0.160178 0.507898 0.854709 -0.181879
C18   C     C_R   0.580242 0.004737 0.927101 0.168086
C19   C     C_R   0.080242 0.504737 0.927101 0.168086
C20   C     C_R   0.582971 0.005873 0.078081 0.144920
C21   C     C_R   0.082971 0.505872 0.078081 0.144920
C22   C     C_R   0.423887 0.994805 0.070114 -0.004537
C23   C     C_R   0.887296 0.376086 0.499622 0.823266
C24   C     C_R   0.923887 0.494805 0.070114 -0.004537
C25   C     C_R   0.616281 0.121710 0.502140 0.870220
C26   C     C_R   0.614471 0.876999 0.502756 0.863724
C27   C     C_R   0.116281 0.621710 0.502140 0.870220
C28   C     C_R   0.114471 0.376999 0.502756 0.863724
C29   C     C_R   0.423951 0.995131 0.922539 0.007771
C30   C     C_R   0.923951 0.495131 0.922539 0.007771
C31   C     C_R   0.385133 0.262392 0.708630 0.167534
C32   C     C_R   0.366255 0.759137 0.746338 0.194007
C33   C     C_R   0.885133 0.762392 0.708630 0.167534
C34   C     C_R   0.884982 0.622276 0.498370 0.829847
C35   C     C_R   0.866255 0.259137 0.746338 0.194007
C36   C     C_R   0.367723 0.292401 0.841725 0.651856
C37   C     C_R   0.332069 0.745166 0.877936 0.612284
C38   C     C_R   0.867723 0.792401 0.841725 0.651856
C39   C     C_R   0.832069 0.245166 0.877936 0.612284
C40   C     C_R   0.781153 0.813592 0.874052 -0.282820
C41   C     C_R   0.743195 0.223947 0.889354 -0.273578
C42   C     C_R   0.281153 0.313592 0.874052 -0.282820
C43   C     C_R   0.243195 0.723947 0.889354 -0.273578
C44   C     C_R   0.715303 0.815998 0.768379 -0.237024
C45   C     C_R   0.262522 0.202776 0.381786 -0.165413
C46   C     C_R   0.692227 0.205147 0.769650 -0.192720
C47   C     C_R   0.215303 0.315998 0.768379 -0.237024
C48   C     C_R   0.192227 0.705147 0.769650 -0.192720
C49   C     C_R   0.733902 0.790043 0.630879 0.080850
C50   C     C_R   0.726670 0.216922 0.634781 0.064882
C51   C     C_R   0.233902 0.290043 0.630879 0.080850
C52   C     C_R   0.226670 0.716922 0.634781 0.064882
C53   C     C_R   0.314505 0.247210 0.612154 -0.035710
C54   C     C_R   0.308719 0.759390 0.626527 -0.044422
C55   C     C_R   0.814505 0.747210 0.612154 -0.035710
C56   C     C_R   0.281178 0.780718 0.377497 -0.155426
C57   C     C_R   0.808719 0.259390 0.626527 -0.044421
C58   C     C_R   0.322836 0.194287 0.494874 -0.048688
C59   C     C_R   0.328733 0.801367 0.500190 -0.060026
C60   C     C_R   0.822836 0.694287 0.494874 -0.048688
C61   C     C_R   0.828733 0.301367 0.500190 -0.060026
C62   C     C_R   0.762522 0.702776 0.381786 -0.165413
C63   C     C_R   0.781178 0.280718 0.377497 -0.155426
C64   C     C_R   0.694047 0.761745 0.386711 -0.141121
Cu1   Cu    Cu3+1 0.499990 0.000000 0.640660 0.979253
Cu2   Cu    Cu3+1 0.999990 0.500000 0.640660 0.979253
Cu3   Cu    Cu3+1 0.500010 0.000000 0.359340 1.007728
Cu4   Cu    Cu3+1 0.000010 0.500000 0.359340 1.007728
F1    F     F_    0.434895 0.305034 0.936988 -0.628785
F2    F     F_    0.385545 0.748921 0.994256 -0.645729
F3    F     F_    0.934895 0.805034 0.936988 -0.628785
F4    F     F_    0.885545 0.248921 0.994256 -0.645729
H1    H     H_    0.268406 0.164074 0.289361 0.163301
H2    H     H_    0.861321 0.491206 0.864438 0.137212
H3    H     H_    0.766298 0.834507 0.978154 0.201735
H4    H     H_    0.715594 0.214983 0.991241 0.185954
H5    H     H_    0.266298 0.334507 0.978154 0.201735
H6    H     H_    0.215594 0.714983 0.991241 0.185954
H7    H     H_    0.650520 0.835664 0.799165 0.240243
H8    H     H_    0.625543 0.184324 0.787377 0.240787
H9    H     H_    0.150520 0.335664 0.799165 0.240243
H10   H     H_    0.125543 0.684323 0.787377 0.240787
H11   H     H_    0.651714 0.771114 0.294484 0.177110
H12   H     H_    0.296520 0.810161 0.278845 0.187870
H13   H     H_    0.679763 0.205028 0.282475 0.171378
H14   H     H_    0.151714 0.271114 0.294484 0.177110
H15   H     H_    0.179763 0.705028 0.282475 0.171378
H16   H     H_    0.361298 0.990632 0.122193 0.131004
H17   H     H_    0.861298 0.490632 0.122193 0.131004
H18   H     H_    0.813645 0.043553 0.100163 0.230080
H19   H     H_    0.313645 0.543553 0.100163 0.230080
H20   H     H_    0.768406 0.664074 0.289361 0.163301
H21   H     H_    0.796520 0.310161 0.278845 0.187870
H22   H     H_    0.799728 0.029750 0.856122 0.208055
H23   H     H_    0.299728 0.529750 0.856122 0.208055
H24   H     H_    0.665789 0.999348 0.746953 0.232673
H25   H     H_    0.165789 0.499348 0.746953 0.232673
H26   H     H_    0.361321 0.991206 0.864438 0.137212
N1    N     N_R   0.501200 0.000000 0.147910 -0.192816
N2    N     N_R   0.001200 0.500000 0.147910 -0.192816
N3    N     N_R   0.501270 0.000000 0.852040 -0.192155
N4    N     N_R   0.001270 0.500000 0.852040 -0.192155
O1    O     O_R   0.409820 0.909830 0.618810 -0.567865
O2    O     O_R   0.590170 0.909830 0.618760 -0.608759
O3    O     O_R   0.090170 0.590170 0.618760 -0.615782
O4    O     O_R   0.090170 0.409830 0.618760 -0.608759
O5    O     O_R   0.590190 0.090180 0.381190 -0.558401
O6    O     O_R   0.590190 0.909820 0.381190 -0.547775
O7    O     O_R   0.090190 0.590180 0.381190 -0.558401
O8    O     O_R   0.090190 0.409820 0.381190 -0.547775
O9    O     O_R   0.409820 0.090170 0.618810 -0.575998
O10   O     O_R   0.909820 0.409830 0.618810 -0.567865
O11   O     O_R   0.909820 0.590170 0.618810 -0.575998
O12   O     O_R   0.409840 0.909830 0.381240 -0.586683
O13   O     O_R   0.409840 0.090170 0.381240 -0.584535
O14   O     O_R   0.909840 0.409830 0.381240 -0.586683
O15   O     O_R   0.909840 0.590170 0.381240 -0.584535
O16   O     O_R   0.590170 0.090170 0.618760 -0.615782

loop_
_geom_bond_atom_site_label_1
_geom_bond_atom_site_label_2
_ccdc_geom_bond_type
C60   C62   A    
Cu2   O4    S    
Cu1   N3    S    
C30   N4    A    
C28   O4    A    
C3    C45   A    
C8    C27   S    
C13   H19   S    
C5    C64   A    
C53   C58   A    
C26   O2    A    
C43   H6    S    
C38   F3    S    
C13   C15   A    
C18   C20   A    
C25   O16   A    
C51   C53   A    
C1    C59   S    
Br4   C35   S    
C28   O8    A    
C43   C48   A    
Cu1   O2    S    
C56   H12   S    
C11   C14   A    
Cu3   O5    S    
C3    H14   S    
C22   H16   S    
C41   H4    S    
C31   C36   A    
C3    C7    A    
C44   H7    S    
C23   C61   S    
C55   C60   A    
C17   H25   S    
Cu2   N4    S    
C22   C29   A    
C39   F4    S    
C27   O3    A    
C4    H15   S    
Br1   C31   S    
C15   H23   S    
C31   C53   A    
C10   C21   A    
Cu4   O15   S    
Cu2   O3    S    
Br3   C33   S    
Cu3   O12   S    
C34   C60   S    
C24   N2    A    
C4    C56   A    
C8    C52   A    
C20   N1    A    
C11   H18   S    
Cu1   O1    S    
C38   C40   A    
C45   H1    S    
C39   C41   A    
C42   C47   A    
C33   C55   A    
C57   C61   A    
C27   O7    A    
Cu1   O9    S    
Cu1   O16   S    
Cu2   Cu4   S    
C29   H26   S    
C4    C8    A    
C18   N3    A    
C2    C63   A    
C37   C43   A    
C9    C20   A    
C21   N2    A    
Cu3   O6    S    
C1    O1    A    
C61   C63   A    
C41   C46   A    
C24   H17   S    
Cu4   N2    S    
C40   H3    S    
Br2   C32   S    
Cu3   N1    S    
C14   H22   S    
C22   N1    A    
C2    C6    A    
Cu4   O8    S    
C23   O14   A    
C36   F1    S    
C50   C57   A    
C47   H9    S    
C2    H13   S    
C36   C42   A    
C12   O9    A    
C6    C50   A    
C32   C54   A    
C63   H21   S    
Cu4   O14   S    
C14   C16   A    
C54   C59   A    
Cu3   O13   S    
C15   C17   A    
C6    C25   S    
C30   H2    S    
C16   C18   A    
C64   H11   S    
C35   C57   A    
C5    C49   A    
Cu1   Cu3   S    
C48   C52   A    
C37   F2    S    
C9    C11   A    
C34   O15   A    
C47   C51   A    
C56   C59   A    
C1    O12   A    
C45   C58   A    
C5    C26   S    
C33   C38   A    
C19   C21   A    
C23   O10   A    
C40   C44   A    
C44   C49   A    
C16   H24   S    
C42   H5    S    
C24   C30   A    
C46   H8    S    
C32   C37   A    
C48   H10   S    
C12   C58   S    
C10   C13   A    
Cu4   O7    S    
C49   C55   A    
Cu2   O11   S    
C17   C19   A    
C62   H20   S    
Br5   C9    S    
C29   N3    A    
C12   O13   A    
Br6   C10   S    
C7    C28   S    
C34   O11   A    
C7    C51   A    
C62   C64   A    
Cu2   O10   S    
C35   C39   A    
C26   O6    A    
C52   C54   A    
C25   O5    A    
C46   C50   A    
C19   N4    A    
