data_mof_unit_40054.cif
_audit_creation_date              2012-12-10T20:07:01-0500
_audit_creation_method            fapswitch 2.2
_symmetry_space_group_name_H-M    P1
_symmetry_Int_Tables_number       1
_space_group_crystal_system       triclinic
_cell_length_a                    18.947777
_cell_length_b                    18.403396
_cell_length_c                    10.784965
_cell_angle_alpha                 89.958371
_cell_angle_beta                  90.353825
_cell_angle_gamma                 90.729213
_cell_volume                      3760.37735904

loop_
_atom_site_label
_atom_site_type_symbol
_atom_type_description
_atom_site_fract_x
_atom_site_fract_y
_atom_site_fract_z
_atom_type_partial_charge
C1    C     C_R   0.365376 0.499462 0.501787 0.899061
C2    C     C_R   0.634616 0.500525 0.500513 0.915942
C3    C     C_R   0.709069 0.501957 0.525323 0.021224
C4    C     C_R   0.291086 0.497706 0.527635 0.001857
C5    C     C_R   0.964607 0.562901 0.628891 -0.050745
C6    C     C_R   0.036002 0.429035 0.608822 -0.051420
C7    C     C_R   0.038659 0.562017 0.632893 -0.050187
C8    C     C_R   0.961932 0.429558 0.610703 -0.050095
C9    C     C_R   0.073749 0.495691 0.614659 -0.043570
C10   C     C_R   0.926850 0.496825 0.612560 -0.039479
C11   C     C_R   0.549209 0.725858 0.568504 0.047142
C12   C     C_R   0.448565 0.273626 0.561362 0.042377
C13   C     C_R   0.451410 0.725286 0.431220 0.047535
C14   C     C_R   0.551666 0.275237 0.438983 0.043005
C15   C     C_R   0.551905 0.802224 0.569485 -0.078587
C16   C     C_R   0.446693 0.197232 0.562528 -0.076589
C17   C     C_R   0.449733 0.801596 0.430400 -0.079083
C18   C     C_R   0.554326 0.199021 0.439283 -0.079219
C19   C     C_R   0.500944 0.841519 0.500187 0.003161
C20   C     C_R   0.500774 0.158500 0.501190 0.002005
C21   C     C_R   0.498185 0.961725 0.612752 -0.167022
C22   C     C_R   0.503447 0.038273 0.389028 -0.169133
C23   C     C_R   0.504445 0.962195 0.388817 -0.168669
C24   C     C_R   0.499307 0.037863 0.613136 -0.166297
C25   C     C_R   0.501295 0.077063 0.501205 0.103780
C26   C     C_R   0.501178 0.922968 0.500605 0.103222
C27   C     C_R   0.499797 0.500044 0.259698 0.927345
C28   C     C_R   0.499853 0.499923 0.740470 0.894563
C29   C     C_R   0.545648 0.630358 0.106983 -0.061142
C30   C     C_R   0.535942 0.366860 0.895560 -0.057537
C31   C     C_R   0.460359 0.631879 0.893182 -0.053124
C32   C     C_R   0.451486 0.370269 0.108210 0.025269
C33   C     C_R   0.528083 0.696520 0.050447 -0.225325
C34   C     C_R   0.513911 0.301863 0.952617 -0.241990
C35   C     C_R   0.481632 0.697329 0.949817 -0.237407
C36   C     C_R   0.468029 0.303626 0.052938 -0.255833
C37   C     C_R   0.488861 0.565689 0.939427 0.008570
C38   C     C_R   0.483912 0.434812 0.061056 0.034478
C39   C     C_R   0.513426 0.565297 0.060548 -0.017863
C40   C     C_R   0.508389 0.433698 0.940366 -0.036696
C41   C     C_R   0.499073 0.499715 0.873246 -0.238108
C42   C     C_R   0.498894 0.500120 0.127153 -0.193761
C43   C     C_R   0.755900 0.472587 0.440411 -0.168592
C44   C     C_R   0.244145 0.536105 0.453121 -0.207952
C45   C     C_R   0.267586 0.459486 0.632164 -0.117790
C46   C     C_R   0.732878 0.530004 0.638855 -0.123574
C47   C     C_R   0.827379 0.472296 0.468656 -0.154418
C48   C     C_R   0.172875 0.534543 0.481439 -0.146795
C49   C     C_R   0.196873 0.460735 0.663745 -0.140074
C50   C     C_R   0.803811 0.526403 0.669715 -0.140281
C51   C     C_R   0.851284 0.498167 0.584121 0.123894
C52   C     C_R   0.149269 0.497434 0.587420 0.131076
H1    H     H_    0.446351 0.252990 0.088198 0.173197
H2    H     H_    0.463041 0.749046 0.915459 0.162277
H3    H     H_    0.531647 0.249765 0.919019 0.167970
H4    H     H_    0.549254 0.747566 0.085273 0.163145
H5    H     H_    0.737242 0.450926 0.352578 0.143163
H6    H     H_    0.262481 0.565818 0.372497 0.145568
H7    H     H_    0.304349 0.430505 0.690947 0.133996
H8    H     H_    0.696199 0.552594 0.704747 0.135318
H9    H     H_    0.864114 0.451430 0.401291 0.131252
H10   H     H_    0.136009 0.562257 0.421186 0.130401
H11   H     H_    0.179053 0.432527 0.746208 0.132093
H12   H     H_    0.821835 0.546067 0.759232 0.134706
H13   H     H_    0.587518 0.695019 0.620830 0.123137
H14   H     H_    0.407998 0.304029 0.607929 0.124079
H15   H     H_    0.412905 0.694067 0.378335 0.127421
H16   H     H_    0.592021 0.306812 0.392013 0.128388
H17   H     H_    0.495184 0.932943 0.700206 0.144546
H18   H     H_    0.504421 0.066982 0.301372 0.143633
H19   H     H_    0.507448 0.933821 0.301125 0.144477
H20   H     H_    0.498211 0.066286 0.700964 0.144685
N1    N     N_R   0.500000 0.689440 0.500000 -0.092153
N2    N     N_R   0.500000 0.310560 0.500000 -0.094024
O1    O     O_R   0.398180 0.560840 0.499970 -0.588743
O2    O     O_R   0.601820 0.439160 0.500030 -0.604978
O3    O     O_R   0.601820 0.560840 0.500030 -0.606248
O4    O     O_R   0.398180 0.439160 0.499970 -0.625537
O5    O     O_R   0.499990 0.560810 0.316770 -0.624578
O6    O     O_R   0.500010 0.439190 0.683230 -0.621549
O7    O     O_R   0.500010 0.560810 0.683230 -0.630170
O8    O     O_R   0.499990 0.439190 0.316770 -0.634761
Zn1   Zn    Zn3+2 0.500000 0.581210 0.500000 1.006944
Zn2   Zn    Zn3+2 0.500000 0.418790 0.500000 0.993379
C53   C     C_2   0.604469 0.630395 0.199622 0.962578
O9    O     O_2   0.614313 0.683410 0.265870 -0.605254
O10   O     O_R   0.649968 0.571457 0.211602 -0.808391
H21   H     H_    0.642059 0.532506 0.146587 0.278168
C54   C     C_2   0.595878 0.363454 0.806916 0.973419
O11   O     O_2   0.602473 0.310094 0.740921 -0.609774
O12   O     O_R   0.646292 0.419379 0.799170 -0.800729
H22   H     H_    0.640418 0.458549 0.864011 0.278742
C55   C     C_2   0.400723 0.634011 0.802360 0.968501
O13   O     O_2   0.393325 0.687272 0.736134 -0.608097
O14   O     O_R   0.351530 0.576964 0.792594 -0.793008
H23   H     H_    0.357854 0.537786 0.857492 0.292502
C56   C     C_2   0.392154 0.372331 0.197544 0.933528
O15   O     O_2   0.376358 0.318278 0.257918 -0.653985
O16   O     O_R   0.352916 0.435731 0.209906 -0.835992
H24   H     H_    0.312372 0.429661 0.270046 0.328787
C57   C     C_R   0.926976 0.633141 0.636671 0.121021
C58   C     C_R   0.925428 0.671519 0.749083 -0.151505
C59   C     C_R   0.889375 0.737174 0.756758 -0.138015
C60   C     C_R   0.854812 0.764888 0.652427 -0.111616
C61   C     C_R   0.856341 0.727110 0.540147 -0.123938
C62   C     C_R   0.892454 0.661539 0.531973 -0.148243
H25   H     H_    0.951799 0.650345 0.830577 0.124120
H26   H     H_    0.888140 0.766533 0.843616 0.127177
H27   H     H_    0.827000 0.815696 0.658480 0.140007
H28   H     H_    0.829589 0.748677 0.459434 0.141223
H29   H     H_    0.893480 0.632794 0.444425 0.131844
C63   C     C_R   0.073772 0.359166 0.595661 0.127272
C64   C     C_R   0.075732 0.309666 0.694727 -0.154114
C65   C     C_R   0.112415 0.244580 0.683137 -0.136383
C66   C     C_R   0.147129 0.228506 0.572702 -0.102823
C67   C     C_R   0.145118 0.277374 0.473548 -0.131180
C68   C     C_R   0.108425 0.342437 0.484654 -0.155775
H30   H     H_    0.049311 0.321809 0.780891 0.122975
H31   H     H_    0.114070 0.206659 0.759823 0.125599
H32   H     H_    0.175456 0.178144 0.563818 0.137568
H33   H     H_    0.172006 0.264838 0.388087 0.140012
H34   H     H_    0.107146 0.379901 0.407205 0.126250
C69   C     C_R   0.080262 0.630503 0.650885 0.125977
C70   C     C_R   0.078264 0.686190 0.561707 -0.143212
C71   C     C_R   0.119873 0.748882 0.576857 -0.136052
C72   C     C_R   0.163975 0.756289 0.680552 -0.099434
C73   C     C_R   0.166451 0.701055 0.769416 -0.089000
C74   C     C_R   0.124779 0.638364 0.754802 -0.135185
H35   H     H_    0.045408 0.680493 0.479711 0.121858
H36   H     H_    0.118329 0.791502 0.507723 0.127543
H37   H     H_    0.196413 0.804703 0.691804 0.123735
H38   H     H_    0.200872 0.706692 0.849395 0.137127
H39   H     H_    0.127486 0.595708 0.823853 0.126275
C75   C     C_R   0.920377 0.360286 0.605647 0.127077
C76   C     C_R   0.922683 0.315327 0.500456 -0.147554
C77   C     C_R   0.880926 0.252209 0.494223 -0.133982
C78   C     C_R   0.836430 0.233677 0.592473 -0.103924
C79   C     C_R   0.833720 0.278166 0.697260 -0.101465
C80   C     C_R   0.875492 0.341246 0.703987 -0.136549
H40   H     H_    0.955828 0.329840 0.422627 0.122000
H41   H     H_    0.882645 0.217938 0.412806 0.129493
H42   H     H_    0.803886 0.184993 0.587231 0.127532
H43   H     H_    0.799015 0.263937 0.773078 0.140745
H44   H     H_    0.872542 0.375583 0.785267 0.127512
C81   C     C_R   0.609438 0.838638 0.640905 0.106423
C82   C     C_R   0.619414 0.822194 0.767054 -0.181121
C83   C     C_R   0.673386 0.856380 0.834987 -0.124228
C84   C     C_R   0.718031 0.906955 0.777528 -0.129961
C85   C     C_R   0.709101 0.923015 0.651808 -0.165893
C86   C     C_R   0.655315 0.888799 0.583372 -0.104062
H45   H     H_    0.585054 0.783389 0.812959 0.135751
H46   H     H_    0.680535 0.843697 0.932238 0.131845
H47   H     H_    0.759833 0.933360 0.830209 0.119663
H48   H     H_    0.744169 0.961679 0.607312 0.117864
H49   H     H_    0.649569 0.901271 0.485708 0.136308
C87   C     C_R   0.386916 0.160313 0.625965 0.107475
C88   C     C_R   0.371764 0.177090 0.750079 -0.180008
C89   C     C_R   0.315242 0.142910 0.810194 -0.124434
C90   C     C_R   0.273305 0.091929 0.746988 -0.124615
C91   C     C_R   0.287621 0.075282 0.623369 -0.169382
C92   C     C_R   0.343864 0.109600 0.562598 -0.107470
H50   H     H_    0.404014 0.216223 0.800484 0.135893
H51   H     H_    0.304006 0.155916 0.905861 0.130144
H52   H     H_    0.229531 0.065541 0.793628 0.117391
H53   H     H_    0.254733 0.036181 0.574439 0.116932
H54   H     H_    0.353656 0.096827 0.466268 0.136053
C93   C     C_R   0.393120 0.837305 0.358089 0.107079
C94   C     C_R   0.385158 0.822596 0.230863 -0.183666
C95   C     C_R   0.331901 0.856064 0.162088 -0.129984
C96   C     C_R   0.285951 0.904038 0.219837 -0.112285
C97   C     C_R   0.293025 0.918421 0.346551 -0.154166
C98   C     C_R   0.346229 0.885092 0.415750 -0.106092
H55   H     H_    0.420560 0.785748 0.184843 0.137543
H56   H     H_    0.326284 0.844810 0.063997 0.129669
H57   H     H_    0.244729 0.929909 0.166476 0.117939
H58   H     H_    0.257099 0.955242 0.391119 0.115138
H59   H     H_    0.350735 0.896340 0.514067 0.134156
C99   C     C_R   0.614899 0.164180 0.377929 0.112247
C100  C     C_R   0.628741 0.178203 0.252227 -0.185639
C101  C     C_R   0.686563 0.146476 0.194499 -0.127335
C102  C     C_R   0.731214 0.101043 0.261902 -0.114014
C103  C     C_R   0.718142 0.087283 0.387166 -0.163376
C104  C     C_R   0.660279 0.118730 0.445270 -0.106665
H60   H     H_    0.594533 0.213319 0.198908 0.132953
H61   H     H_    0.696822 0.157224 0.097542 0.128322
H62   H     H_    0.776072 0.076679 0.217166 0.117186
H63   H     H_    0.753123 0.052559 0.439320 0.114851
H64   H     H_    0.651192 0.108162 0.542723 0.134403

loop_
_geom_bond_atom_site_label_1
_geom_bond_atom_site_label_2
_ccdc_geom_bond_type
C98   H59   S    
C38   C40   A    
C97   C98   A    
C72   C73   A    
C49   H11   S    
C12   N2    A    
C50   H12   S    
C95   C96   A    
C14   C18   A    
O14   H23   S    
C21   C26   A    
O2    Zn2   S    
C6    C9    A    
C56   O15   D    
C69   C70   A    
C53   O9    D    
C32   C56   S    
C15   C19   A    
C3    C43   A    
C88   C89   A    
C32   C36   A    
C87   C88   A    
C61   H28   S    
C38   C42   A    
C27   O5    A    
C79   H43   S    
C81   C82   A    
C60   H27   S    
C20   C25   S    
O3    Zn1   S    
C66   C67   A    
C29   C33   A    
C28   C41   S    
C67   C68   A    
C18   C20   A    
C23   C26   A    
C19   C26   S    
C103  C104  A    
C63   C64   A    
C36   H1    S    
C83   C84   A    
C56   O16   S    
C73   H38   S    
C11   C15   A    
C71   H36   S    
C45   H7    S    
C12   C16   A    
C44   H6    S    
C22   C25   A    
C16   C87   S    
C95   H56   S    
C59   H26   S    
C32   C38   A    
C54   O12   S    
C29   C53   S    
C99   C104  A    
O6    Zn2   S    
C62   H29   S    
C33   H4    S    
C71   C72   A    
C34   H3    S    
C55   O14   S    
C85   H48   S    
C35   H2    S    
C1    O4    A    
C94   H55   S    
C9    C52   S    
C74   H39   S    
C30   C54   S    
C10   C51   S    
C60   C61   A    
O7    Zn1   S    
C93   C94   A    
C65   C66   A    
C39   C42   A    
C96   H57   S    
C53   O10   S    
C31   C37   A    
C76   H40   S    
C5    C57   S    
C78   H42   S    
C67   H33   S    
C30   C34   A    
C8    C75   S    
C4    C45   A    
C1    O1    A    
C57   C58   A    
C99   C100  A    
C76   C77   A    
C84   C85   A    
C64   C65   A    
C17   C93   S    
N2    Zn2   S    
O12   H22   S    
C5    C7    A    
C17   C19   A    
C6    C8    A    
C4    C44   A    
C31   C55   S    
C12   H14   S    
C82   H45   S    
C21   H17   S    
C102  C103  A    
C97   H58   S    
C68   H34   S    
C77   H41   S    
C23   H19   S    
C80   H44   S    
C48   H10   S    
C90   C91   A    
C45   C49   A    
C16   C20   A    
C49   C52   A    
C29   C39   A    
C50   C51   A    
C30   C40   A    
C58   H25   S    
C55   O13   D    
C91   H53   S    
C24   C25   A    
C93   C98   A    
C89   H51   S    
C11   H13   S    
C40   C41   A    
C13   N1    A    
C87   C92   A    
O8    Zn2   S    
C86   H49   S    
C11   N1    A    
C89   C90   A    
C31   C35   A    
C21   C24   A    
C84   H47   S    
C73   C74   A    
C14   N2    A    
C75   C80   A    
C2    O2    A    
C101  C102  A    
C24   H20   S    
C15   C81   S    
C82   C83   A    
C78   C79   A    
C57   C62   A    
C7    C9    A    
C94   C95   A    
C46   H8    S    
C28   O7    A    
C90   H52   S    
C6    C63   S    
C27   O8    A    
C13   H15   S    
C81   C86   A    
C7    C69   S    
C77   C78   A    
C47   H9    S    
C47   C51   A    
C102  H62   S    
C75   C76   A    
C100  C101  A    
C61   C62   A    
C46   C50   A    
C3    C46   A    
O16   H24   S    
C13   C17   A    
C1    C4    S    
C91   C92   A    
C83   H46   S    
C5    C10   A    
C37   C39   A    
C2    O3    A    
C104  H64   S    
O5    Zn1   S    
C27   C42   S    
O1    Zn1   S    
C69   C74   A    
C63   C68   A    
C65   H31   S    
C72   H37   S    
C33   C35   A    
C22   H18   S    
C70   H35   S    
C2    C3    S    
C34   C36   A    
C103  H63   S    
C37   C41   A    
C58   C59   A    
C28   O6    A    
C79   C80   A    
C43   H5    S    
C92   H54   S    
C64   H30   S    
C100  H60   S    
O4    Zn2   S    
C48   C52   A    
C18   C99   S    
O10   H21   S    
C8    C10   A    
C66   H32   S    
C96   C97   A    
C101  H61   S    
C59   C60   A    
C14   H16   S    
C22   C23   A    
C54   O11   D    
C85   C86   A    
C43   C47   A    
C88   H50   S    
N1    Zn1   S    
C44   C48   A    
C70   C71   A    
