data_mof_unit_31457.cif
_audit_creation_date              2012-12-10T18:02:06-0500
_audit_creation_method            fapswitch 2.2
_symmetry_space_group_name_H-M    P1
_symmetry_Int_Tables_number       1
_space_group_crystal_system       triclinic
_cell_length_a                    10.842184
_cell_length_b                    9.626619
_cell_length_c                    23.521529
_cell_angle_alpha                 89.67759
_cell_angle_beta                  90.35515
_cell_angle_gamma                 88.540049
_cell_volume                      2454.14086139

loop_
_atom_site_label
_atom_site_type_symbol
_atom_type_description
_atom_site_fract_x
_atom_site_fract_y
_atom_site_fract_z
_atom_type_partial_charge
C1    C     C_R   0.261994 0.502501 0.501138 0.740443
C2    C     C_R   0.736960 0.498106 0.494148 0.750376
C3    C     C_R   0.567697 0.388124 0.241579 0.027783
C4    C     C_R   0.454813 0.384768 0.759899 0.024454
C5    C     C_R   0.567020 0.397046 0.301008 -0.178502
C6    C     C_R   0.450215 0.393633 0.700479 -0.178949
C7    C     C_R   0.493939 0.497698 0.328786 -0.160770
C8    C     C_R   0.515232 0.495347 0.671044 -0.164863
C9    C     C_R   0.416430 0.588647 0.296601 -0.102898
C10   C     C_R   0.591212 0.586507 0.701512 -0.078803
C11   C     C_R   0.425955 0.588139 0.237276 -0.072862
C12   C     C_R   0.586950 0.585299 0.761028 -0.084015
C13   C     C_R   0.500032 0.488683 0.209329 0.215605
C14   C     C_R   0.519456 0.485985 0.790577 0.212526
C15   C     C_R   0.062621 0.390879 0.518967 0.002595
C16   C     C_R   0.931465 0.617427 0.469307 -0.018758
C17   C     C_R   0.942000 0.373973 0.499204 -0.002169
C18   C     C_R   0.060482 0.623171 0.474928 -0.032265
C19   C     C_R   0.871358 0.494630 0.485254 -0.270640
C20   C     C_R   0.126532 0.508651 0.500442 -0.254491
C21   C     C_R   0.457989 0.076500 0.454163 0.358909
C22   C     C_R   0.522437 0.926851 0.548673 0.359963
C23   C     C_R   0.539860 0.072687 0.546320 0.358565
C24   C     C_R   0.474538 0.929555 0.451454 0.345617
C25   C     C_R   0.497038 0.499978 0.391252 0.753479
C26   C     C_R   0.505337 0.499169 0.608690 0.774439
C27   C     C_R   0.625847 0.482730 0.881992 0.536191
C28   C     C_R   0.395094 0.481381 0.117833 0.535827
C29   C     C_R   0.405820 0.504285 0.879149 0.522046
C30   C     C_R   0.613970 0.504625 0.120752 0.520099
C31   C     C_R   0.400634 0.499701 0.938645 -0.016601
C32   C     C_R   0.619527 0.500091 0.061235 -0.015603
C33   C     C_R   0.511643 0.495032 0.969966 -0.017906
C34   C     C_R   0.508809 0.494806 0.029892 -0.017591
C35   C     C_R   0.625456 0.490597 0.941529 -0.012420
C36   C     C_R   0.395220 0.489277 0.058305 -0.012331
C37   C     C_R   0.287484 0.499069 0.967422 -0.152254
C38   C     C_R   0.732682 0.500513 0.032433 -0.152069
C39   C     C_R   0.284858 0.491132 0.026640 -0.152972
C40   C     C_R   0.735704 0.493091 0.973208 -0.153462
Cu1   Cu    Cu3+1 0.500000 0.640660 0.500000 0.980344
Cu2   Cu    Cu3+1 0.500000 0.359340 0.500000 0.992532
H1    H     H_    0.200760 0.501826 0.944284 0.194484
H2    H     H_    0.819238 0.503812 0.055567 0.194630
H3    H     H_    0.196166 0.488169 0.047494 0.192876
H4    H     H_    0.824515 0.490919 0.952354 0.192528
H5    H     H_    0.621993 0.323304 0.326065 0.190758
H6    H     H_    0.396862 0.319548 0.676762 0.197745
H7    H     H_    0.371827 0.662216 0.212080 0.195049
H8    H     H_    0.639002 0.659862 0.785028 0.199822
N1    N     N_R   0.516974 0.490024 0.851867 -0.473316
N2    N     N_R   0.503391 0.490154 0.148020 -0.474683
N3    N     N_R   0.500000 0.852070 0.500000 -0.277356
N4    N     N_R   0.500000 0.147930 0.500000 -0.276445
O1    O     O_R   0.319640 0.618740 0.500000 -0.598125
O2    O     O_R   0.680360 0.381260 0.500000 -0.591542
O3    O     O_R   0.680360 0.618740 0.500000 -0.573487
O4    O     O_R   0.319640 0.381260 0.500000 -0.579400
O5    O     O_R   0.499960 0.618810 0.417880 -0.557532
O6    O     O_R   0.500040 0.381190 0.582120 -0.515499
O7    O     O_R   0.500040 0.618810 0.582120 -0.543425
O8    O     O_R   0.499960 0.381190 0.417880 -0.514131
O9    O     O_2   0.734119 0.466856 0.854495 -0.523471
O10   O     O_2   0.287577 0.464282 0.145310 -0.521246
O11   O     O_2   0.300587 0.522478 0.848762 -0.516055
O12   O     O_2   0.718182 0.523242 0.151134 -0.516443
C41   C     C_2   0.635875 0.271507 0.213894 0.431546
H9    H     H_    0.619819 0.248213 0.169445 0.077181
O13   O     O_2   0.710985 0.199690 0.240437 -0.542647
C42   C     C_2   0.394340 0.268292 0.789358 0.434403
H10   H     H_    0.415970 0.244534 0.833489 0.074425
O14   O     O_2   0.319167 0.197538 0.764748 -0.546430
C43   C     C_2   0.317993 0.674784 0.323650 0.471390
H11   H     H_    0.299531 0.663912 0.368556 0.117483
O15   O     O_2   0.253880 0.756516 0.295804 -0.504519
C44   C     C_2   0.681376 0.676140 0.672527 0.447452
H12   H     H_    0.702794 0.661450 0.627982 0.101425
O16   O     O_2   0.735043 0.766383 0.698429 -0.543751
C45   C     C_2   0.115454 0.296241 0.564170 0.420136
H13   H     H_    0.207394 0.310383 0.581084 0.075185
O17   O     O_2   0.053462 0.207249 0.586509 -0.526208
C46   C     C_2   0.859617 0.735324 0.442880 0.507289
H14   H     H_    0.788579 0.714208 0.411682 0.025386
O18   O     O_2   0.875445 0.855105 0.457436 -0.516196
C47   C     C_2   0.901511 0.233312 0.481349 0.415657
H15   H     H_    0.814261 0.219548 0.459823 0.092877
O19   O     O_2   0.970031 0.131172 0.485812 -0.492221
C48   C     C_2   0.123083 0.750203 0.454867 0.461529
H16   H     H_    0.181057 0.808213 0.483454 0.084464
O20   O     O_2   0.106753 0.793571 0.406465 -0.522452
O21   O     O_3   0.405168 0.148018 0.408917 -0.549540
C49   C     C_3   0.276448 0.129048 0.409273 0.118872
H17   H     H_    0.236501 0.143954 0.452497 0.155270
H18   H     H_    0.254946 0.023310 0.393901 0.212979
C50   C     C_3   0.214675 0.235128 0.369480 -0.682068
H19   H     H_    0.250657 0.221889 0.325676 0.250738
H20   H     H_    0.113386 0.220635 0.369019 0.225445
H21   H     H_    0.233411 0.342101 0.384105 0.223791
O22   O     O_3   0.521262 0.864953 0.601533 -0.560451
C51   C     C_3   0.405729 0.893507 0.627826 0.099153
H22   H     H_    0.349733 0.798547 0.626642 0.167355
H23   H     H_    0.348986 0.978962 0.607445 0.121455
C52   C     C_3   0.426290 0.933006 0.689620 -0.670963
H24   H     H_    0.480863 0.028850 0.692103 0.267295
H25   H     H_    0.335834 0.951859 0.710406 0.241510
H26   H     H_    0.476032 0.848061 0.712804 0.244826
O23   O     O_3   0.579654 0.140659 0.594259 -0.550524
C53   C     C_3   0.705164 0.106647 0.604753 0.108022
H27   H     H_    0.761194 0.112332 0.565337 0.160429
H28   H     H_    0.715314 0.000574 0.623352 0.208001
C54   C     C_3   0.756062 0.209406 0.647241 -0.672495
H29   H     H_    0.700346 0.208804 0.686718 0.240677
H30   H     H_    0.853074 0.180201 0.658128 0.250667
H31   H     H_    0.753171 0.315798 0.628653 0.226592
O24   O     O_3   0.461212 0.867365 0.399200 -0.560640
C55   C     C_3   0.566956 0.891606 0.365324 0.121932
H32   H     H_    0.611476 0.789889 0.355063 0.160673
H33   H     H_    0.639460 0.954975 0.386055 0.131355
C56   C     C_3   0.529657 0.961201 0.309223 -0.717815
H34   H     H_    0.495808 0.069289 0.316220 0.271217
H35   H     H_    0.610912 0.963941 0.280823 0.236777
H36   H     H_    0.456675 0.902354 0.287646 0.261727

loop_
_geom_bond_atom_site_label_1
_geom_bond_atom_site_label_2
_ccdc_geom_bond_type
C38   C40   A    
C8    C26   S    
Cu1   Cu2   S    
C50   H19   S    
Cu1   O7    S    
Cu2   O4    S    
C4    C42   S    
C50   H21   S    
C47   H15   S    
C53   H27   S    
C40   H4    S    
C5    H5    S    
C6    H6    S    
C17   C47   S    
C49   H17   S    
C26   O7    A    
C44   O16   D    
C29   N1    A    
C21   N4    A    
C33   C35   A    
O24   C55   S    
C11   C13   A    
C55   H32   S    
C15   C17   A    
C43   H11   S    
Cu1   O1    S    
Cu2   O2    S    
C10   C44   S    
C15   C45   S    
C14   N1    S    
C53   H28   S    
O23   C53   S    
C31   C33   A    
C42   H10   S    
C32   C38   A    
C52   H26   S    
Cu2   O8    S    
C18   C20   A    
C3    C13   A    
C39   H3    S    
C47   O19   D    
C43   O15   D    
C9    C43   S    
C51   H23   S    
C27   N1    A    
C22   N3    A    
C56   H35   S    
C15   C20   A    
C2    O3    A    
C41   H9    S    
C55   C56   S    
C44   H12   S    
Cu1   O5    S    
C52   H25   S    
Cu2   O6    S    
O21   C49   S    
C45   O17   D    
C6    C8    A    
C27   C35   A    
C24   N3    A    
C49   C50   S    
C18   C48   S    
C31   C37   A    
C41   O13   D    
C32   C34   A    
C37   H1    S    
C38   H2    S    
C11   H7    S    
C13   N2    S    
O22   C51   S    
C29   C31   A    
C23   O23   S    
C16   C46   S    
C33   C34   A    
C54   H30   S    
C16   C18   A    
C9    C11   A    
Cu1   N3    S    
C30   O12   S    
C10   C12   A    
C29   O11   S    
C28   O10   S    
C4    C6    A    
C12   C14   A    
C46   O18   D    
C23   N4    A    
C5    C7    A    
C21   O21   S    
C56   H36   S    
C7    C9    A    
C30   N2    A    
C1    C20   S    
C22   O22   S    
C54   H29   S    
C2    C19   S    
C36   C39   A    
C3    C41   S    
C48   O20   D    
C3    C5    A    
C12   H8    S    
C56   H34   S    
C50   H20   S    
C7    C25   S    
C53   C54   S    
C35   C40   A    
C1    O1    A    
Cu1   O3    S    
C37   C39   A    
C2    O2    A    
C1    O4    A    
Cu2   N4    S    
C30   C32   A    
C28   N2    A    
C49   H18   S    
C16   C19   A    
C51   H22   S    
C17   C19   A    
C55   H33   S    
C54   H31   S    
C34   C36   A    
C25   O8    A    
C51   C52   S    
C4    C14   A    
C45   H13   S    
C48   H16   S    
C28   C36   A    
C24   O24   S    
C8    C10   A    
C46   H14   S    
C21   C24   A    
C52   H24   S    
C22   C23   A    
C27   O9    S    
C42   O14   D    
C25   O5    A    
C26   O6    A    
