data_mof_unit_21564.cif
_audit_creation_date              2012-12-10T18:42:32-0500
_audit_creation_method            fapswitch 2.2
_symmetry_space_group_name_H-M    P1
_symmetry_Int_Tables_number       1
_space_group_crystal_system       triclinic
_cell_length_a                    8.634805
_cell_length_b                    10.675252
_cell_length_c                    9.834755
_cell_angle_alpha                 90.249836
_cell_angle_beta                  98.808664
_cell_angle_gamma                 90.190783
_cell_volume                      895.84667079

loop_
_atom_site_label
_atom_site_type_symbol
_atom_type_description
_atom_site_fract_x
_atom_site_fract_y
_atom_site_fract_z
_atom_type_partial_charge
C1    C     C_R   0.499466 0.260617 0.499553 0.879942
C2    C     C_R   0.500204 0.739734 0.500415 0.849297
C3    C     C_R   0.202239 0.513336 0.464584 0.931150
C4    C     C_R   0.798034 0.513100 0.535717 0.931464
C5    C     C_2   0.039275 0.543510 0.445275 -0.037808
C6    C     C_2   0.961526 0.543059 0.556039 -0.058118
C7    C     C_R   0.629264 0.066388 0.460725 -0.055369
C8    C     C_R   0.370261 0.934980 0.538712 -0.043040
C9    C     C_R   0.632537 0.935979 0.465750 0.164532
C10   C     C_R   0.367588 0.065444 0.535313 0.161214
C11   C     C_R   0.501144 0.872592 0.501490 -0.160882
C12   C     C_R   0.498588 0.128381 0.498582 -0.171482
C13   C     C_R   0.574327 0.592888 0.082252 -0.063931
C14   C     C_R   0.424255 0.407783 0.917452 -0.066147
C15   C     C_R   0.574952 0.592537 0.938472 -0.053185
C16   C     C_R   0.424531 0.407700 0.061412 -0.049340
H1    H     H_    0.632726 0.667714 0.144704 0.133992
H2    H     H_    0.363421 0.334209 0.854426 0.137808
H3    H     H_    0.635050 0.666447 0.892347 0.139242
H4    H     H_    0.364037 0.333998 0.107476 0.143991
N1    N     N_R   0.499960 0.499970 0.857200 -0.084570
N2    N     N_R   0.500040 0.500030 0.142800 -0.084575
O1    O     O_R   0.499990 0.316750 0.614620 -0.609860
O2    O     O_R   0.500010 0.683250 0.385380 -0.621131
O3    O     O_R   0.499990 0.316780 0.385290 -0.615469
O4    O     O_R   0.500010 0.683220 0.614710 -0.626219
O5    O     O_R   0.271750 0.499990 0.587840 -0.632692
O6    O     O_R   0.728250 0.500010 0.412160 -0.622191
O7    O     O_R   0.271750 0.500010 0.358510 -0.613211
O8    O     O_R   0.728250 0.499990 0.641490 -0.616657
Zn1   Zn    Zn3+2 0.500000 0.499980 0.653120 0.945007
Zn2   Zn    Zn3+2 0.500000 0.500020 0.346880 0.949721
C17   C     C_3   0.964937 0.573588 0.298245 -0.853306
H5    H     H_    0.051655 0.613613 0.237806 0.241287
H6    H     H_    0.914697 0.487584 0.244467 0.269721
H7    H     H_    0.874869 0.647233 0.297232 0.239820
C18   C     C_3   0.036399 0.569845 0.704379 -0.803374
H8    H     H_    0.950757 0.610892 0.765286 0.239817
H9    H     H_    0.082023 0.481977 0.755497 0.243647
H10   H     H_    0.130420 0.641420 0.709317 0.274697
C19   C     C_2   0.763204 0.139769 0.421097 0.425758
H11   H     H_    0.797893 0.228173 0.471829 0.051082
O9    O     O_2   0.831816 0.104759 0.328166 -0.577469
C20   C     C_2   0.234875 0.862217 0.575143 0.408510
H12   H     H_    0.197315 0.777056 0.519327 0.044166
O10   O     O_2   0.167807 0.894506 0.670095 -0.585754
C21   C     C_3   0.779377 0.866437 0.442133 -0.775910
H13   H     H_    0.783759 0.769474 0.481143 0.204660
H14   H     H_    0.787001 0.864010 0.330542 0.253887
H15   H     H_    0.884991 0.913300 0.498692 0.261504
C22   C     C_3   0.221813 0.135684 0.562067 -0.768073
H16   H     H_    0.218420 0.234583 0.528324 0.210490
H17   H     H_    0.115439 0.091355 0.503642 0.255713
H18   H     H_    0.214092 0.134318 0.673664 0.257641

loop_
_geom_bond_atom_site_label_1
_geom_bond_atom_site_label_2
_ccdc_geom_bond_type
C15   H3    S    
O2    Zn2   S    
C9    C21   S    
C18   H8    S    
C21   H15   S    
N1    Zn1   S    
C19   H11   S    
C14   H2    S    
C21   H13   S    
C13   C15   A    
C13   H1    S    
C16   H4    S    
C22   H18   S    
C3    C5    S    
O3    Zn2   S    
C3    O5    A    
C17   H5    S    
C6    C18   S    
O4    Zn1   S    
C2    O4    A    
C1    O3    A    
C19   O9    D    
C9    C11   A    
C7    C12   A    
C1    C12   S    
N2    Zn2   S    
C8    C11   A    
C5    C6    D    
C10   C22   S    
C10   C12   A    
C14   N1    A    
C21   H14   S    
C17   H6    S    
C20   O10   D    
C13   N2    A    
C1    O1    A    
O7    Zn2   S    
C7    C19   S    
C2    O2    A    
O8    Zn1   S    
C14   C16   A    
C15   N1    A    
C4    C6    S    
C2    C11   S    
O5    Zn1   S    
C18   H10   S    
C8    C20   S    
O6    Zn2   S    
C17   H7    S    
C20   H12   S    
C18   H9    S    
C7    C9    A    
C3    O7    A    
C16   N2    A    
C4    O6    A    
C8    C10   A    
C4    O8    A    
C22   H16   S    
O1    Zn1   S    
C22   H17   S    
C5    C17   S    
