data_mof_unit_25687.cif
_audit_creation_date              2012-12-10T17:51:23-0500
_audit_creation_method            fapswitch 2.2
_symmetry_space_group_name_H-M    P1
_symmetry_Int_Tables_number       1
_space_group_crystal_system       triclinic
_cell_length_a                    9.973471
_cell_length_b                    10.608891
_cell_length_c                    16.705817
_cell_angle_alpha                 92.416957
_cell_angle_beta                  84.466601
_cell_angle_gamma                 91.445367
_cell_volume                      1757.40042935

loop_
_atom_site_label
_atom_site_type_symbol
_atom_type_description
_atom_site_fract_x
_atom_site_fract_y
_atom_site_fract_z
_atom_type_partial_charge
C1    C     C_R   0.501055 0.739261 0.501108 0.888423
C2    C     C_R   0.530607 0.481362 0.259592 -0.104763
C3    C     C_R   0.396497 0.876159 0.646177 -0.181873
C4    C     C_R   0.480442 0.493227 0.652739 0.874213
C5    C     C_R   0.338781 0.944604 0.713331 -0.144525
C6    C     C_R   0.328724 0.075022 0.711139 -0.122205
C7    C     C_R   0.377992 0.137359 0.642160 -0.181206
C8    C     C_R   0.437027 0.069206 0.573658 0.080684
C9    C     C_R   0.443278 0.937646 0.575027 0.084215
C10   C     C_R   0.502273 0.872001 0.505870 -0.097213
C11   C     C_R   0.560193 0.932964 0.438698 -0.234481
C12   C     C_R   0.343926 0.457635 0.782537 -0.361843
C13   C     C_R   0.556862 0.061735 0.438046 -0.218447
C14   C     C_R   0.494608 0.128520 0.504241 -0.088432
C15   C     C_R   0.851513 0.634172 0.627818 0.611077
C16   C     C_R   0.498407 0.260797 0.500518 0.853009
C17   C     C_R   0.914262 0.661312 0.698412 -0.276395
C18   C     C_R   0.052994 0.664618 0.694611 -0.324382
C19   C     C_R   0.126472 0.627481 0.623429 -0.111038
C20   C     C_R   0.065060 0.562300 0.561479 0.093402
C21   C     C_R   0.921119 0.564015 0.562123 -0.074579
C22   C     C_R   0.935777 0.436625 0.441663 0.564858
C23   C     C_R   0.417963 0.465810 0.136862 0.572033
C24   C     C_R   0.079452 0.439466 0.441094 -0.227440
C25   C     C_R   0.519388 0.498424 0.346774 0.878456
C26   C     C_R   0.467353 0.451058 0.734946 -0.092755
C27   C     C_R   0.574467 0.386714 0.761579 -0.191560
C28   C     C_R   0.560952 0.334670 0.836247 -0.260974
C29   C     C_R   0.442354 0.350994 0.887202 0.073329
C30   C     C_R   0.330865 0.410346 0.860613 0.590096
C31   C     C_3   0.894305 0.245025 0.380886 -0.345590
C32   C     C_3   0.782983 0.829002 0.601620 -0.300909
C33   C     C_3   0.141938 0.529062 0.904741 -0.300188
C34   C     C_R   0.417515 0.500659 0.218507 -0.317734
C35   C     C_3   0.188498 0.442231 0.130916 -0.325867
C36   C     C_R   0.648693 0.434540 0.218070 -0.197563
C37   C     C_R   0.651849 0.402821 0.136539 -0.266851
C38   C     C_R   0.536589 0.415264 0.096263 0.085801
C39   C     C_2   0.445448 0.332170 0.973067 -0.122706
C40   C     C_2   0.547193 0.385714 0.009937 -0.221128
H1    H     H_    0.668684 0.374776 0.724275 0.167044
H2    H     H_    0.229782 0.654852 0.617027 0.206426
H3    H     H_    0.140363 0.392259 0.392312 0.159367
H4    H     H_    0.637437 0.420479 0.975267 0.155250
H5    H     H_    0.259476 0.500012 0.758761 0.169123
H6    H     H_    0.355010 0.298112 0.007657 0.200445
H7    H     H_    0.646119 0.287495 0.856290 0.159855
H8    H     H_    0.370342 0.238701 0.643329 0.153693
H9    H     H_    0.863695 0.207506 0.441394 0.177178
H10   H     H_    0.000401 0.221112 0.360825 0.151058
H11   H     H_    0.830266 0.196774 0.337777 0.184781
H12   H     H_    0.743795 0.366571 0.104933 0.156858
H13   H     H_    0.830761 0.833402 0.538790 0.173737
H14   H     H_    0.852695 0.870923 0.644166 0.149290
H15   H     H_    0.694670 0.890437 0.608267 0.190134
H16   H     H_    0.103349 0.707000 0.744008 0.162712
H17   H     H_    0.737277 0.419413 0.248808 0.209224
H18   H     H_    0.210512 0.613518 0.900078 0.163992
H19   H     H_    0.071385 0.544170 0.959599 0.191129
H20   H     H_    0.080041 0.519788 0.852906 0.163329
H21   H     H_    0.144956 0.507199 0.179924 0.170508
H22   H     H_    0.200758 0.346397 0.153820 0.143958
H23   H     H_    0.606032 0.880463 0.386431 0.146822
H24   H     H_    0.114722 0.432495 0.085355 0.213694
H25   H     H_    0.408049 0.775905 0.651229 0.130168
H26   H     H_    0.303084 0.896478 0.767428 0.129609
H27   H     H_    0.284493 0.128292 0.763376 0.145871
H28   H     H_    0.601222 0.109608 0.385506 0.145316
H29   H     H_    0.857926 0.705470 0.750375 0.166930
H30   H     H_    0.328865 0.542915 0.250101 0.169173
N1    N     N_R   0.857140 0.501200 0.500750 -0.148728
N2    N     N_R   0.142740 0.501280 0.500770 -0.125021
O1    O     O_R   0.385310 0.683220 0.500000 -0.636519
O2    O     O_3   0.739959 0.703533 0.618719 -0.577243
O3    O     O_3   0.212319 0.416935 0.912123 -0.616406
O4    O     O_3   0.310282 0.493193 0.094008 -0.596201
O5    O     O_R   0.614640 0.683250 0.500010 -0.558780
O6    O     O_R   0.371780 0.500010 0.615800 -0.653198
O7    O     O_R   0.601110 0.500030 0.615800 -0.580856
O8    O     O_R   0.385360 0.316750 0.499990 -0.614735
O9    O     O_R   0.614690 0.316780 0.500000 -0.603810
O10   O     O_R   0.398890 0.499970 0.384200 -0.621513
O11   O     O_R   0.628220 0.499990 0.384200 -0.570673
O12   O     O_3   0.874403 0.376042 0.379613 -0.600098
Zn1   Zn    Zn3+2 0.346870 0.499980 0.499990 0.933494
Zn2   Zn    Zn3+2 0.653130 0.500020 0.500010 1.006669

loop_
_geom_bond_atom_site_label_1
_geom_bond_atom_site_label_2
_ccdc_geom_bond_type
C28   H7    S    
C17   H29   S    
C33   H18   S    
C1    O5    A    
C32   H13   S    
C19   C20   A    
C23   O4    S    
O8    Zn1   S    
N2    Zn1   S    
C7    C8    A    
C26   C27   A    
C29   C30   A    
C21   N1    A    
C36   C37   A    
C11   H23   S    
C32   O2    S    
C5    C6    A    
C18   C19   A    
C33   O3    S    
C8    C9    A    
C35   H24   S    
C2    C25   S    
C9    C10   A    
C34   H30   S    
C32   H15   S    
O9    Zn2   S    
C19   H2    S    
C18   H16   S    
C2    C34   A    
C33   H19   S    
C13   C14   A    
C3    H25   S    
C31   H9    S    
C32   H14   S    
C35   O4    S    
C4    O7    A    
C36   H17   S    
C39   C40   D    
C37   H12   S    
C12   H5    S    
C31   O12   S    
C12   C26   A    
C16   O8    A    
C22   O12   S    
C4    O6    A    
C37   C38   A    
C3    C9    A    
N1    Zn2   S    
C27   H1    S    
C40   H4    S    
C23   C34   A    
C29   C39   S    
C17   C18   A    
C35   H21   S    
O1    Zn1   S    
C39   H6    S    
O6    Zn1   S    
C6    H27   S    
O5    Zn2   S    
C33   H20   S    
C25   O10   A    
C22   C24   A    
C31   H10   S    
O10   Zn1   S    
C22   N1    A    
C24   N2    A    
C2    C36   A    
C15   C17   A    
C28   C29   A    
C8    C14   A    
C12   C30   A    
C1    C10   S    
C31   H11   S    
C5    H26   S    
C3    C5    A    
C4    C26   S    
C6    C7    A    
C23   C38   A    
C1    O1    A    
C7    H8    S    
O11   Zn2   S    
C38   C40   S    
C30   O3    S    
C11   C13   A    
C16   O9    A    
C35   H22   S    
C14   C16   S    
C10   C11   A    
C15   C21   A    
C15   O2    S    
C20   C21   A    
C27   C28   A    
C25   O11   A    
C24   H3    S    
C20   N2    A    
O7    Zn2   S    
C13   H28   S    
