data_mof_unit_56027.cif
_audit_creation_date              2012-12-11T15:39:36-0500
_audit_creation_method            fapswitch 2.2
_symmetry_space_group_name_H-M    P1
_symmetry_Int_Tables_number       1
_space_group_crystal_system       triclinic
_cell_length_a                    17.388123
_cell_length_b                    24.511698
_cell_length_c                    14.943407
_cell_angle_alpha                 90.032022
_cell_angle_beta                  126.232705
_cell_angle_gamma                 90.299455
_cell_volume                      5137.31250184

loop_
_atom_site_label
_atom_site_type_symbol
_atom_type_description
_atom_site_fract_x
_atom_site_fract_y
_atom_site_fract_z
_atom_type_partial_charge
C1    C     C_R   0.347225 0.349641 0.907093 -0.119084
C2    C     C_R   0.690247 0.376694 0.094810 -0.129490
C3    C     C_R   0.847575 0.849586 0.906878 -0.117255
C4    C     C_R   0.190140 0.876552 0.094892 -0.128348
C5    C     C_R   0.363096 0.674742 0.999198 0.044878
C6    C     C_R   0.684934 0.638898 0.000785 -0.053677
C7    C     C_R   0.864549 0.175169 0.000233 0.046968
C8    C     C_R   0.184824 0.138760 0.000617 -0.055603
C9    C     C_R   0.451361 0.499657 0.276032 0.023596
C10   C     C_R   0.435589 0.499710 0.632314 0.040418
C11   C     C_R   0.951310 0.999636 0.275957 0.023538
C12   C     C_R   0.935681 0.999706 0.632360 0.039024
C13   C     C_R   0.170054 0.498176 0.693023 0.060996
C14   C     C_R   0.793993 0.501534 0.377136 0.039371
C15   C     C_R   0.670172 0.998171 0.691155 0.068827
C16   C     C_R   0.293669 0.001937 0.377201 0.042832
C17   C     C_R   0.020742 0.548575 0.625774 0.157330
C18   C     C_R   0.920814 0.551131 0.550131 0.008127
C19   C     C_R   0.521557 0.049049 0.622595 0.156502
C20   C     C_R   0.421569 0.052174 0.548276 0.043672
C21   C     C_R   0.066487 0.498144 0.644877 0.027331
C22   C     C_R   0.868799 0.502513 0.499247 0.130429
C23   C     C_R   0.566679 0.998417 0.642916 0.012667
C24   C     C_R   0.368816 0.003475 0.499131 0.052582
C25   C     C_R   0.011722 0.449997 0.625776 -0.119066
C26   C     C_R   0.910740 0.453165 0.555312 -0.133181
C27   C     C_R   0.511665 0.950692 0.625439 -0.109284
C28   C     C_R   0.410665 0.954187 0.555615 -0.098142
C29   C     C_3   0.914824 0.588571 0.627811 -0.430262
C30   C     C_3   0.024673 0.584621 0.711909 -0.455893
C31   C     C_3   0.418540 0.088845 0.629075 -0.461888
C32   C     C_3   0.528876 0.086330 0.708930 -0.469921
C33   C     C_R   0.274755 0.721877 0.053358 -0.015391
C34   C     C_R   0.813732 0.675322 0.995605 -0.047253
C35   C     C_R   0.775448 0.222163 0.053650 0.003022
C36   C     C_R   0.300240 0.176547 0.973327 -0.049751
C37   C     C_R   0.736235 0.269450 0.058029 -0.255020
C38   C     C_R   0.346928 0.222268 0.971817 -0.115188
C39   C     C_R   0.236689 0.769341 0.059028 -0.255128
C40   C     C_R   0.860638 0.720795 0.993518 -0.109103
C41   C     C_R   0.739103 0.316602 0.008132 0.107685
C42   C     C_R   0.330677 0.272663 0.000007 0.040457
C43   C     C_R   0.238557 0.816309 0.007942 0.107251
C44   C     C_R   0.830832 0.772398 0.998582 0.034932
C45   C     C_R   0.435238 0.648296 0.092046 -0.062267
C46   C     C_R   0.595897 0.625504 0.907537 -0.123109
C47   C     C_R   0.936112 0.148382 0.092567 -0.058827
C48   C     C_R   0.095711 0.125613 0.907454 -0.129055
C49   C     C_R   0.783163 0.318458 0.955442 -0.135964
C50   C     C_R   0.268566 0.279839 0.028171 -0.137413
C51   C     C_R   0.280045 0.817720 0.952352 -0.135620
C52   C     C_R   0.756448 0.780882 0.006459 -0.132261
C53   C     C_R   0.323445 0.771141 0.949306 -0.112737
C54   C     C_R   0.708164 0.736976 0.008714 -0.021876
C55   C     C_R   0.827601 0.272013 0.953652 -0.106044
C56   C     C_R   0.218911 0.235926 0.027515 -0.026166
C57   C     C_R   0.319774 0.723270 0.999890 -0.017668
C58   C     C_R   0.737209 0.684033 0.002508 -0.055151
C59   C     C_R   0.822146 0.223848 0.002110 -0.019377
C60   C     C_R   0.236829 0.183932 0.002026 -0.051279
C61   C     C_R   0.393954 0.548842 0.464157 -0.152522
C62   C     C_R   0.396052 0.548792 0.373013 -0.110326
C63   C     C_R   0.894011 0.048820 0.464173 -0.154564
C64   C     C_R   0.896033 0.048763 0.372975 -0.114808
C65   C     C_R   0.408457 0.499467 0.335621 0.132113
C66   C     C_R   0.403142 0.499514 0.517087 0.128870
C67   C     C_R   0.908448 0.999439 0.335589 0.133388
C68   C     C_R   0.903259 0.999498 0.517147 0.130676
C69   C     C_R   0.396908 0.450043 0.373667 -0.126615
C70   C     C_R   0.394816 0.450047 0.464771 -0.137024
C71   C     C_R   0.897016 0.950014 0.373733 -0.132545
C72   C     C_R   0.894977 0.950025 0.464872 -0.141296
C73   C     C_R   0.481705 0.454064 0.249755 -0.059484
C74   C     C_R   0.451308 0.454385 0.696118 -0.129533
C75   C     C_R   0.981590 0.954040 0.249590 -0.065876
C76   C     C_R   0.951369 0.954381 0.696153 -0.129699
C77   C     C_R   0.229030 0.544300 0.719732 -0.120642
C78   C     C_R   0.744139 0.546047 0.310567 -0.088094
C79   C     C_R   0.729286 0.044305 0.718807 -0.117780
C80   C     C_R   0.243396 0.046202 0.310398 -0.090842
C81   C     C_R   0.481744 0.545499 0.249914 -0.000744
C82   C     C_R   0.451517 0.545230 0.696123 -0.105971
C83   C     C_R   0.981761 0.045488 0.249939 -0.011470
C84   C     C_R   0.951559 0.045230 0.696142 -0.108832
C85   C     C_R   0.230146 0.453240 0.732883 -0.132068
C86   C     C_R   0.753571 0.455839 0.308172 -0.086331
C87   C     C_R   0.730134 0.953215 0.731801 -0.132409
C88   C     C_R   0.253493 0.956050 0.308542 -0.085632
C89   C     C_R   0.338073 0.646397 0.906815 -0.103688
C90   C     C_R   0.690745 0.623615 0.093186 -0.086792
C91   C     C_R   0.838854 0.146836 0.907395 -0.085499
C92   C     C_R   0.190999 0.123079 0.093146 -0.075579
C93   C     C_R   0.440324 0.349758 0.091829 -0.149517
C94   C     C_R   0.597297 0.374676 0.908957 -0.105885
C95   C     C_R   0.940933 0.849365 0.091491 -0.147219
C96   C     C_R   0.097170 0.874553 0.908964 -0.108709
C97   C     C_R   0.376257 0.319922 0.999256 0.055898
C98   C     C_R   0.686268 0.361608 0.003555 0.053134
C99   C     C_R   0.877421 0.819406 0.998727 0.054858
C100  C     C_R   0.185995 0.861344 0.003612 0.054918
H1    H     H_    0.302723 0.335855 0.821772 0.125009
H2    H     H_    0.746643 0.368626 0.180979 0.109389
H3    H     H_    0.802932 0.836004 0.821425 0.125773
H4    H     H_    0.246486 0.868499 0.181098 0.109083
H5    H     H_    0.698026 0.268849 0.094954 0.125279
H6    H     H_    0.396041 0.219018 0.949835 0.176913
H7    H     H_    0.199891 0.768968 0.097656 0.126542
H8    H     H_    0.919900 0.716476 0.988266 0.176837
H9    H     H_    0.782983 0.356008 0.916995 0.170448
H10   H     H_    0.257117 0.320406 0.047316 0.166565
H11   H     H_    0.278613 0.855061 0.912527 0.170874
H12   H     H_    0.736531 0.822201 0.010696 0.169009
H13   H     H_    0.394154 0.587811 0.498096 0.117498
H14   H     H_    0.397610 0.587698 0.340117 0.112001
H15   H     H_    0.894197 0.087791 0.498096 0.118025
H16   H     H_    0.897518 0.087666 0.340019 0.113399
H17   H     H_    0.399249 0.411115 0.341421 0.121385
H18   H     H_    0.395820 0.411102 0.499234 0.120194
H19   H     H_    0.899420 0.911086 0.341541 0.119406
H20   H     H_    0.896053 0.911081 0.499384 0.118961
H21   H     H_    0.477653 0.663212 0.176621 0.091468
H22   H     H_    0.565888 0.635389 0.822357 0.122050
H23   H     H_    0.978766 0.163072 0.177290 0.091485
H24   H     H_    0.065568 0.135630 0.822289 0.121530
H25   H     H_    0.472305 0.411800 0.261037 0.095853
H26   H     H_    0.433407 0.412502 0.668441 0.100084
H27   H     H_    0.972020 0.911753 0.260582 0.096910
H28   H     H_    0.933480 0.912497 0.668484 0.099251
H29   H     H_    0.472949 0.587619 0.262249 0.092983
H30   H     H_    0.434048 0.586956 0.668367 0.123229
H31   H     H_    0.972999 0.087605 0.262330 0.095230
H32   H     H_    0.934067 0.086952 0.668366 0.123229
H33   H     H_    0.212123 0.410638 0.718108 0.119054
H34   H     H_    0.766062 0.413804 0.334260 0.109840
H35   H     H_    0.711898 0.910617 0.716863 0.116849
H36   H     H_    0.266177 0.914079 0.335133 0.108652
H37   H     H_    0.290249 0.659482 0.822015 0.155606
H38   H     H_    0.750141 0.630364 0.178691 0.172184
H39   H     H_    0.790567 0.160039 0.822688 0.143074
H40   H     H_    0.250250 0.129893 0.178789 0.168630
H41   H     H_    0.482307 0.335988 0.176939 0.118699
H42   H     H_    0.568444 0.364864 0.823943 0.114003
H43   H     H_    0.982799 0.835563 0.176576 0.117126
H44   H     H_    0.068268 0.864698 0.823950 0.112642
N1    N     N_R   0.394180 0.396910 0.943210 -0.043808
N2    N     N_R   0.605820 0.396910 0.056790 -0.045484
N3    N     N_R   0.894180 0.896910 0.943210 -0.044193
N4    N     N_R   0.105820 0.896910 0.056790 -0.045452
N5    N     N_R   0.450950 0.603070 0.056740 -0.045950
N6    N     N_R   0.549050 0.603070 0.943260 -0.046079
N7    N     N_R   0.950950 0.103070 0.056740 -0.044045
N8    N     N_R   0.049050 0.103070 0.943260 -0.045002
N9    N     N_R   0.525650 0.471570 0.206150 -0.045197
N10   N     N_R   0.474350 0.471570 0.793850 -0.046130
N11   N     N_R   0.025650 0.971570 0.206150 -0.045860
N12   N     N_R   0.974350 0.971570 0.793850 -0.045996
N13   N     N_R   0.319480 0.528420 0.793810 -0.052305
N14   N     N_R   0.680520 0.528420 0.206190 -0.077489
N15   N     N_R   0.819480 0.028420 0.793810 -0.049860
N16   N     N_R   0.180520 0.028420 0.206190 -0.077621
N17   N     N_R   0.525640 0.528390 0.206120 -0.056882
N18   N     N_R   0.474360 0.528390 0.793880 -0.038906
N19   N     N_R   0.025640 0.028390 0.206120 -0.058070
N20   N     N_R   0.974360 0.028390 0.793880 -0.038844
N21   N     N_R   0.319490 0.471590 0.793840 -0.051314
N22   N     N_R   0.680510 0.471590 0.206160 -0.058089
N23   N     N_R   0.819490 0.971590 0.793840 -0.050217
N24   N     N_R   0.180510 0.971590 0.206160 -0.058476
N25   N     N_R   0.394130 0.603080 0.943110 -0.038024
N26   N     N_R   0.605870 0.603080 0.056890 -0.043479
N27   N     N_R   0.894130 0.103080 0.943110 -0.038134
N28   N     N_R   0.105870 0.103080 0.056890 -0.041985
N29   N     N_R   0.450990 0.396900 0.056840 -0.043893
N30   N     N_R   0.549010 0.396900 0.943160 -0.045612
N31   N     N_R   0.950990 0.896900 0.056840 -0.043612
N32   N     N_R   0.049010 0.896900 0.943160 -0.045135
Ni1   Ni    Ni4+2 0.434860 0.434850 0.869700 0.225054
Ni2   Ni    Ni4+2 0.565140 0.434850 0.130300 0.234862
Ni3   Ni    Ni4+2 0.934860 0.934850 0.869700 0.225393
Ni4   Ni    Ni4+2 0.065140 0.934850 0.130300 0.232405
Ni5   Ni    Ni4+2 0.565130 0.565140 0.130240 0.260607
Ni6   Ni    Ni4+2 0.434870 0.565140 0.869760 0.256182
Ni7   Ni    Ni4+2 0.065130 0.065140 0.130240 0.261188
Ni8   Ni    Ni4+2 0.934870 0.065140 0.869760 0.258309
C101  C     C_2   0.879464 0.644964 0.575363 1.095125
O1    O     O_2   0.834908 0.673483 0.597101 -0.596623
O2    O     O_R   0.899801 0.664738 0.503486 -0.757849
H45   H     H_    0.873899 0.702725 0.475318 0.330588
C102  C     C_2   0.062070 0.556719 0.822306 1.064458
O3    O     O_2   0.046790 0.577370 0.884897 -0.512404
O4    O     O_R   0.118245 0.509927 0.856343 -0.828360
H46   H     H_    0.139530 0.496690 0.932012 0.339675
C103  C     C_2   0.382151 0.145976 0.582142 1.142087
O5    O     O_2   0.363407 0.177855 0.629666 -0.588029
O6    O     O_R   0.378891 0.163840 0.491027 -0.767431
H47   H     H_    0.357267 0.203079 0.470694 0.330784
C104  C     C_2   0.570754 0.061191 0.822473 1.148096
O7    O     O_2   0.550653 0.080791 0.881526 -0.539788
O8    O     O_R   0.635787 0.018330 0.862765 -0.820906
H48   H     H_    0.659197 0.006533 0.940003 0.341265
C105  C     C_2   0.858388 0.566558 0.669332 1.129710
O9    O     O_2   0.816054 0.522872 0.636888 -0.600104
O10   O     O_R   0.853984 0.597676 0.744679 -0.695622
H49   H     H_    0.813864 0.579662 0.765313 0.334400
C106  C     C_2   0.075563 0.639298 0.734875 1.042562
O11   O     O_2   0.100422 0.655045 0.678092 -0.624306
O12   O     O_R   0.086400 0.673985 0.815999 -0.744097
H50   H     H_    0.115464 0.710531 0.819121 0.319534
C107  C     C_2   0.363741 0.062269 0.669314 1.177756
O13   O     O_2   0.383635 0.016192 0.707973 -0.631417
O14   O     O_R   0.289707 0.090126 0.660976 -0.711375
H51   H     H_    0.258963 0.068003 0.689500 0.336629
C108  C     C_2   0.578443 0.140720 0.723646 0.997510
O15   O     O_2   0.584058 0.158260 0.651151 -0.601531
O16   O     O_R   0.609181 0.173428 0.815909 -0.758568
H52   H     H_    0.633228 0.210398 0.811708 0.321499
C109  C     C_2   0.260831 0.671969 0.099463 0.586252
H53   H     H_    0.248415 0.676060 0.162323 -0.006909
O17   O     O_2   0.258181 0.626383 0.064743 -0.558164
C110  C     C_2   0.844933 0.619635 0.991147 0.548968
H54   H     H_    0.806978 0.583838 0.989116 0.013791
O18   O     O_2   0.914077 0.612999 0.990319 -0.521624
C111  C     C_2   0.760931 0.172173 0.099065 0.586898
H55   H     H_    0.746686 0.176223 0.160375 -0.013512
O19   O     O_2   0.759903 0.126550 0.065559 -0.558485
C112  C     C_2   0.317615 0.122019 0.944875 0.557085
H56   H     H_    0.281497 0.085985 0.945566 0.014391
O20   O     O_2   0.372876 0.116615 0.920379 -0.525994
C113  C     C_2   0.372852 0.773463 0.895154 0.625931
H57   H     H_    0.413505 0.739146 0.898749 -0.013687
O21   O     O_2   0.369248 0.814267 0.845946 -0.544862
C114  C     C_2   0.628048 0.747528 0.017108 0.531195
H58   H     H_    0.585713 0.714565 0.015539 0.020373
O22   O     O_2   0.608086 0.793930 0.026199 -0.570712
C115  C     C_2   0.880027 0.274664 0.903139 0.600475
H59   H     H_    0.920980 0.240257 0.907601 -0.014954
O23   O     O_2   0.878715 0.315812 0.856204 -0.558272
C116  C     C_2   0.146528 0.245862 0.049192 0.545575
H60   H     H_    0.094513 0.214983 0.031447 0.019846
O24   O     O_2   0.143357 0.289499 0.086436 -0.576526
C117  C     C_2   0.207231 0.587850 0.639566 1.048967
O25   O     O_2   0.128835 0.589871 0.550034 -0.595645
O26   O     O_R   0.279309 0.623895 0.662172 -0.838454
H61   H     H_    0.256823 0.650928 0.600067 0.331936
C118  C     C_2   0.718194 0.592930 0.349573 0.972254
O27   O     O_2   0.703432 0.585818 0.419198 -0.643000
O28   O     O_R   0.701103 0.643921 0.299774 -0.825023
H62   H     H_    0.679927 0.671928 0.330894 0.326599
C119  C     C_2   0.708329 0.087981 0.639225 1.021556
O29   O     O_2   0.631319 0.089123 0.547963 -0.594282
O30   O     O_R   0.780175 0.124791 0.664030 -0.837527
H63   H     H_    0.758458 0.151711 0.601954 0.333166
C120  C     C_2   0.215917 0.092818 0.348303 0.999324
O31   O     O_2   0.206859 0.086415 0.422720 -0.652606
O32   O     O_R   0.190178 0.142367 0.291759 -0.818616
H64   H     H_    0.168831 0.170253 0.322890 0.324507
C121  C     C_2   0.057999 0.398934 0.686597 0.465170
H65   H     H_    0.111573 0.400170 0.775848 0.072363
O33   O     O_2   0.039474 0.355573 0.637333 -0.598561
C122  C     C_2   0.849044 0.408019 0.547377 0.581898
H66   H     H_    0.877061 0.367699 0.578848 0.069489
O34   O     O_2   0.765432 0.416067 0.508260 -0.546402
C123  C     C_2   0.557879 0.899898 0.687540 0.470233
H67   H     H_    0.612094 0.901704 0.776617 0.070334
O35   O     O_2   0.538564 0.856104 0.639521 -0.599405
C124  C     C_2   0.348737 0.909637 0.549057 0.581929
H68   H     H_    0.376183 0.869213 0.580373 0.075621
O36   O     O_2   0.265592 0.918365 0.511251 -0.566840

loop_
_geom_bond_atom_site_label_1
_geom_bond_atom_site_label_2
_ccdc_geom_bond_type
C79   C119  S    
N23   Ni3   S    
O10   H49   S    
C3    N3    A    
C2    N2    A    
C64   H16   S    
C55   C59   A    
N21   Ni1   S    
C105  O9    D    
C6    C58   S    
C1    N1    A    
C111  H55   S    
C86   N22   A    
C43   C51   A    
C110  O18   D    
C101  O1    D    
C28   C124  S    
O30   H63   S    
N6    Ni6   S    
C74   H26   S    
C108  O15   D    
C65   C69   A    
C4    C100  A    
C95   H43   S    
C12   C68   S    
N2    Ni2   S    
C119  O29   D    
C33   C39   A    
C34   C40   A    
C56   C116  S    
C85   N21   A    
C35   C37   A    
C92   N28   A    
C62   H14   S    
C103  O6    S    
C79   N15   A    
C120  O31   D    
N8    N28   A    
N12   Ni3   S    
N3    N31   A    
C101  O2    S    
C94   C98   A    
C95   C99   A    
O26   H61   S    
C4    N4    A    
C3    C99   A    
C4    H4    S    
C50   H10   S    
C78   C118  S    
N7    N27   A    
C74   N10   A    
C35   C59   A    
C117  O25   D    
C53   C113  S    
C30   C102  S    
C7    C59   S    
C104  O8    S    
C95   N31   A    
C21   C25   A    
C69   H17   S    
N22   Ni2   S    
C9    C81   A    
N9    Ni2   S    
N4    Ni4   S    
C81   H29   S    
C61   C66   A    
C78   N14   A    
N32   Ni3   S    
C87   N23   A    
C19   C20   A    
C11   C67   S    
C88   N24   A    
C86   H34   S    
C115  O23   D    
C33   C57   A    
C115  H59   S    
C106  O11   D    
C23   C27   A    
N15   Ni8   S    
C82   H30   S    
C29   C30   S    
C6    C46   A    
N16   Ni7   S    
C45   N5    A    
C84   N20   A    
C40   H8    S    
C25   C121  S    
C44   C52   A    
C15   C23   S    
C91   H39   S    
C7    C91   A    
O8    H48   S    
C16   C24   S    
C118  O27   D    
C5    C57   S    
N5    Ni5   S    
C17   C30   S    
C105  O10   S    
C90   N26   A    
C69   C70   A    
C9    C73   A    
N15   N23   A    
C19   C32   S    
C54   C114  S    
C110  H54   S    
C90   H38   S    
C113  H57   S    
C52   C54   A    
C17   C18   A    
C13   C77   A    
C10   C66   S    
C116  O24   D    
C119  O30   S    
C29   C105  S    
C80   C120  S    
N19   Ni7   S    
O12   H50   S    
C94   H42   S    
C64   C67   A    
C87   H35   S    
N27   Ni8   S    
C123  H67   S    
C43   C100  S    
C14   C86   A    
C122  O34   D    
N1    N29   A    
C42   C97   S    
C1    C97   A    
C31   C103  S    
C53   C57   A    
C77   C117  S    
C39   C43   A    
O6    H47   S    
C82   N18   A    
C12   C84   A    
C45   H21   S    
C109  H53   S    
N24   Ni4   S    
C30   C106  S    
C5    C45   A    
C15   C79   A    
C84   H32   S    
C50   C56   A    
O4    H46   S    
N9    N17   A    
C51   C53   A    
C73   N9    A    
C7    C47   A    
C38   H6    S    
C19   C23   A    
O16   H52   S    
C8    C48   A    
C37   H5    S    
C32   C104  S    
N20   Ni8   S    
C35   C111  S    
C14   C78   A    
C96   H44   S    
C47   H23   S    
O14   H51   S    
C31   C107  S    
C85   H33   S    
C68   C72   A    
C27   C123  S    
C72   H20   S    
C114  O22   D    
C107  O13   D    
C13   C21   S    
C2    H2    S    
C18   C29   S    
N4    N32   A    
C34   C58   A    
N2    N30   A    
N30   Ni1   S    
C88   H36   S    
C22   C26   A    
C124  O36   D    
C42   C50   A    
C8    C92   A    
C32   C108  S    
C93   N29   A    
C46   N6    A    
C94   N30   A    
C103  O5    D    
C1    H1    S    
C112  O20   D    
C91   N27   A    
C118  O28   S    
C12   C76   A    
C61   H13   S    
C76   H28   S    
N5    N25   A    
C117  O26   S    
N8    Ni8   S    
N13   Ni6   S    
N13   N21   A    
O32   H64   S    
C92   H40   S    
C93   C97   A    
C121  H65   S    
C93   H41   S    
N11   Ni4   S    
N14   N22   A    
C20   C31   S    
C49   H9    S    
C54   C58   A    
C3    H3    S    
C102  O3    D    
C123  O35   D    
C83   N19   A    
C116  H60   S    
C104  O7    D    
C36   C112  S    
C96   N32   A    
C62   C65   A    
C76   N12   A    
C18   C22   A    
C34   C110  S    
C81   N17   A    
C44   C99   S    
N10   N18   A    
C31   C32   S    
C24   C28   A    
C55   C115  S    
C122  H66   S    
C36   C60   A    
C49   C55   A    
C48   H24   S    
C10   C82   A    
O28   H62   S    
C111  O19   D    
C75   N11   A    
N7    Ni7   S    
N31   Ni4   S    
N1    Ni1   S    
C33   C109  S    
C109  O17   D    
C41   C49   A    
C63   C68   A    
C89   H37   S    
C51   H11   S    
N18   Ni6   S    
C71   H19   S    
N11   N19   A    
C14   C22   S    
C48   N8    A    
C83   H31   S    
C25   C26   A    
C108  O16   S    
C63   H15   S    
C71   C72   A    
N26   Ni5   S    
C2    C98   A    
C6    C90   A    
C8    C60   S    
C10   C74   A    
N28   Ni7   S    
C11   C83   A    
C15   C87   A    
N6    N26   A    
N29   Ni2   S    
C70   H18   S    
C73   H25   S    
C96   C100  A    
C36   C38   A    
C114  H58   S    
C107  O14   S    
C29   C101  S    
C67   C71   A    
N16   N24   A    
C56   C60   A    
C37   C41   A    
C61   C62   A    
C39   H7    S    
N14   Ni5   S    
C9    C65   S    
N25   Ni6   S    
C80   N16   A    
C124  H68   S    
C47   N7    A    
C89   N25   A    
C63   C64   A    
C38   C42   A    
N3    Ni3   S    
O2    H45   S    
C26   C122  S    
C66   C70   A    
N12   N20   A    
C113  O21   D    
C112  H56   S    
C120  O32   S    
N10   Ni1   S    
C13   C85   A    
C40   C44   A    
C16   C88   A    
C52   H12   S    
C41   C98   S    
C46   H22   S    
C11   C75   A    
C16   C80   A    
C121  O33   D    
C106  O12   S    
C20   C24   A    
N17   Ni5   S    
C5    C89   A    
C77   N13   A    
C102  O4    S    
C27   C28   A    
C75   H27   S    
C17   C21   A    
