data_mof_unit_54500.cif
_audit_creation_date              2013-03-05T15:55:07-0500
_audit_creation_method            fapswitch 2.2
_symmetry_space_group_name_H-M    P1
_symmetry_Int_Tables_number       1
_space_group_crystal_system       triclinic
_cell_length_a                    8.289829
_cell_length_b                    16.564368
_cell_length_c                    17.397952
_cell_angle_alpha                 99.03211
_cell_angle_beta                  96.555995
_cell_angle_gamma                 94.028224
_cell_volume                      2334.47804009

loop_
_atom_site_label
_atom_site_type_symbol
_atom_site_description
_atom_site_fract_x
_atom_site_fract_y
_atom_site_fract_z
_atom_type_partial_charge
P1    P     P_3+3 0.011660 0.422550 0.320180 0.445557
O1    O     O_2   0.836060 0.445790 0.307930 -0.369562
O2    O     O_3   0.108600 0.451610 0.405920 -0.407206
O3    O     O_3   0.604850 0.595390 0.356120 -0.420662
O4    O     O_2   0.724568 0.551248 0.222699 -0.347560
O5    O     O_3   0.960085 0.316200 0.308075 -0.570021
O6    O     O_3   0.544083 0.673524 0.223161 -0.520667
H1    H     H_    0.715735 0.730583 0.315479 0.174857
C1    C     C_3   0.589443 0.819263 0.260959 -0.826806
H2    H     H_    0.673579 0.822704 0.216024 0.285082
H3    H     H_    0.464344 0.828473 0.235744 0.276620
P2    P     P_3+3 0.650900 0.688870 0.561900 0.543361
P3    P     P_3+3 0.061517 0.744950 0.400359 0.481851
O7    O     O_2   0.818230 0.699530 0.538240 -0.349603
O8    O     O_3   0.027730 0.639010 0.395710 -0.376607
O9    O     O_2   0.931333 0.786219 0.446058 -0.383523
O10   O     O_3   0.678995 0.718505 0.664079 -0.500970
O11   O     O_3   0.015970 0.765877 0.305161 -0.508963
C2    C     C_3   0.091430 0.710606 0.253826 0.171350
H4    H     H_    0.044999 0.646272 0.255057 0.106977
H5    H     H_    0.225943 0.717986 0.269684 0.052806
C3    C     C_3   0.050637 0.725837 0.169791 -0.010476
H6    H     H_    0.916162 0.721064 0.153855 0.163625
C4    C     C_3   0.282756 0.722844 0.761027 0.817908
H7    H     H_    0.354562 0.680800 0.791854 -0.030251
C5    C     C_3   0.156342 0.754122 0.812855 -0.979618
H8    H     H_    0.082813 0.701507 0.827197 0.217120
H9    H     H_    0.217133 0.790712 0.868976 0.283623
H10   H     H_    0.075497 0.793037 0.782312 0.273356
Ba1   Ba    Ba6+2 0.836100 0.536190 0.461710 1.584491
C6    C     C_3   0.097840 0.272507 0.304592 0.316213
H11   H     H_    0.077118 0.217847 0.333063 0.107259
H12   H     H_    0.207017 0.308040 0.338272 0.132503
C7    C     C_3   0.120333 0.242622 0.219383 -0.900789
H13   H     H_    0.008118 0.205654 0.188346 0.272867
H14   H     H_    0.223711 0.203600 0.216973 0.258367
H15   H     H_    0.145554 0.295340 0.189013 0.228071
C8    C     C_3   0.742728 0.656041 0.700037 0.364233
H16   H     H_    0.868971 0.649918 0.686413 0.092743
H17   H     H_    0.665423 0.597238 0.680732 0.124815
C9    C     C_3   0.745819 0.679000 0.788530 -0.852020
H18   H     H_    0.800149 0.742993 0.809046 0.289224
H19   H     H_    0.817200 0.637068 0.819519 0.223478
H20   H     H_    0.620931 0.673728 0.804515 0.253334
P4    P     P_3+3 0.178040 0.577520 0.679830 0.487018
O12   O     O_2   0.353650 0.554240 0.692110 -0.373030
O13   O     O_3   0.081100 0.548460 0.594090 -0.373536
O14   O     O_3   0.584850 0.404680 0.643890 -0.421406
O15   O     O_3   0.204255 0.684670 0.686390 -0.555805
P5    P     P_3+3 0.140065 0.251323 0.594089 0.460179
O16   O     O_3   0.621030 0.400630 0.459910 -0.420163
O17   O     O_3   0.161970 0.361060 0.604300 -0.390114
O18   O     O_2   0.296136 0.218280 0.564793 -0.376288
O19   O     O_3   0.147181 0.223856 0.687762 -0.523238
Ba2   Ba    Ba6+2 0.353720 0.463880 0.538300 1.549138
P6    P     P_3+3 0.565651 0.578380 0.253740 0.462077
C10   C     C_3   0.590740 0.736345 0.287840 0.420942
H21   H     H_    0.504108 0.734407 0.331834 0.027428
H22   H     H_    0.629765 0.868818 0.311794 0.218179
O20   O     O_3   0.568670 0.599440 0.540100 -0.397117
C11   C     C_3   0.504957 0.341889 0.288638 0.389996
H23   H     H_    0.384001 0.363384 0.275969 0.015835
H24   H     H_    0.581661 0.394232 0.324067 0.161303
C12   C     C_3   0.569624 0.317755 0.210530 -0.846842
H25   H     H_    0.480144 0.272676 0.170556 0.248015
H26   H     H_    0.590386 0.372633 0.182426 0.227906
H27   H     H_    0.686183 0.289567 0.219550 0.285546
P7    P     P_3+3 0.540674 0.296870 0.427739 0.426274
O21   O     O_2   0.371480 0.300500 0.461810 -0.373382
O22   O     O_3   0.489952 0.272555 0.325391 -0.568396
H28   H     H_    0.100446 0.677571 0.129605 0.103297
C13   C     C_3   0.149756 0.294443 0.744727 0.314024
H29   H     H_    0.268894 0.331281 0.751345 0.173093
H30   H     H_    0.051334 0.333189 0.729167 -0.017401
C14   C     C_3   0.121379 0.268919 0.823062 -0.122759
H31   H     H_    0.114386 0.324191 0.867386 0.076766
H32   H     H_    0.002753 0.231042 0.815587 0.131535
P8    P     P_3+3 0.620068 0.412637 0.745835 0.461550
C15   C     C_3   0.651902 0.258436 0.712981 0.374026
H33   H     H_    0.783767 0.275573 0.713101 -0.000895
O23   O     O_2   0.485620 0.461334 0.780949 -0.375160
O24   O     O_3   0.585805 0.313960 0.768056 -0.478074
H34   H     H_    0.586877 0.256024 0.653057 0.130470
H35   H     H_    0.685700 0.128875 0.691184 0.200991
C16   C     C_3   0.631949 0.172909 0.733892 -0.754214
H36   H     H_    0.500484 0.153151 0.731978 0.289434
H37   H     H_    0.694899 0.172709 0.793724 0.260138
C17   C     C_2   0.259936 0.504826 0.270559 -0.452838
C18   C     C_3   0.385496 0.502776 0.213802 0.198446
C19   C     C_2   0.306030 0.514967 0.133815 -0.207863
C20   C     C_2   0.143880 0.493143 0.111923 -0.080147
C21   C     C_2   0.047530 0.461592 0.171507 -0.183185
C22   C     C_1   0.113665 0.466770 0.245667 0.266842
C23   C     C_R   0.897189 0.461120 0.860532 -0.207990
C24   C     C_R   0.825169 0.462289 0.784140 0.231677
C25   C     C_R   0.071765 0.533269 0.754989 0.221759
C26   C     C_R   0.145220 0.532652 0.832284 -0.267690
C27   C     C_R   0.056995 0.498090 0.886350 0.179522
C28   C     C_2   0.060093 0.505222 0.033151 0.339222
C29   C     C_2   0.136919 0.494713 0.967385 -0.325938
C30   C     C_R   0.912291 0.498891 0.733173 -0.491293
H38   H     H_    0.262468 0.479449 0.971878 0.162776
H39   H     H_    0.926925 0.430161 0.153336 0.190031
H40   H     H_    0.830318 0.429807 0.898768 0.178893
H41   H     H_    0.381335 0.539736 0.094431 0.182618
H42   H     H_    0.269278 0.559301 0.850506 0.168173
H43   H     H_    0.281718 0.545828 0.326645 0.163979
H44   H     H_    0.852500 0.503037 0.676382 0.135038
C31   C     C_R   0.370181 0.731201 0.477327 -0.410386
C32   C     C_R   0.528902 0.758898 0.511613 0.320474
C33   C     C_R   0.587218 0.841347 0.513504 -0.222911
C34   C     C_R   0.486331 0.895657 0.479571 0.152397
C35   C     C_R   0.326884 0.866012 0.446002 -0.266935
C36   C     C_R   0.268772 0.784494 0.445373 0.246815
C37   C     C_R   0.623383 0.140716 0.470106 -0.261435
C38   C     C_R   0.681027 0.220992 0.464242 0.223304
C39   C     C_R   0.729196 0.087850 0.503895 0.170465
N1    N     N_2   0.537947 0.979407 0.476707 -0.063702
N2    N     N_2   0.678967 0.004384 0.509060 -0.058875
C40   C     C_R   0.849900 0.245288 0.486761 -0.235770
H45   H     H_    0.496653 0.120468 0.449537 0.166309
H46   H     H_    0.248068 0.906533 0.419880 0.171344
C41   C     C_R   0.949691 0.199026 0.530308 0.235932
C42   C     C_R   0.889609 0.119225 0.536332 -0.308300
H47   H     H_    0.709505 0.862554 0.541436 0.172223
H48   H     H_    0.965941 0.082097 0.568448 0.181114
H49   H     H_    0.324133 0.668316 0.476877 0.173184
N3    N     N_R   0.252619 0.222516 0.851108 0.290838
O25   O     O_R   0.224286 0.144781 0.853555 -0.316734
O26   O     O_R   0.394351 0.260170 0.880567 -0.334881
N4    N     N_R   0.900631 0.535040 0.029369 0.233751
O27   O     O_R   0.781083 0.496773 0.055247 -0.401084
O28   O     O_R   0.873475 0.599730 0.997669 -0.390423
C43   C     C_3   0.910118 0.331279 0.486830 -0.247479
C44   C     C_3   0.859940 0.378919 0.561623 -0.550575
H50   H     H_    0.737090 0.355594 0.563315 0.227603
H51   H     H_    0.907121 0.364323 0.618857 0.159088
H52   H     H_    0.867997 0.444347 0.561204 0.256470
H53   H     H_    0.040729 0.337972 0.480034 0.229337
H54   H     H_    0.857553 0.352246 0.433642 0.230528
N5    N     N_R   0.120419 0.806567 0.160481 0.269536
O29   O     O_R   0.225581 0.812732 0.111168 -0.348876
O30   O     O_R   0.068025 0.872749 0.196284 -0.331834
N6    N     N_R   0.393844 0.792304 0.751782 0.248160
O31   O     O_R   0.391102 0.817911 0.684667 -0.355156
O32   O     O_R   0.493814 0.830632 0.811556 -0.369271

loop_
_geom_bond_atom_site_label_1
_geom_bond_atom_site_label_2
_geom_bond_distance
_ccdc_geom_bond_type
C11   O22   1.404266 S    
O14   Ba2   2.834315 S    
C15   H34   1.111146 S    
Ba1   O16   2.761253 S    
C37   H45   1.082221 S    
C44   H52   1.082360 S    
C7    H15   1.109007 S    
C9    H18   1.109633 S    
O4    P6    1.548747 D    
C2    H4    1.111581 S    
C15   C16   1.519664 S    
N3    O25   1.300760 A    
P2    C32   1.848017 S    
C26   C27   1.419443 A    
C19   C20   1.361691 D    
C44   H50   1.068847 S    
C16   H36   1.110908 S    
C5    H8    1.105323 S    
P5    O19   1.755306 S    
P3    O11   1.749792 S    
C42   H48   1.082901 S    
C2    H5    1.111082 S    
C39   C42   1.412937 A    
C4    C5    1.524810 S    
P1    O1    1.531765 D    
C39   N2    1.435129 S    
C43   H54   1.094039 S    
C8    H16   1.107114 S    
C7    H13   1.110561 S    
C23   C27   1.412638 A    
C37   C38   1.404062 A    
O11   C2    1.406592 S    
O14   P8    1.746806 S    
C11   H24   1.096010 S    
C32   C33   1.410495 A    
C21   C22   1.330319 D    
C21   H39   1.083330 S    
N1    N2    1.250318 D    
O2    Ba2   2.863763 S    
C31   H49   1.082441 S    
C35   H46   1.083305 S    
C28   C29   1.365466 D    
P7    O21   1.585170 D    
C37   C39   1.426061 A    
Ba1   O20   2.905282 S    
O12   Ba2   2.853778 S    
C33   H47   1.082174 S    
P5    O17   1.792628 S    
C6    H12   1.097579 S    
C14   N3    1.458270 S    
C1    H2    1.110776 S    
C1    C10   1.519182 S    
P3    C36   1.835163 S    
C40   C41   1.404920 A    
O10   C8    1.394855 S    
C30   H44   1.068114 S    
P4    O13   1.596605 S    
O5    C6    1.396322 S    
C23   H40   1.082125 S    
Ba2   O20   2.760668 S    
O3    P6    1.747877 S    
C9    H19   1.107124 S    
C11   H23   1.097778 S    
O6    P6    1.754971 S    
O7    Ba1   2.843489 S    
C13   C14   1.526980 S    
C34   C35   1.404227 A    
C16   H37   1.110496 S    
P5    O18   1.547828 D    
P1    O5    1.757157 S    
C12   H27   1.108175 S    
Ba1   O13   2.863155 S    
C41   C42   1.403304 A    
C2    C3    1.526588 S    
C4    H7    1.108887 S    
C8    C9    1.523636 S    
C13   H30   1.108415 S    
C20   C21   1.512037 S    
C17   H43   1.086496 S    
C13   H29   1.108302 S    
O16   Ba2   2.904444 S    
P4    O12   1.532107 D    
C38   C40   1.421743 A    
P1    O2    1.596606 S    
C12   H26   1.109864 S    
P2    O10   1.752383 S    
O2    Ba1   2.919985 S    
C14   H31   1.110074 S    
H1    C10   1.108397 S    
C34   N1    1.432907 S    
C1    H3    1.109303 S    
P8    O24   1.749301 S    
C6    H11   1.110422 S    
P4    O15   1.756984 S    
P8    C24   1.839592 S    
C25   C26   1.413337 A    
C29   H38   1.085297 S    
C6    C7    1.524207 S    
H35   C16   1.110755 S    
C14   H32   1.111798 S    
Ba2   O21   2.843687 S    
C31   C36   1.395248 A    
P7    C38   1.903717 S    
C26   H42   1.082049 S    
N6    O32   1.301285 A    
P6    C18   1.873117 S    
P2    O7    1.497853 D    
C27   C29   1.498809 S    
P3    O8    1.745170 S    
C9    H20   1.103393 S    
N4    O27   1.299941 A    
C3    H28   1.111447 S    
C43   H53   1.102307 S    
O8    Ba1   2.719053 S    
O13   Ba2   2.920827 S    
C35   C36   1.399367 A    
C4    O15   1.414534 S    
C44   H51   1.096766 S    
C17   C22   1.319930 D    
C33   C34   1.420213 A    
P2    Ba1   3.400595 S    
P5    C41   1.891720 S    
C19   H41   1.085127 S    
N6    O31   1.301807 A    
N4    O28   1.301616 A    
N3    O26   1.300516 A    
C15   O24   1.406518 S    
O17   Ba2   2.719639 S    
C43   C44   1.528498 S    
Ba1   Ba2   4.499551 S    
C5    H9    1.110664 S    
C28   N4    1.441460 S    
O1    Ba1   2.853452 S    
C12   H25   1.110317 S    
N5    O30   1.301045 A    
N5    O29   1.300882 A    
C11   C12   1.523064 S    
C8    H17   1.110255 S    
P8    O23   1.546984 D    
C10   H21   1.110244 S    
C4    N6    1.463131 S    
C3    N5    1.459379 S    
P1    Ba1   3.387094 S    
C7    H14   1.109730 S    
C40   C43   1.475637 S    
O16   P7    1.778466 S    
C23   C24   1.397056 A    
C15   H33   1.109609 S    
P2    O20   1.557441 S    
O19   C13   1.406275 S    
C17   C18   1.512868 S    
P4    Ba2   3.387644 S    
C5    H10   1.110838 S    
P1    C22   1.842170 S    
P3    O9    1.546949 D    
C31   C32   1.395560 A    
P7    O22   1.757780 S    
C3    H6    1.111750 S    
C20   C28   1.512917 S    
C18   C19   1.519514 S    
C25   C30   1.388467 A    
P4    C25   1.869905 S    
C1    H22   1.110734 S    
O6    C10   1.405374 S    
O3    Ba1   2.834939 S    
C24   C30   1.388883 A    
