data_mof_unit_22167.cif
_audit_creation_date              2013-03-05T16:01:46-0500
_audit_creation_method            fapswitch 2.2
_symmetry_space_group_name_H-M    P1
_symmetry_Int_Tables_number       1
_space_group_crystal_system       triclinic
_cell_length_a                    14.675843
_cell_length_b                    14.685366
_cell_length_c                    27.743467
_cell_angle_alpha                 77.145715
_cell_angle_beta                  102.873112
_cell_angle_gamma                 115.123977
_cell_volume                      5221.83296416

loop_
_atom_site_label
_atom_site_type_symbol
_atom_site_description
_atom_site_fract_x
_atom_site_fract_y
_atom_site_fract_z
_atom_type_partial_charge
O1    O     O_R   0.977900 0.338120 0.517190 -0.590775
O2    O     O_R   0.022100 0.661880 0.482810 -0.595304
O3    O     O_R   0.839850 0.379180 0.495160 -0.573246
O4    O     O_R   0.160150 0.620820 0.504840 -0.541413
C1    C     C_R   0.880155 0.312351 0.508680 0.884869
C2    C     C_R   0.120372 0.688097 0.492957 0.833086
O5    O     O_R   0.069030 0.479490 0.580750 -0.583555
O6    O     O_R   0.930970 0.520510 0.419250 -0.582597
O7    O     O_R   0.930970 0.520550 0.558720 -0.536905
O8    O     O_R   0.069030 0.479450 0.441280 -0.552769
C3    C     C_R   0.999648 0.500201 0.592575 0.827439
C4    C     C_R   0.001844 0.502165 0.407590 0.838108
Cu1   Cu    Cu3+1 0.081740 0.475690 0.513040 1.009736
Cu2   Cu    Cu3+1 0.918260 0.524310 0.486960 0.991876
C5    C     C_R   0.013300 0.435422 0.832338 0.555830
C6    C     C_R   0.049363 0.607950 0.171095 0.557664
O9    O     O_2   0.011096 0.353097 0.817303 -0.511537
O10   O     O_2   0.084645 0.696266 0.189598 -0.528772
N1    N     N_R   0.017330 0.519831 0.798332 -0.460065
N2    N     N_R   0.015266 0.517411 0.202008 -0.458440
C7    C     C_R   0.019820 0.604539 0.812423 0.586677
C8    C     C_R   0.979482 0.426581 0.184429 0.588227
C9    C     C_R   0.095323 0.514771 0.729828 -0.087733
C10   C     C_R   0.919780 0.481616 0.270830 -0.092578
C11   C     C_R   0.089857 0.509057 0.679760 -0.250238
C12   C     C_R   0.916763 0.477896 0.321036 -0.231762
C13   C     C_R   0.916975 0.501930 0.662916 0.444324
C14   C     C_R   0.102053 0.549680 0.336877 0.431080
C15   C     C_R   0.925580 0.512810 0.712992 -0.188160
C16   C     C_R   0.104121 0.551264 0.286529 -0.149988
C17   C     C_R   0.013445 0.517168 0.746525 0.280867
C18   C     C_R   0.013240 0.517230 0.253485 0.269623
C19   C     C_R   0.009969 0.519018 0.897772 -0.047718
C20   C     C_R   0.007865 0.516515 0.101022 -0.048414
C21   C     C_R   0.009422 0.433333 0.882651 -0.020033
C22   C     C_R   0.046157 0.609251 0.119989 -0.015375
C23   C     C_R   0.005246 0.347797 0.918007 -0.121033
C24   C     C_R   0.080747 0.700843 0.087651 -0.125187
C25   C     C_R   0.016520 0.605847 0.862487 -0.094828
C26   C     C_R   0.975204 0.424423 0.133628 -0.094672
C27   C     C_R   0.001553 0.503726 0.645646 -0.137945
C28   C     C_R   0.007274 0.509526 0.354630 -0.149226
H1    H     H_    0.863339 0.516437 0.726255 0.156238
H2    H     H_    0.176436 0.579148 0.273064 0.162132
H3    H     H_    0.008758 0.282426 0.907815 0.205435
H4    H     H_    0.114131 0.773199 0.101535 0.199670
C29   C     C_R   0.972434 0.422751 0.031542 -0.064783
C30   C     C_R   0.013387 0.607012 0.964056 -0.065381
C31   C     C_R   0.028110 0.608947 0.016282 0.078869
C32   C     C_R   0.988746 0.426771 0.982421 0.077220
C33   C     C_R   0.002519 0.515985 0.049493 0.043379
C34   C     C_R   0.003861 0.517645 0.948157 0.043567
C35   C     C_R   0.929769 0.330132 0.063915 0.294042
C36   C     C_R   0.009976 0.690705 0.927073 0.293724
C37   C     C_R   0.934950 0.332313 0.114637 -0.167921
C38   C     C_R   0.014914 0.690111 0.877324 -0.166145
O11   O     O_2   0.948171 0.338617 0.216084 -0.497559
O12   O     O_2   0.025222 0.687041 0.778058 -0.498452
C39   C     C_R   0.996144 0.344975 0.967189 -0.111478
C40   C     C_R   0.072839 0.700689 0.036746 -0.111829
H5    H     H_    0.843597 0.448439 0.333855 0.209691
H6    H     H_    0.155348 0.509476 0.667703 0.205942
H7    H     H_    0.849345 0.455841 0.245351 0.169018
H8    H     H_    0.163523 0.518028 0.755656 0.167384
H9    H     H_    0.903085 0.261260 0.138894 0.228161
H10   H     H_    0.012939 0.754537 0.849710 0.230725
H11   H     H_    0.998161 0.279079 0.993349 0.186766
H12   H     H_    0.105362 0.773358 0.014031 0.184685
C41   C     C_R   0.813114 0.206789 0.523060 -0.194787
C42   C     C_R   0.189203 0.796914 0.489361 -0.218623
C43   C     C_R   0.773416 0.064806 0.590470 0.346932
C44   C     C_R   0.220163 0.969408 0.447511 0.338054
C45   C     C_R   0.843061 0.154774 0.568129 -0.307696
C46   C     C_R   0.154045 0.868399 0.458844 -0.297666
C47   C     C_R   0.713481 0.164820 0.497810 0.257516
C48   C     C_R   0.291373 0.828796 0.513147 0.274448
C49   C     C_R   0.638085 0.086796 0.524785 -0.050199
C50   C     C_R   0.358076 0.932961 0.505317 -0.071036
C51   C     C_R   0.669198 0.033217 0.570283 -0.026483
C52   C     C_R   0.323328 0.001799 0.469663 -0.025175
C53   C     C_R   0.532427 0.061704 0.508223 0.105291
C54   C     C_R   0.460736 0.969911 0.529558 0.101710
C55   C     C_R   0.492831 0.922728 0.576168 -0.119680
C56   C     C_R   0.495820 0.130028 0.474693 -0.153221
C57   C     C_R   0.594878 0.954148 0.596306 -0.146294
C58   C     C_R   0.392592 0.101823 0.457333 -0.129203
H13   H     H_    0.614345 0.917011 0.632955 0.205037
H14   H     H_    0.368551 0.158575 0.432992 0.202842
H15   H     H_    0.075980 0.844054 0.440398 0.202122
H16   H     H_    0.920911 0.185389 0.586564 0.196686
H17   H     H_    0.439140 0.865286 0.599232 0.197000
H18   H     H_    0.546158 0.207468 0.463255 0.168285
N3    N     N_R   0.795430 0.560780 0.467350 -0.183475
N4    N     N_R   0.204570 0.439220 0.532650 -0.188547
C59   C     C_R   0.717517 0.670930 0.418233 -0.269964
C60   C     C_R   0.279735 0.324731 0.578841 -0.280180
C61   C     C_R   0.798993 0.641102 0.431304 0.103558
C62   C     C_R   0.200935 0.358262 0.568264 0.102397
C63   C     C_R   0.712312 0.506202 0.491058 0.068360
C64   C     C_R   0.285222 0.490891 0.507034 0.123006
C65   C     C_R   0.625917 0.531619 0.478926 -0.022154
C66   C     C_R   0.368735 0.461499 0.516393 -0.017753
C67   C     C_R   0.631269 0.617263 0.442267 0.145324
C68   C     C_R   0.363260 0.375275 0.552692 0.155782
C69   C     C_R   0.536336 0.477213 0.502509 0.088287
C70   C     C_R   0.456095 0.513291 0.490957 0.084238
C71   C     C_R   0.466078 0.599809 0.454471 -0.154864
C72   C     C_R   0.523944 0.387539 0.536875 -0.240059
C73   C     C_R   0.551333 0.649679 0.430290 -0.162660
C74   C     C_R   0.439924 0.338739 0.561950 -0.178795
H19   H     H_    0.555386 0.715514 0.402398 0.154941
H20   H     H_    0.434467 0.270989 0.588625 0.143793
H21   H     H_    0.281004 0.552804 0.478894 0.140677
H22   H     H_    0.716660 0.445257 0.519967 0.124135
H23   H     H_    0.135384 0.318117 0.587652 0.134760
H24   H     H_    0.865986 0.682923 0.413077 0.132170
H25   H     H_    0.722340 0.736208 0.389874 0.162068
H26   H     H_    0.274734 0.258811 0.606784 0.158397
H27   H     H_    0.409138 0.631367 0.443571 0.157911
H28   H     H_    0.577720 0.352256 0.544853 0.129510
O13   O     O_3   0.828661 0.495135 0.630051 -0.583755
C75   C     C_3   0.745655 0.404741 0.644257 0.055727
H29   H     H_    0.674974 0.413235 0.623797 0.182311
H30   H     H_    0.739066 0.392433 0.684585 0.141858
C76   C     C_3   0.749977 0.311298 0.630273 -0.401655
H31   H     H_    0.752570 0.322586 0.589591 0.214009
H32   H     H_    0.819759 0.300630 0.650816 0.228757
C77   C     C_3   0.657551 0.215416 0.643508 -0.848618
H33   H     H_    0.651602 0.204466 0.683784 0.272718
H34   H     H_    0.665433 0.148396 0.635955 0.262659
H35   H     H_    0.586896 0.220383 0.620733 0.239741
O14   O     O_3   0.193270 0.583642 0.368557 -0.605837
C78   C     C_3   0.214217 0.680978 0.379593 0.031063
H36   H     H_    0.244895 0.682146 0.419872 0.176323
H37   H     H_    0.146072 0.700105 0.373394 0.112566
C79   C     C_3   0.295184 0.762973 0.349539 -0.368795
H38   H     H_    0.362523 0.743296 0.355487 0.231693
H39   H     H_    0.264063 0.766570 0.309116 0.239974
C80   C     C_3   0.328486 0.866932 0.365405 -0.778297
H40   H     H_    0.262459 0.888520 0.359624 0.268552
H41   H     H_    0.386417 0.925124 0.342689 0.280016
H42   H     H_    0.362474 0.865646 0.405440 0.260183
N5    N     N_R   0.329765 0.753893 0.540336 0.112882
O15   O     O_R   0.397956 0.739307 0.523665 -0.378009
O16   O     O_R   0.296057 0.699679 0.581512 -0.363088
N6    N     N_R   0.693044 0.187420 0.443944 0.121403
O17   O     O_R   0.632270 0.114536 0.418239 -0.322026
O18   O     O_R   0.745213 0.274620 0.419723 -0.358222
N7    N     N_R   0.808946 0.010082 0.634921 0.126340
O19   O     O_R   0.881349 0.059342 0.667805 -0.327385
O20   O     O_R   0.781679 0.912428 0.638530 -0.312748
N8    N     N_R   0.181911 0.036285 0.411422 0.119212
O21   O     O_R   0.094280 0.036110 0.413791 -0.318032
O22   O     O_R   0.223168 0.080625 0.370965 -0.340351
N9    N     N_R   0.869097 0.235218 0.045210 0.114613
O23   O     O_R   0.868957 0.150307 0.072015 -0.316952
O24   O     O_R   0.802432 0.231950 0.005145 -0.309779
N10   N     N_R   0.987539 0.769951 0.937569 0.114791
O25   O     O_R   0.027020 0.862242 0.914533 -0.316544
O26   O     O_R   0.915797 0.747117 0.964015 -0.306260

loop_
_geom_bond_atom_site_label_1
_geom_bond_atom_site_label_2
_geom_bond_distance
_ccdc_geom_bond_type
C16   C18   1.400761 A    
N9    O24   1.301652 A    
C72   H28   1.076417 S    
N1    C17   1.434302 S    
C77   H33   1.110709 S    
C8    O11   1.349844 S    
C43   C51   1.414078 A    
C53   C54   1.411601 A    
C13   O13   1.387530 S    
C43   N7    1.437655 S    
C59   H25   1.083792 S    
C19   C34   1.415718 A    
O5    C3    1.301221 A    
C20   C33   1.415747 A    
C19   C25   1.405664 A    
C31   C40   1.411248 A    
O1    C1    1.297911 A    
C32   C39   1.410771 A    
C46   H15   1.083801 S    
C60   H26   1.083798 S    
N1    C7    1.368585 A    
C12   H5    1.083445 S    
C48   C50   1.421547 A    
C45   H16   1.083881 S    
C30   C34   1.418005 A    
N7    O20   1.301309 A    
C80   H42   1.111151 S    
C58   H14   1.080842 S    
C13   C15   1.405339 A    
C70   C71   1.412849 A    
N4    C62   1.356296 A    
N5    O15   1.301428 A    
N5    O16   1.302414 A    
C2    C42   1.478933 S    
C5    C21   1.402648 A    
O4    Cu1   1.933041 S    
C13   C27   1.415117 A    
C4    C28   1.466652 S    
C39   H11   1.079974 S    
C5    N1    1.368364 A    
C72   C74   1.388535 A    
O14   C78   1.418135 S    
C31   C33   1.418750 A    
C60   C62   1.390688 A    
C42   C46   1.398194 A    
C76   C77   1.525586 S    
C1    C41   1.461141 S    
C41   C45   1.398332 A    
N4    C64   1.361639 A    
N3    C63   1.362254 A    
Cu2   N3    2.021258 S    
C20   C22   1.408762 A    
O6    C4    1.298362 A    
C29   C35   1.425687 A    
C35   C37   1.399060 A    
C65   C67   1.415964 A    
Cu1   Cu2   2.690870 S    
C15   H1    1.082782 S    
N10   O26   1.301644 A    
C71   C73   1.388957 A    
C16   H2    1.083096 S    
O2    C2    1.305106 A    
C63   H22   1.074550 S    
C79   C80   1.527382 S    
C71   H27   1.076298 S    
C37   H9    1.083407 S    
C59   C67   1.401092 A    
C29   C32   1.419703 A    
N6    O18   1.300536 A    
C49   C51   1.423821 A    
C47   N6    1.448285 S    
C65   C69   1.433016 A    
C69   C72   1.411221 A    
C36   C38   1.400281 A    
C57   H13   1.081196 S    
C44   C46   1.395322 A    
C11   C27   1.407702 A    
C43   C45   1.394879 A    
C29   C33   1.417646 A    
C44   N8    1.436088 S    
C14   O14   1.384610 S    
C9    C17   1.396756 A    
C30   C36   1.426236 A    
O7    Cu2   1.948277 S    
C10   C18   1.399766 A    
C36   N10   1.437511 S    
C78   H36   1.108861 S    
O7    C3    1.302465 A    
C50   C54   1.425951 A    
C32   C34   1.418415 A    
C25   C38   1.398938 A    
C7    C25   1.405175 A    
C49   C53   1.422677 A    
C6    N2    1.368446 A    
C26   C37   1.398632 A    
C8    C26   1.403602 A    
C64   C66   1.418950 A    
C6    O10   1.349531 S    
C61   H24   1.081736 S    
C66   C68   1.416420 A    
C47   C49   1.417091 A    
O13   C75   1.417544 S    
C23   C39   1.390232 A    
O3    Cu2   1.933040 S    
O8    C4    1.298862 A    
C78   C79   1.528677 S    
C24   C40   1.391481 A    
C79   H39   1.111307 S    
C9    H8    1.082855 S    
C55   C57   1.386730 A    
N8    O22   1.301260 A    
C35   N9    1.437714 S    
C10   H7    1.082904 S    
C60   C68   1.401382 A    
C42   C48   1.415408 A    
N10   O25   1.301474 A    
C20   C26   1.405521 A    
O4    C2    1.297950 A    
O1    Cu1   1.943568 S    
C41   C47   1.406781 A    
C23   H3    1.083268 S    
C22   C24   1.399270 A    
C77   H35   1.109749 S    
N3    C61   1.356557 A    
C51   C57   1.400583 A    
C53   C56   1.407279 A    
C12   C28   1.402107 A    
C76   H32   1.111134 S    
N6    O17   1.302029 A    
N2    C18   1.434456 S    
C21   C23   1.398907 A    
C5    O9    1.349758 S    
C30   C31   1.421436 A    
O6    Cu2   1.943791 S    
C63   C65   1.419870 A    
C64   H21   1.072584 S    
C10   C12   1.391649 A    
N2    C8    1.368699 A    
C79   H38   1.111755 S    
O3    C1    1.297704 A    
O8    Cu1   1.948274 S    
C77   H34   1.106892 S    
C80   H40   1.110935 S    
C59   C61   1.390691 A    
C55   H17   1.077960 S    
C69   C70   1.433965 A    
C52   C58   1.404064 A    
Cu1   N4    2.021261 S    
C67   C73   1.394056 A    
C75   C76   1.536009 S    
C73   H19   1.084361 S    
C7    O12   1.349566 S    
C15   C17   1.397951 A    
N7    O19   1.301416 A    
C6    C22   1.404253 A    
C68   C74   1.393649 A    
C80   H41   1.110152 S    
C62   H23   1.081775 S    
C76   H31   1.110567 S    
C38   H10   1.083407 S    
C14   C28   1.415840 A    
C19   C21   1.408616 A    
C14   C16   1.398739 A    
C66   C70   1.434055 A    
C50   C52   1.424256 A    
C11   H6    1.083072 S    
C9    C11   1.392642 A    
O2    Cu2   1.943568 S    
C74   H20   1.084025 S    
C24   H4    1.083249 S    
C48   N5    1.436713 S    
O5    Cu1   1.943791 S    
N8    O21   1.301180 A    
C40   H12   1.079850 S    
C44   C52   1.414284 A    
C54   C55   1.407533 A    
C3    C27   1.478406 S    
N9    O23   1.301480 A    
C78   H37   1.117601 S    
C56   C58   1.389035 A    
C56   H18   1.081779 S    
C75   H29   1.108947 S    
C75   H30   1.112312 S    
