data_mof_unit_56186.cif
_audit_creation_date              2012-12-10T17:46:28-0500
_audit_creation_method            fapswitch 2.2
_symmetry_space_group_name_H-M    P1
_symmetry_Int_Tables_number       1
_space_group_crystal_system       monoclinic
_cell_length_a                    21.743163
_cell_length_b                    20.727289
_cell_length_c                    14.765156
_cell_angle_alpha                 90.0
_cell_angle_beta                  126.827212
_cell_angle_gamma                 90.0
_cell_volume                      5326.42390177

loop_
_atom_site_label
_atom_site_type_symbol
_atom_type_description
_atom_site_fract_x
_atom_site_fract_y
_atom_site_fract_z
_atom_type_partial_charge
C1    C     C_R   0.601673 0.913904 0.631069 0.822963
C2    C     C_R   0.695547 0.210372 0.107272 -0.245179
C3    C     C_R   0.706770 0.759067 0.940611 0.044742
C4    C     C_R   0.230373 0.718508 0.978760 0.023154
C5    C     C_R   0.793230 0.259067 0.059389 0.044742
C6    C     C_R   0.769627 0.718507 0.021240 0.023154
C7    C     C_R   0.206770 0.259068 0.940612 0.044742
C8    C     C_R   0.356373 0.767441 0.054063 0.059008
C9    C     C_R   0.674185 0.204258 0.997338 0.068357
C10   C     C_R   0.643627 0.767441 0.945937 0.059008
C11   C     C_R   0.325815 0.204258 0.002662 0.068356
C12   C     C_R   0.856373 0.267441 0.054063 0.059008
C13   C     C_R   0.651324 0.746830 0.042329 -0.254612
C14   C     C_R   0.174185 0.704259 0.997338 0.068357
C15   C     C_R   0.143627 0.267441 0.945938 0.059008
C16   C     C_R   0.825815 0.704258 0.002662 0.068357
C17   C     C_3   0.359118 0.001024 0.022663 -0.424536
C18   C     C_3   0.272132 0.015606 0.948719 -0.367494
C19   C     C_3   0.237389 0.997957 0.009854 -0.846439
C20   C     C_3   0.640882 0.001024 0.977337 -0.424536
C21   C     C_3   0.727868 0.015605 0.051281 -0.367494
C22   C     C_3   0.762611 0.997956 0.990146 -0.846438
C23   C     C_3   0.859118 0.501024 0.022663 -0.424536
C24   C     C_R   0.304454 0.210373 0.892729 -0.245178
C25   C     C_3   0.772133 0.515606 0.948719 -0.367495
C26   C     C_3   0.737389 0.497957 0.009855 -0.846440
C27   C     C_3   0.140882 0.501024 0.977337 -0.424536
C28   C     C_3   0.227867 0.515606 0.051281 -0.367494
C29   C     C_3   0.262611 0.497957 0.990146 -0.846440
C30   C     C_3   0.388768 0.629147 0.829460 0.054133
C31   C     C_3   0.463055 0.632930 0.842129 -0.833945
C32   C     C_3   0.736171 0.261073 0.415503 0.057213
C33   C     C_3   0.689223 0.222727 0.442229 -0.801906
C34   C     C_3   0.611232 0.629148 0.170541 0.054133
C35   C     C_R   0.848676 0.246830 0.957670 -0.254613
C36   C     C_3   0.536945 0.632930 0.157873 -0.833945
C37   C     C_3   0.263829 0.261073 0.584497 0.057213
C38   C     C_3   0.310777 0.222727 0.557772 -0.801907
C39   C     C_3   0.888768 0.129148 0.829460 0.054132
C40   C     C_3   0.963053 0.132930 0.842124 -0.833947
C41   C     C_3   0.236171 0.761073 0.415503 0.057214
C42   C     C_3   0.189223 0.722727 0.442229 -0.801906
C43   C     C_3   0.111231 0.129148 0.170539 0.054133
C44   C     C_3   0.036946 0.132930 0.157873 -0.833944
C45   C     C_3   0.763829 0.761073 0.584497 0.057214
C46   C     C_R   0.195546 0.710373 0.107271 -0.245178
C47   C     C_3   0.810777 0.722727 0.557772 -0.801906
C48   C     C_3   0.437255 0.787506 0.154705 -0.380754
C49   C     C_3   0.467515 0.746163 0.260337 -0.313746
C50   C     C_3   0.551949 0.759798 0.352801 -0.884848
C51   C     C_3   0.590512 0.187856 0.905277 -0.405346
C52   C     C_3   0.534065 0.233833 0.902192 -0.380924
C53   C     C_3   0.456506 0.200956 0.844631 -0.824059
C54   C     C_3   0.562745 0.787506 0.845294 -0.380752
C55   C     C_3   0.532485 0.746163 0.739663 -0.313745
C56   C     C_3   0.448050 0.759798 0.647199 -0.884848
C57   C     C_R   0.151324 0.246830 0.042330 -0.254613
C58   C     C_3   0.409488 0.187856 0.094723 -0.405346
C59   C     C_3   0.465935 0.233833 0.097809 -0.380924
C60   C     C_3   0.543494 0.200956 0.155369 -0.824060
C61   C     C_3   0.937255 0.287506 0.154705 -0.380753
C62   C     C_3   0.967515 0.246163 0.260337 -0.313745
C63   C     C_3   0.051950 0.259798 0.352801 -0.884848
C64   C     C_3   0.090512 0.687856 0.905277 -0.405346
C65   C     C_3   0.034065 0.733834 0.902191 -0.380924
C66   C     C_3   0.956506 0.700956 0.844631 -0.824059
C67   C     C_3   0.062745 0.287507 0.845295 -0.380753
C68   C     C_R   0.804453 0.710372 0.892729 -0.245179
C69   C     C_3   0.032485 0.246164 0.739663 -0.313746
C70   C     C_3   0.948051 0.259800 0.647199 -0.884848
C71   C     C_3   0.909488 0.687856 0.094723 -0.405347
C72   C     C_3   0.965934 0.733834 0.097809 -0.380925
C73   C     C_3   0.043494 0.700957 0.155369 -0.824057
C74   C     C_3   0.246939 0.042531 0.611789 -0.436474
C75   C     C_3   0.194152 0.040585 0.481676 -0.364162
C76   C     C_3   0.110152 0.049334 0.434757 -0.840135
C77   C     C_3   0.753061 0.042531 0.388211 -0.436473
C78   C     C_3   0.805848 0.040584 0.518324 -0.364161
C79   C     C_R   0.331899 0.027011 0.670759 -0.001910
C80   C     C_3   0.889848 0.049333 0.565243 -0.840134
C81   C     C_3   0.746939 0.542531 0.611789 -0.436473
C82   C     C_3   0.694152 0.540585 0.481676 -0.364163
C83   C     C_3   0.610152 0.549334 0.434757 -0.840133
C84   C     C_3   0.253061 0.542532 0.388211 -0.436473
C85   C     C_3   0.305848 0.540586 0.518324 -0.364163
C86   C     C_3   0.389847 0.549335 0.565243 -0.840134
C87   C     C_R   0.668100 0.027010 0.329241 -0.001911
C88   C     C_R   0.831899 0.527010 0.670758 -0.001911
C89   C     C_R   0.395941 0.083802 0.365522 0.825620
C90   C     C_R   0.168100 0.527011 0.329241 -0.001911
C91   C     C_R   0.360391 0.019758 0.607868 0.053023
C92   C     C_R   0.639609 0.019758 0.392132 0.053023
C93   C     C_R   0.860391 0.519758 0.607868 0.053023
C94   C     C_R   0.139608 0.519758 0.392132 0.053023
C95   C     C_R   0.480826 0.985610 0.769930 -0.033098
C96   C     C_R   0.519174 0.985610 0.230070 -0.033098
C97   C     C_R   0.980826 0.485610 0.769930 -0.033098
C98   C     C_R   0.019174 0.485610 0.230070 -0.033098
C99   C     C_R   0.461714 0.001019 0.844252 -0.038333
C100  C     C_R   0.398327 0.913904 0.368931 0.822963
C101  C     C_R   0.538286 0.001019 0.155748 -0.038334
C102  C     C_R   0.961714 0.501019 0.844252 -0.038334
C103  C     C_R   0.038286 0.501019 0.155748 -0.038334
C104  C     C_R   0.384128 0.018840 0.790772 0.084391
C105  C     C_R   0.615872 0.018840 0.209228 0.084391
C106  C     C_R   0.884128 0.518840 0.790772 0.084391
C107  C     C_R   0.115872 0.518840 0.209228 0.084391
C108  C     C_R   0.515411 0.001574 0.967575 0.005280
C109  C     C_R   0.484589 0.001574 0.032425 0.005280
C110  C     C_R   0.015411 0.501574 0.967575 0.005280
C111  C     C_R   0.604059 0.083802 0.634478 0.825619
C112  C     C_R   0.984589 0.501574 0.032425 0.005279
C113  C     C_R   0.402394 0.009411 0.970949 0.073839
C114  C     C_R   0.597606 0.009411 0.029051 0.073839
C115  C     C_R   0.902394 0.509411 0.970949 0.073839
C116  C     C_R   0.097606 0.509412 0.029051 0.073839
C117  C     C_R   0.358402 0.026397 0.856596 -0.213092
C118  C     C_R   0.641598 0.026397 0.143404 -0.213092
C119  C     C_R   0.858402 0.526397 0.856596 -0.213092
C120  C     C_R   0.141597 0.526397 0.143404 -0.213092
C121  C     C_R   0.666916 0.127302 0.716093 -0.114570
C122  C     C_R   0.101673 0.413904 0.631069 0.822962
C123  C     C_R   0.345223 0.860958 0.302249 -0.093370
C124  C     C_R   0.333084 0.127302 0.283907 -0.114571
C125  C     C_R   0.654777 0.860958 0.697751 -0.093370
C126  C     C_R   0.166916 0.627301 0.716093 -0.114570
C127  C     C_R   0.845223 0.360958 0.302249 -0.093370
C128  C     C_R   0.833084 0.627302 0.283907 -0.114570
C129  C     C_R   0.154777 0.360958 0.697751 -0.093370
C130  C     C_R   0.784399 0.183963 0.784606 0.441882
C131  C     C_R   0.263986 0.772007 0.283831 0.441738
C132  C     C_R   0.215601 0.183963 0.215394 0.441882
C133  C     C_R   0.895941 0.583803 0.365522 0.825620
C134  C     C_R   0.736014 0.772006 0.716168 0.441738
C135  C     C_R   0.284399 0.683963 0.784606 0.441882
C136  C     C_R   0.763987 0.272006 0.283832 0.441738
C137  C     C_R   0.715601 0.683963 0.215394 0.441883
C138  C     C_R   0.236014 0.272006 0.716169 0.441738
C139  C     C_R   0.721076 0.147803 0.700574 -0.299021
C140  C     C_R   0.313869 0.824493 0.345380 -0.325958
C141  C     C_R   0.278924 0.147803 0.299426 -0.299021
C142  C     C_R   0.686131 0.824493 0.654620 -0.325958
C143  C     C_R   0.221076 0.647803 0.700574 -0.299023
C144  C     C_R   0.898327 0.413904 0.368931 0.822964
C145  C     C_R   0.813869 0.324493 0.345380 -0.325958
C146  C     C_R   0.778924 0.647803 0.299426 -0.299022
C147  C     C_R   0.186131 0.324493 0.654620 -0.325958
C148  C     C_R   0.676735 0.144143 0.815335 -0.284431
C149  C     C_R   0.330210 0.843860 0.200015 -0.262048
C150  C     C_R   0.323265 0.144143 0.184666 -0.284431
C151  C     C_R   0.669790 0.843860 0.799984 -0.262048
C152  C     C_R   0.176735 0.644143 0.815334 -0.284430
C153  C     C_R   0.830210 0.343860 0.200016 -0.262048
C154  C     C_R   0.823265 0.644143 0.184666 -0.284430
C155  C     C_R   0.104059 0.583802 0.634478 0.825619
C156  C     C_R   0.169790 0.343860 0.799985 -0.262048
C157  C     C_R   0.728828 0.192315 0.887800 0.036028
C158  C     C_R   0.292828 0.785985 0.147361 0.017025
C159  C     C_R   0.271172 0.192315 0.112201 0.036028
C160  C     C_R   0.707171 0.785985 0.852639 0.017026
C161  C     C_R   0.228828 0.692315 0.887800 0.036027
C162  C     C_R   0.792829 0.285985 0.147361 0.017025
C163  C     C_R   0.771172 0.692315 0.112200 0.036028
C164  C     C_R   0.207172 0.285985 0.852639 0.017026
C165  C     C_R   0.786103 0.209883 0.874696 0.040142
C166  C     C_R   0.348676 0.746830 0.957671 -0.254612
C167  C     C_R   0.252212 0.754529 0.181681 0.043776
C168  C     C_R   0.213897 0.209883 0.125304 0.040141
C169  C     C_R   0.747788 0.754529 0.818319 0.043776
C170  C     C_R   0.286103 0.709883 0.874696 0.040142
C171  C     C_R   0.752212 0.254529 0.181681 0.043776
C172  C     C_R   0.713897 0.709883 0.125304 0.040142
C173  C     C_R   0.247788 0.254530 0.818320 0.043776
C174  C     C_R   0.730373 0.218507 0.978761 0.023154
C175  C     C_R   0.293230 0.759068 0.059388 0.044742
C176  C     C_R   0.269627 0.218508 0.021240 0.023154
Cu1   Cu    Cu3+1 0.526640 0.000000 0.436960 0.921130
Cu2   Cu    Cu3+1 0.473360 0.000000 0.563040 0.921130
Cu3   Cu    Cu3+1 0.026640 0.500000 0.436960 0.921130
Cu4   Cu    Cu3+1 0.973360 0.500000 0.563040 0.921130
H1    H     H_    0.394852 0.756174 0.950929 0.179756
H2    H     H_    0.645579 0.116720 0.837164 0.167249
H3    H     H_    0.783091 0.812258 0.597794 0.144790
H4    H     H_    0.703146 0.756607 0.509992 0.168526
H5    H     H_    0.807092 0.670244 0.568882 0.258327
H6    H     H_    0.788383 0.731966 0.468823 0.222374
H7    H     H_    0.871468 0.738852 0.612493 0.235017
H8    H     H_    0.586760 0.749074 0.322341 0.285962
H9    H     H_    0.559837 0.811264 0.378589 0.264014
H10   H     H_    0.572140 0.729020 0.427412 0.239971
H11   H     H_    0.436364 0.755968 0.296562 0.233370
H12   H     H_    0.459230 0.694271 0.237726 0.214611
H13   H     H_    0.652167 0.875798 0.838075 0.154188
H14   H     H_    0.478001 0.781516 0.133270 0.199556
H15   H     H_    0.441640 0.839413 0.174194 0.183956
H16   H     H_    0.439481 0.176035 0.766312 0.271520
H17   H     H_    0.459143 0.163988 0.901183 0.253227
H18   H     H_    0.413479 0.238083 0.824408 0.279550
H19   H     H_    0.554031 0.249712 0.987359 0.233870
H20   H     H_    0.527136 0.278043 0.854121 0.218549
H21   H     H_    0.575076 0.192652 0.819307 0.208459
H22   H     H_    0.580252 0.137560 0.919169 0.210645
H23   H     H_    0.413240 0.749074 0.677659 0.285961
H24   H     H_    0.354421 0.116721 0.162836 0.167249
H25   H     H_    0.440163 0.811264 0.621411 0.264014
H26   H     H_    0.427860 0.729020 0.572587 0.239971
H27   H     H_    0.563636 0.755969 0.703437 0.233370
H28   H     H_    0.540770 0.694271 0.762273 0.214610
H29   H     H_    0.521999 0.781516 0.866730 0.199556
H30   H     H_    0.558359 0.839413 0.825806 0.183956
H31   H     H_    0.586521 0.238083 0.175592 0.279550
H32   H     H_    0.560520 0.176034 0.233688 0.271520
H33   H     H_    0.540857 0.163988 0.098816 0.253227
H34   H     H_    0.445970 0.249712 0.012641 0.233870
H35   H     H_    0.847833 0.375798 0.161925 0.154187
H36   H     H_    0.472865 0.278043 0.145880 0.218549
H37   H     H_    0.424925 0.192652 0.180693 0.208459
H38   H     H_    0.419748 0.137560 0.080831 0.210646
H39   H     H_    0.086760 0.249074 0.322340 0.285962
H40   H     H_    0.059837 0.311264 0.378589 0.264014
H41   H     H_    0.072140 0.229020 0.427412 0.239971
H42   H     H_    0.936364 0.255968 0.296562 0.233369
H43   H     H_    0.959231 0.194271 0.237726 0.214611
H44   H     H_    0.978001 0.281516 0.133269 0.199556
H45   H     H_    0.941640 0.339413 0.174194 0.183956
H46   H     H_    0.145579 0.616721 0.837164 0.167249
H47   H     H_    0.939480 0.676034 0.766313 0.271520
H48   H     H_    0.959143 0.663988 0.901184 0.253227
H49   H     H_    0.913479 0.738083 0.824408 0.279550
H50   H     H_    0.054030 0.749712 0.987359 0.233870
H51   H     H_    0.027135 0.778043 0.854120 0.218549
H52   H     H_    0.075076 0.692653 0.819307 0.208459
H53   H     H_    0.080251 0.637560 0.919168 0.210646
H54   H     H_    0.913240 0.249076 0.677660 0.285961
H55   H     H_    0.940164 0.311265 0.621412 0.264015
H56   H     H_    0.927860 0.229021 0.572588 0.239971
H57   H     H_    0.152167 0.375798 0.838075 0.154188
H58   H     H_    0.063636 0.255968 0.703438 0.233370
H59   H     H_    0.040769 0.194272 0.762274 0.214611
H60   H     H_    0.022000 0.281517 0.866731 0.199555
H61   H     H_    0.058360 0.339414 0.825806 0.183956
H62   H     H_    0.086521 0.738084 0.175592 0.279549
H63   H     H_    0.060520 0.676036 0.233688 0.271520
H64   H     H_    0.040858 0.663989 0.098817 0.253226
H65   H     H_    0.945969 0.749712 0.012641 0.233870
H66   H     H_    0.972864 0.778043 0.145879 0.218549
H67   H     H_    0.924925 0.692652 0.180693 0.208459
H68   H     H_    0.854421 0.616721 0.162836 0.167249
H69   H     H_    0.919748 0.637560 0.080831 0.210646
H70   H     H_    0.093322 0.012999 0.471521 0.250004
H71   H     H_    0.100807 0.098540 0.454249 0.257871
H72   H     H_    0.072849 0.042463 0.341697 0.238641
H73   H     H_    0.209844 0.079821 0.447686 0.218198
H74   H     H_    0.199996 0.993207 0.452179 0.213508
H75   H     H_    0.224086 0.006213 0.640088 0.203406
H76   H     H_    0.242582 0.091186 0.639309 0.232486
H77   H     H_    0.906678 0.012998 0.528478 0.250004
H78   H     H_    0.899193 0.098539 0.545751 0.257871
H79   H     H_    0.328204 0.838417 0.426348 0.147873
H80   H     H_    0.927151 0.042462 0.658303 0.238641
H81   H     H_    0.790156 0.079821 0.552314 0.218197
H82   H     H_    0.800004 0.993206 0.547821 0.213507
H83   H     H_    0.775914 0.006213 0.359912 0.203405
H84   H     H_    0.757418 0.091185 0.360692 0.232486
H85   H     H_    0.593322 0.512999 0.471521 0.250004
H86   H     H_    0.600807 0.598540 0.454249 0.257871
H87   H     H_    0.572849 0.542464 0.341697 0.238640
H88   H     H_    0.709844 0.579821 0.447687 0.218198
H89   H     H_    0.699996 0.493207 0.452179 0.213508
H90   H     H_    0.718800 0.130642 0.629357 0.157920
H91   H     H_    0.724086 0.506213 0.640087 0.203406
H92   H     H_    0.742582 0.591186 0.639309 0.232486
H93   H     H_    0.406678 0.513001 0.528479 0.250004
H94   H     H_    0.399192 0.598542 0.545750 0.257872
H95   H     H_    0.427151 0.542466 0.658303 0.238640
H96   H     H_    0.290156 0.579822 0.552313 0.218198
H97   H     H_    0.300004 0.493208 0.547821 0.213507
H98   H     H_    0.275914 0.506214 0.359913 0.203406
H99   H     H_    0.257417 0.591186 0.360691 0.232487
H100  H     H_    0.671796 0.838416 0.573652 0.147873
H101  H     H_    0.660192 0.188266 0.127510 0.193408
H102  H     H_    0.281199 0.130642 0.370643 0.157920
H103  H     H_    0.828204 0.338416 0.426348 0.147873
H104  H     H_    0.218801 0.630642 0.629358 0.157920
H105  H     H_    0.171796 0.338416 0.573652 0.147873
H106  H     H_    0.781200 0.630642 0.370643 0.157920
H107  H     H_    0.301106 0.043860 0.816272 0.139370
H108  H     H_    0.698894 0.043860 0.183728 0.139370
H109  H     H_    0.801106 0.543860 0.816272 0.139370
H110  H     H_    0.198894 0.543860 0.183728 0.139370
H111  H     H_    0.468729 0.959757 0.203366 0.130064
H112  H     H_    0.605148 0.756174 0.049071 0.179756
H113  H     H_    0.531271 0.959757 0.796633 0.130064
H114  H     H_    0.968729 0.459756 0.203366 0.130064
H115  H     H_    0.031272 0.459757 0.796633 0.130064
H116  H     H_    0.675384 0.028660 0.481881 0.129641
H117  H     H_    0.324616 0.028660 0.518119 0.129641
H118  H     H_    0.175384 0.528660 0.481881 0.129641
H119  H     H_    0.824616 0.528660 0.518119 0.129641
H120  H     H_    0.237267 0.944777 0.018671 0.252918
H121  H     H_    0.270336 0.020120 0.095175 0.256370
H122  H     H_    0.177128 0.015401 0.960018 0.239321
H123  H     H_    0.339809 0.188266 0.872490 0.193408
H124  H     H_    0.262344 0.067890 0.927741 0.226178
H125  H     H_    0.241399 0.986789 0.869411 0.221551
H126  H     H_    0.363999 0.949265 0.045379 0.196650
H127  H     H_    0.385204 0.033022 0.097047 0.198401
H128  H     H_    0.762732 0.944777 0.981328 0.252918
H129  H     H_    0.729664 0.020120 0.904825 0.256369
H130  H     H_    0.822872 0.015400 0.039982 0.239321
H131  H     H_    0.737656 0.067889 0.072259 0.226178
H132  H     H_    0.758600 0.986789 0.130589 0.221552
H133  H     H_    0.636000 0.949265 0.954621 0.196650
H134  H     H_    0.894851 0.256175 0.950929 0.179757
H135  H     H_    0.614796 0.033022 0.902953 0.198401
H136  H     H_    0.737268 0.444777 0.018672 0.252919
H137  H     H_    0.770337 0.520120 0.095176 0.256370
H138  H     H_    0.677128 0.515401 0.960018 0.239321
H139  H     H_    0.762344 0.567890 0.927741 0.226178
H140  H     H_    0.741399 0.486789 0.869412 0.221551
H141  H     H_    0.863999 0.449265 0.045379 0.196650
H142  H     H_    0.885204 0.533022 0.097047 0.198401
H143  H     H_    0.262733 0.444777 0.981329 0.252919
H144  H     H_    0.229664 0.520120 0.904825 0.256370
H145  H     H_    0.160191 0.688266 0.127510 0.193408
H146  H     H_    0.322872 0.515401 0.039982 0.239321
H147  H     H_    0.237656 0.567890 0.072259 0.226178
H148  H     H_    0.258601 0.486789 0.130589 0.221552
H149  H     H_    0.136001 0.449266 0.954621 0.196650
H150  H     H_    0.114796 0.533022 0.902953 0.198401
H151  H     H_    0.354744 0.588076 0.771823 0.145714
H152  H     H_    0.403389 0.618937 0.914445 0.146794
H153  H     H_    0.498559 0.673526 0.898709 0.256492
H154  H     H_    0.495729 0.587246 0.878619 0.195186
H155  H     H_    0.449383 0.640057 0.757627 0.263392
H156  H     H_    0.105149 0.256175 0.049071 0.179756
H157  H     H_    0.716909 0.312258 0.402206 0.144790
H158  H     H_    0.796854 0.256607 0.490008 0.168526
H159  H     H_    0.692908 0.170244 0.431119 0.258327
H160  H     H_    0.711616 0.231966 0.531177 0.222375
H161  H     H_    0.628532 0.238852 0.387507 0.235018
H162  H     H_    0.645257 0.588076 0.228176 0.145713
H163  H     H_    0.596610 0.618938 0.085554 0.146794
H164  H     H_    0.501442 0.673526 0.101294 0.256492
H165  H     H_    0.504272 0.587246 0.121383 0.195186
H166  H     H_    0.550619 0.640056 0.242376 0.263392
H167  H     H_    0.839808 0.688266 0.872490 0.193408
H168  H     H_    0.283091 0.312258 0.597794 0.144791
H169  H     H_    0.203146 0.256607 0.509992 0.168526
H170  H     H_    0.307092 0.170244 0.568882 0.258327
H171  H     H_    0.288384 0.231966 0.468823 0.222375
H172  H     H_    0.371468 0.238852 0.612493 0.235018
H173  H     H_    0.854743 0.088076 0.771826 0.145713
H174  H     H_    0.903391 0.118939 0.914447 0.146795
H175  H     H_    0.998558 0.173526 0.898703 0.256491
H176  H     H_    0.995727 0.087246 0.878612 0.195186
H177  H     H_    0.949379 0.140056 0.757620 0.263394
H178  H     H_    0.347833 0.875798 0.161925 0.154187
H179  H     H_    0.216910 0.812258 0.402206 0.144790
H180  H     H_    0.296854 0.756607 0.490008 0.168526
H181  H     H_    0.192908 0.670244 0.431118 0.258327
H182  H     H_    0.211617 0.731965 0.531178 0.222375
H183  H     H_    0.128532 0.738852 0.387508 0.235017
H184  H     H_    0.145256 0.088076 0.228173 0.145713
H185  H     H_    0.096609 0.118940 0.085552 0.146795
H186  H     H_    0.001442 0.173526 0.101295 0.256491
H187  H     H_    0.004272 0.087246 0.121383 0.195185
H188  H     H_    0.050620 0.140055 0.242377 0.263392
N1    N     N_R   0.433280 1.000000 0.657760 -0.196849
N2    N     N_R   0.566720 0.000000 0.342240 -0.196849
N3    N     N_R   0.933280 0.500000 0.657760 -0.196849
N4    N     N_R   0.066720 0.500000 0.342240 -0.196849
O1    O     O_R   0.600040 0.935040 0.546740 -0.592000
O2    O     O_R   0.444990 0.064930 0.346780 -0.584191
O3    O     O_R   0.444990 0.935070 0.346780 -0.595287
O4    O     O_R   0.555010 0.064930 0.653220 -0.584191
O5    O     O_R   0.055010 0.435070 0.653220 -0.595287
O6    O     O_R   0.944990 0.564930 0.346780 -0.584191
O7    O     O_R   0.944990 0.435070 0.346780 -0.595287
O8    O     O_R   0.055010 0.564930 0.653220 -0.584191
O9    O     O_3   0.347893 0.687922 0.784733 -0.601505
O10   O     O_3   0.726904 0.235948 0.318792 -0.615264
O11   O     O_3   0.652108 0.687922 0.215267 -0.601505
O12   O     O_R   0.399960 0.064960 0.453260 -0.596799
O13   O     O_3   0.273097 0.235948 0.681208 -0.615264
O14   O     O_3   0.847892 0.187923 0.784732 -0.601504
O15   O     O_3   0.226903 0.735948 0.318792 -0.615264
O16   O     O_3   0.152108 0.187922 0.215267 -0.601505
O17   O     O_3   0.773096 0.735948 0.681208 -0.615264
O18   O     O_R   0.399960 0.935040 0.453260 -0.592001
O19   O     O_R   0.600040 0.064960 0.546740 -0.596799
O20   O     O_R   0.100040 0.435040 0.546740 -0.592000
O21   O     O_R   0.899960 0.564960 0.453260 -0.596799
O22   O     O_R   0.899960 0.435040 0.453260 -0.592001
O23   O     O_R   0.100040 0.564960 0.546740 -0.596799
O24   O     O_R   0.555010 0.935070 0.653220 -0.595287

loop_
_geom_bond_atom_site_label_1
_geom_bond_atom_site_label_2
_ccdc_geom_bond_type
Cu4   O22   S    
C5    C174  A    
C71   H67   S    
C75   H74   S    
C76   H70   S    
Cu1   O19   S    
C8    C175  A    
C37   H169  S    
C55   H28   S    
Cu4   O8    S    
C65   H50   S    
C90   C107  A    
C25   H139  S    
C58   H37   S    
C95   C99   A    
C84   H99   S    
C126  C143  A    
C108  C109  A    
C22   H128  S    
C72   H66   S    
C124  C150  A    
C131  C140  A    
C37   H168  S    
C13   C172  A    
C56   H25   S    
C134  C169  A    
C66   H47   S    
C150  H24   S    
C32   H158  S    
C41   H180  S    
C128  C154  A    
C2    C171  A    
C23   H141  S    
C7    C15   A    
C59   C60   S    
C21   C22   S    
C111  O19   A    
C16   C71   S    
C158  C167  A    
C2    H101  S    
C45   C47   S    
C42   H181  S    
C150  C159  A    
C51   C52   S    
C44   H187  S    
C137  C146  A    
C83   H85   S    
C5    C12   A    
C56   H23   S    
C103  C112  A    
C75   C76   S    
C37   C38   S    
C42   H182  S    
C68   C169  A    
C136  C171  A    
C14   C64   S    
C164  C173  A    
C47   H6    S    
C163  C172  A    
C60   H32   S    
C127  C145  A    
C43   O16   S    
C130  O14   S    
C74   C79   S    
C85   H97   S    
C105  C118  A    
C39   H173  S    
C142  H100  S    
C76   H72   S    
C110  C116  A    
C107  C120  A    
C153  H35   S    
C68   H167  S    
C104  C117  A    
C93   N3    A    
C77   H83   S    
C29   H143  S    
C133  O6    A    
C72   C73   S    
C129  C156  A    
C156  H57   S    
C27   H150  S    
C85   H96   S    
C53   H17   S    
C86   H95   S    
C119  H109  S    
C32   C33   S    
C130  C165  A    
C149  H178  S    
C136  O10   S    
C134  O17   S    
C70   H55   S    
C4    C14   A    
C69   C70   S    
C61   H45   S    
C141  H102  S    
C129  C147  A    
C81   C88   S    
Cu1   Cu2   S    
C6    C16   A    
C20   C21   S    
C53   H16   S    
C4    C161  A    
C93   H119  S    
C103  C107  A    
C80   H77   S    
C71   H69   S    
C45   H4    S    
C111  O4    A    
C155  O8    A    
C67   H60   S    
Cu3   N4    S    
C3    C6    A    
C50   H8    S    
C6    C163  A    
C17   C113  S    
C57   C168  A    
C85   C86   S    
C99   C108  A    
C11   C176  A    
C78   C80   S    
C63   H39   S    
C88   C106  A    
C31   H154  S    
C29   H146  S    
C135  C170  A    
C50   H9    S    
C125  C151  A    
C24   H123  S    
C126  C152  A    
C73   H62   S    
C4    C175  A    
C84   H98   S    
C17   H126  S    
C21   H132  S    
C52   H20   S    
C11   C58   S    
C149  C158  A    
C125  C142  A    
C79   C91   A    
C152  C161  A    
C51   H22   S    
C157  C174  A    
C135  C143  A    
C26   H138  S    
C131  C167  A    
C30   H151  S    
C78   H82   S    
C84   C90   S    
C95   N1    A    
Cu2   O4    S    
C54   H29   S    
C162  C171  A    
C86   H93   S    
C157  C165  A    
C39   C40   S    
C25   C26   S    
C92   N2    A    
C81   H92   S    
Cu1   O1    S    
C116  C120  A    
C89   O12   A    
C44   H186  S    
C36   H165  S    
C133  O21   A    
C87   C105  A    
C15   C67   S    
C7    C176  A    
C40   H175  S    
C17   C18   S    
C19   H122  S    
C94   H118  S    
C12   C35   A    
C113  C117  A    
C166  C170  A    
C115  C119  A    
C159  C176  A    
C48   H15   S    
C124  C141  A    
C117  H107  S    
C47   H7    S    
C145  H103  S    
Cu3   O7    S    
C52   C53   S    
C41   O15   S    
C132  C141  A    
C54   C55   S    
C46   H145  S    
C118  H108  S    
C97   C102  A    
C34   O11   S    
C75   H73   S    
C89   C124  S    
C55   H27   S    
Cu4   O5    S    
C121  C139  A    
C61   H44   S    
C71   C72   S    
C132  O16   S    
C58   H38   S    
C128  C146  A    
C73   H64   S    
C131  O15   S    
C64   C65   S    
C99   C104  A    
C22   H129  S    
C34   C36   S    
C148  C157  A    
C62   H42   S    
C61   C62   S    
Cu2   O24   S    
C147  H105  S    
C158  C175  A    
C54   H30   S    
C56   H26   S    
C77   C87   S    
C13   H112  S    
C49   C50   S    
C66   H48   S    
C82   H88   S    
C87   C92   A    
C2    C9    A    
C41   H179  S    
C55   C56   S    
C106  C119  A    
C41   C42   S    
C63   H41   S    
C98   N4    A    
C9    C51   S    
C120  H110  S    
C38   H170  S    
C14   C46   A    
C49   H12   S    
C77   C78   S    
C33   H159  S    
C66   H49   S    
Cu1   O3    S    
C1    O24   A    
C82   H89   S    
C44   H188  S    
C28   C29   S    
C77   H84   S    
C30   C31   S    
C28   H147  S    
C24   C173  A    
C101  C109  A    
C98   C103  A    
C19   H120  S    
C18   C19   S    
Cu2   O18   S    
C108  C114  A    
C137  C172  A    
C160  C169  A    
C31   H155  S    
C39   O14   S    
C47   H5    S    
C69   H58   S    
C122  C129  S    
C45   O17   S    
C74   H75   S    
C43   H184  S    
C126  C155  S    
Cu4   O21   S    
C96   C101  A    
C137  O11   S    
C130  C139  A    
C33   H160  S    
C90   C94   A    
C34   H163  S    
C139  H90   S    
C65   H51   S    
C89   O2    A    
C46   C167  A    
C64   H52   S    
C59   H36   S    
C20   H133  S    
C27   H149  S    
C144  O22   A    
C18   H125  S    
C122  O5    A    
C63   H40   S    
C8    C48   S    
C62   C63   S    
C134  C142  A    
C138  C173  A    
Cu1   N2    S    
C121  C148  A    
C70   H56   S    
C84   C85   S    
C32   H157  S    
C35   H134  S    
C152  H46   S    
C23   H142  S    
C48   C49   S    
C102  C110  A    
C80   H78   S    
C95   H113  S    
C45   H3    S    
C33   H161  S    
C48   H14   S    
C97   H115  S    
C83   H86   S    
C97   N3    A    
C7    C164  A    
C92   H116  S    
C153  C162  A    
C100  C123  S    
C5    C162  A    
C151  H13   S    
C58   C59   S    
C135  O9    S    
C20   C114  S    
C12   C61   S    
C96   N2    A    
C100  O18   A    
C31   H153  S    
C127  C144  S    
C50   H10   S    
C60   H31   S    
Cu2   O12   S    
Cu3   Cu4   S    
C148  H2    S    
C82   C83   S    
C21   H131  S    
C39   H174  S    
C76   H71   S    
C51   H21   S    
C25   H140  S    
C72   H65   S    
C123  C149  A    
C140  H79   S    
C111  C121  S    
C29   H144  S    
C30   H152  S    
C96   H111  S    
C43   C44   S    
Cu2   N1    S    
C127  C153  A    
C81   C82   S    
C67   H61   S    
C59   H34   S    
C100  O3    A    
C1    O1    A    
C20   H135  S    
C122  O20   A    
C143  H104  S    
C53   H18   S    
C86   H94   S    
C1    C125  S    
C91   H117  S    
C11   C24   A    
C81   H91   S    
C159  C168  A    
C70   H54   S    
C36   H166  S    
Cu3   O6    S    
C155  O23   A    
C18   H124  S    
C40   H176  S    
C19   H121  S    
C80   H80   S    
Cu3   O20   S    
C136  C145  A    
C109  C113  A    
C27   C116  S    
C15   C57   A    
C34   H162  S    
C98   H114  S    
C166  H1    S    
C38   H172  S    
C144  O7    A    
C37   O13   S    
C110  C112  A    
C101  C105  A    
C138  O13   S    
C74   C75   S    
C154  C163  A    
C43   H185  S    
C26   H136  S    
C123  C140  A    
C36   H164  S    
C67   C69   S    
C60   H33   S    
C146  H106  S    
C69   H59   S    
C73   H63   S    
C138  C147  A    
C17   H127  S    
C9    C174  A    
C22   H130  S    
C52   H19   S    
C62   H43   S    
C114  C118  A    
C8    C166  A    
C16   C68   A    
C161  C170  A    
C26   H137  S    
C154  H68   S    
C3    C160  A    
C78   H81   S    
C79   C104  A    
C32   O10   S    
C88   C93   A    
C40   H177  S    
C132  C168  A    
C10   C13   A    
Cu3   O23   S    
C38   H171  S    
C49   H11   S    
C42   H183  S    
Cu1   O2    S    
C151  C160  A    
C83   H87   S    
C30   O9    S    
C64   H53   S    
C3    C10   A    
C128  C133  S    
C57   H156  S    
C28   H148  S    
C35   C165  A    
C102  C106  A    
C23   C25   S    
C10   C54   S    
C23   C115  S    
C91   N1    A    
C156  C164  A    
C65   C66   S    
Cu4   N3    S    
C27   C28   S    
C94   N4    A    
C112  C115  A    
C74   H76   S    
