data_mof_unit_37895.cif
_audit_creation_date              2012-12-10T16:51:27-0500
_audit_creation_method            fapswitch 2.2
_symmetry_space_group_name_H-M    P1
_symmetry_Int_Tables_number       1
_space_group_crystal_system       triclinic
_cell_length_a                    7.812737
_cell_length_b                    8.573949
_cell_length_c                    12.560893
_cell_angle_alpha                 92.469155
_cell_angle_beta                  102.454873
_cell_angle_gamma                 93.943629
_cell_volume                      818.207455967

loop_
_atom_site_label
_atom_site_type_symbol
_atom_type_description
_atom_site_fract_x
_atom_site_fract_y
_atom_site_fract_z
_atom_type_partial_charge
Br1   Br    Br    0.118134 0.279641 0.151645 -0.534522
C1    C     C_R   0.044346 0.794611 0.497122 0.949111
C2    C     C_R   0.190079 0.589492 0.821440 -0.125114
C3    C     C_2   0.067485 0.958172 0.495449 -0.355028
C4    C     C_R   0.114606 0.532213 0.707257 0.863659
C5    C     C_2   0.932442 0.041817 0.504368 -0.373807
C6    C     C_R   0.955624 0.205395 0.502804 0.987321
C7    C     C_R   0.889492 0.483546 0.291710 0.919899
C8    C     C_R   0.846963 0.392563 0.992101 -0.218252
C9    C     C_R   0.826051 0.470028 0.174917 -0.131781
C10   C     C_R   0.082179 0.648408 0.886639 -0.219286
C11   C     C_R   0.145609 0.675412 0.998697 -0.097661
C12   C     C_R   0.428269 0.583869 0.982066 0.094871
C13   C     C_R   0.313513 0.635621 0.047257 -0.135006
C14   C     C_R   0.371044 0.580841 0.867985 0.092836
C15   C     C_R   0.596032 0.530153 0.024351 0.092603
C16   C     C_R   0.694827 0.467361 0.952451 0.104221
C17   C     C_R   0.646830 0.490666 0.842387 -0.254048
C18   C     C_R   0.497327 0.564971 0.804313 -0.178476
C19   C     C_R   0.668691 0.536326 0.134963 -0.283237
C20   C     C_R   0.912667 0.391198 0.103705 0.261716
H1    H     H_    0.805068 0.990777 0.512877 0.178415
H2    H     H_    0.482566 0.610098 0.725236 0.166179
H3    H     H_    0.194853 0.009204 0.486923 0.184385
H4    H     H_    0.471347 0.365937 0.426475 0.211676
H5    H     H_    0.528730 0.641211 0.565766 0.171890
H6    H     H_    0.728805 0.458859 0.787002 0.184767
H7    H     H_    0.917399 0.339206 0.936339 0.176944
H8    H     H_    0.606973 0.596977 0.191555 0.175015
H9    H     H_    0.948498 0.672066 0.851244 0.166046
H10   H     H_    0.347952 0.645528 0.135197 0.149294
H11   H     H_    0.060407 0.718399 0.048964 0.159985
N1    N     N_2   0.434800 0.456690 0.470850 -0.162213
N2    N     N_2   0.565200 0.543310 0.529150 -0.186927
O1    O     O_R   0.893060 0.738880 0.507150 -0.617564
O2    O     O_R   0.172250 0.711130 0.488470 -0.637283
O3    O     O_R   0.944700 0.520730 0.667600 -0.633089
O4    O     O_R   0.223890 0.492980 0.648920 -0.626545
O5    O     O_R   0.827750 0.288870 0.511530 -0.628616
O6    O     O_R   0.106940 0.261120 0.492850 -0.598656
O7    O     O_R   0.776110 0.507020 0.351080 -0.627919
O8    O     O_R   0.055300 0.479270 0.332400 -0.575101
Zn1   Zn    Zn3+2 0.813580 0.518530 0.512470 0.938081
Zn2   Zn    Zn3+2 0.186420 0.481470 0.487530 0.971215

loop_
_geom_bond_atom_site_label_1
_geom_bond_atom_site_label_2
_ccdc_geom_bond_type
C1    O1    A    
O3    Zn1   S    
C1    C3    S    
C10   C11   A    
O4    Zn2   S    
C5    C6    S    
C4    O3    A    
O1    Zn1   S    
Br1   C20   S    
C18   H2    S    
C15   C19   A    
C13   H10   S    
C6    O6    A    
N1    N2    D    
C11   C13   A    
C12   C13   A    
C11   H11   S    
C14   C18   A    
O7    Zn1   S    
C8    C20   A    
O8    Zn2   S    
C8    C16   A    
C7    O8    A    
C16   C17   A    
C19   H8    S    
C12   C14   A    
C9    C20   A    
C3    H3    S    
O2    Zn2   S    
C2    C10   A    
N2    Zn1   S    
C1    O2    A    
C5    H1    S    
O6    Zn2   S    
C2    C14   A    
C7    O7    A    
C10   H9    S    
C3    C5    D    
C17   C18   A    
C12   C15   A    
H4    N1    S    
C6    O5    A    
O5    Zn1   S    
C4    O4    A    
N1    Zn2   S    
H5    N2    S    
C7    C9    S    
C17   H6    S    
C8    H7    S    
C9    C19   A    
C15   C16   A    
C2    C4    S    
