data_mof_unit_20718.cif
_audit_creation_date              2012-12-10T17:41:28-0500
_audit_creation_method            fapswitch 2.2
_symmetry_space_group_name_H-M    P1
_symmetry_Int_Tables_number       1
_space_group_crystal_system       triclinic
_cell_length_a                    14.986969
_cell_length_b                    13.8223
_cell_length_c                    14.307338
_cell_angle_alpha                 89.746697
_cell_angle_beta                  89.549462
_cell_angle_gamma                 90.236294
_cell_volume                      2963.68153017

loop_
_atom_site_label
_atom_site_type_symbol
_atom_type_description
_atom_site_fract_x
_atom_site_fract_y
_atom_site_fract_z
_atom_type_partial_charge
C1    C     C_R   0.329169 0.499670 0.498994 0.812805
C2    C     C_R   0.670872 0.500207 0.500927 0.814054
C3    C     C_R   0.953157 0.499294 0.500898 0.014707
C4    C     C_R   0.046983 0.498704 0.498833 0.017623
C5    C     C_R   0.905640 0.482085 0.417859 0.110475
C6    C     C_R   0.094450 0.513392 0.582334 0.116109
C7    C     C_R   0.955989 0.534115 0.667727 -0.194930
C8    C     C_R   0.044368 0.465602 0.331696 -0.194108
C9    C     C_R   0.048735 0.530976 0.666082 -0.217320
C10   C     C_R   0.951488 0.464863 0.334051 -0.219678
C11   C     C_R   0.445500 0.793994 0.560089 0.505766
C12   C     C_R   0.531768 0.205081 0.423660 0.506133
C13   C     C_R   0.557331 0.793592 0.441633 0.566917
C14   C     C_R   0.474458 0.203304 0.578605 0.582169
C15   C     C_R   0.550489 0.896298 0.432523 -0.222250
C16   C     C_R   0.461785 0.101336 0.574501 -0.175637
C17   C     C_R   0.457719 0.895762 0.571969 -0.213892
C18   C     C_R   0.544454 0.102578 0.428940 -0.209799
C19   C     C_R   0.503619 0.947592 0.501935 -0.124312
C20   C     C_R   0.502792 0.050394 0.501502 -0.128777
C21   C     C_R   0.590470 0.948854 0.358271 0.353660
C22   C     C_R   0.417944 0.049491 0.647387 0.369314
C23   C     C_R   0.422217 0.946701 0.649391 0.382281
C24   C     C_R   0.595268 0.050929 0.361951 0.373000
C25   C     C_R   0.499551 0.500388 0.331158 0.814928
C26   C     C_R   0.499586 0.499893 0.668847 0.809091
C27   C     C_1   0.498240 0.501844 0.228872 -0.206501
C28   C     C_1   0.498661 0.499864 0.771164 -0.207156
C29   C     C_1   0.497428 0.502938 0.143397 -0.031037
C30   C     C_1   0.497958 0.500369 0.856632 -0.029435
C31   C     C_1   0.497210 0.502624 0.042744 0.003694
C32   C     C_1   0.497410 0.501630 0.957275 -0.000550
C33   C     C_R   0.812888 0.482280 0.419773 -0.302536
C34   C     C_R   0.187104 0.511043 0.580829 -0.280994
C35   C     C_R   0.767194 0.500837 0.502960 -0.118539
C36   C     C_R   0.232917 0.498345 0.496808 -0.118016
C37   C     C_R   0.813154 0.518162 0.586875 0.189370
C38   C     C_R   0.187159 0.484276 0.412279 0.185963
C39   C     C_R   0.907050 0.517099 0.585912 0.079914
C40   C     C_R   0.093211 0.482976 0.413484 0.086578
Cu1   Cu    Cu3+1 0.500000 0.597420 0.500000 0.967122
Cu2   Cu    Cu3+1 0.500000 0.402580 0.500000 0.969459
H1    H     H_    0.775766 0.468645 0.356302 0.149627
H2    H     H_    0.224155 0.519114 0.645130 0.141462
H3    H     H_    0.923038 0.549593 0.733537 0.181648
H4    H     H_    0.077559 0.452076 0.265582 0.180614
H5    H     H_    0.084859 0.543511 0.730264 0.146158
H6    H     H_    0.915413 0.451138 0.270071 0.145970
N1    N     N_R   0.500000 0.743810 0.500000 -0.266642
N2    N     N_R   0.500000 0.256190 0.500000 -0.277546
O1    O     O_R   0.370260 0.582280 0.500020 -0.563002
O2    O     O_R   0.629740 0.417720 0.499980 -0.577257
O3    O     O_R   0.629740 0.582280 0.499980 -0.562814
O4    O     O_R   0.370260 0.417720 0.500020 -0.573599
O5    O     O_R   0.500000 0.582290 0.376050 -0.537496
O6    O     O_R   0.500000 0.417710 0.623950 -0.536338
O7    O     O_R   0.500000 0.582290 0.623950 -0.548535
O8    O     O_R   0.500000 0.417710 0.376050 -0.534534
N3    N     N_2   0.765594 0.535732 0.671893 -0.441206
H7    H     H_    0.709325 0.577626 0.664718 0.249442
C41   C     C_3   0.749003 0.449878 0.727529 -0.735678
H8    H     H_    0.706349 0.398717 0.688416 0.218539
H9    H     H_    0.714302 0.469959 0.793456 0.229807
H10   H     H_    0.812680 0.413687 0.745453 0.243313
N4    N     N_2   0.235022 0.471036 0.326712 -0.447268
H11   H     H_    0.290722 0.427899 0.332148 0.248576
C42   C     C_3   0.252897 0.559679 0.275690 -0.726167
H12   H     H_    0.298468 0.607102 0.316034 0.229505
H13   H     H_    0.189779 0.598842 0.261657 0.238312
H14   H     H_    0.285147 0.542396 0.207685 0.233838
O9    O     O_3   0.381509 0.744201 0.611737 -0.564419
C43   C     C_3   0.294977 0.771501 0.581773 0.124106
H15   H     H_    0.275827 0.727469 0.520320 0.150599
H16   H     H_    0.289812 0.849025 0.560709 0.117973
C44   C     C_3   0.227746 0.754041 0.661102 -0.313905
H17   H     H_    0.233679 0.678850 0.687345 0.210857
H18   H     H_    0.242474 0.803290 0.720143 0.249200
C45   C     C_3   0.132313 0.771839 0.628859 -0.929648
H19   H     H_    0.124194 0.848512 0.607084 0.258729
H20   H     H_    0.085047 0.756177 0.687184 0.260905
H21   H     H_    0.115717 0.724114 0.569170 0.265891
O10   O     O_3   0.556273 0.253384 0.342589 -0.561803
C46   C     C_3   0.492964 0.233703 0.271629 0.133810
H22   H     H_    0.434834 0.282722 0.279984 0.139583
H23   H     H_    0.467018 0.157943 0.273179 0.102301
C47   C     C_3   0.536348 0.250604 0.175675 -0.305961
H24   H     H_    0.568300 0.323015 0.173238 0.226567
H25   H     H_    0.589401 0.196287 0.163398 0.246395
C48   C     C_3   0.468192 0.242393 0.097461 -0.966050
H26   H     H_    0.438315 0.168751 0.097518 0.256275
H27   H     H_    0.501551 0.255254 0.028913 0.263073
H28   H     H_    0.414566 0.296834 0.106689 0.266595
O11   O     O_3   0.623127 0.742062 0.395271 -0.555758
C49   C     C_3   0.710904 0.768950 0.424143 0.115505
H29   H     H_    0.734914 0.833824 0.385634 0.162008
H30   H     H_    0.755905 0.709350 0.402336 0.169483
C50   C     C_3   0.723337 0.785345 0.530362 -0.440097
H31   H     H_    0.691606 0.854465 0.551484 0.199357
H32   H     H_    0.691765 0.726448 0.571671 0.242809
C51   C     C_3   0.822057 0.790976 0.555295 -0.889975
H33   H     H_    0.856375 0.722690 0.536367 0.263405
H34   H     H_    0.829002 0.802431 0.631665 0.261717
H35   H     H_    0.854574 0.852289 0.517667 0.249401
O12   O     O_3   0.478098 0.243976 0.666614 -0.584622
C52   C     C_3   0.569009 0.249846 0.694971 0.079149
H36   H     H_    0.574810 0.311223 0.744313 0.168829
H37   H     H_    0.615713 0.266020 0.635675 0.141765
C53   C     C_3   0.600082 0.159399 0.747698 -0.442168
H38   H     H_    0.561345 0.151949 0.813676 0.211348
H39   H     H_    0.590549 0.093729 0.704673 0.208943
C54   C     C_3   0.698770 0.167126 0.772249 -0.905328
H40   H     H_    0.740060 0.173084 0.707620 0.258134
H41   H     H_    0.719343 0.101406 0.811306 0.257290
H42   H     H_    0.710851 0.231480 0.816730 0.256995
O13   O     O_3   0.625067 0.900898 0.281311 -0.603353
C55   C     C_3   0.567159 0.911975 0.204167 0.098185
H43   H     H_    0.608026 0.905161 0.139432 0.160473
H44   H     H_    0.535268 0.984719 0.200553 0.136077
C56   C     C_3   0.495716 0.832205 0.204167 -0.337686
H45   H     H_    0.528526 0.760365 0.199680 0.246799
H46   H     H_    0.456111 0.834727 0.270039 0.207374
C57   C     C_3   0.432206 0.844338 0.122140 -0.952728
H47   H     H_    0.394495 0.913000 0.129049 0.256301
H48   H     H_    0.383993 0.783134 0.121290 0.266126
H49   H     H_    0.469856 0.845388 0.055074 0.251487
O14   O     O_3   0.352956 0.097334 0.699181 -0.583809
C58   C     C_3   0.373474 0.102708 0.795263 0.155820
H50   H     H_    0.384472 0.179991 0.813008 0.180330
H51   H     H_    0.434614 0.063641 0.815668 0.089852
C59   C     C_3   0.294100 0.065065 0.852823 -0.325873
H52   H     H_    0.233701 0.107715 0.835399 0.224193
H53   H     H_    0.280750 0.988205 0.835319 0.247346
C60   C     C_3   0.311559 0.072985 0.957405 -0.974864
H54   H     H_    0.372229 0.031668 0.976517 0.253730
H55   H     H_    0.253803 0.042902 0.997146 0.265275
H56   H     H_    0.320437 0.150033 0.977046 0.266805
O15   O     O_3   0.391645 0.896072 0.727136 -0.603997
C61   C     C_3   0.463244 0.879879 0.790068 0.020149
H57   H     H_    0.436649 0.890285 0.862024 0.166968
H58   H     H_    0.520037 0.931883 0.781318 0.097145
C62   C     C_3   0.499267 0.776515 0.782861 -0.269723
H59   H     H_    0.443182 0.723766 0.786736 0.254164
H60   H     H_    0.535150 0.767650 0.715415 0.215073
C63   C     C_3   0.565091 0.754535 0.860912 -0.949935
H61   H     H_    0.618793 0.810131 0.862504 0.254084
H62   H     H_    0.596274 0.682961 0.848659 0.267472
H63   H     H_    0.530035 0.752447 0.929461 0.259888
O16   O     O_3   0.648453 0.099516 0.297548 -0.605381
C64   C     C_3   0.738269 0.099536 0.327811 0.086127
H64   H     H_    0.781416 0.101663 0.264343 0.160914
H65   H     H_    0.756994 0.032606 0.366926 0.119918
C65   C     C_3   0.758152 0.189621 0.386596 -0.323175
H66   H     H_    0.738307 0.255588 0.347345 0.252991
H67   H     H_    0.719215 0.186399 0.452920 0.209783
C66   C     C_3   0.857017 0.197170 0.410221 -0.929224
H68   H     H_    0.878580 0.132143 0.449809 0.254320
H69   H     H_    0.868593 0.262109 0.454002 0.273245
H70   H     H_    0.897694 0.204183 0.345289 0.257672

loop_
_geom_bond_atom_site_label_1
_geom_bond_atom_site_label_2
_ccdc_geom_bond_type
C2    C35   S    
C38   C40   A    
O14   C58   S    
C66   H69   S    
C43   H16   S    
Cu1   Cu2   S    
C19   C20   A    
C21   O13   S    
Cu2   O8    S    
C6    C9    A    
C50   H31   S    
C55   H43   S    
C15   C19   A    
C52   H37   S    
O11   C49   S    
C11   O9    S    
C46   H22   S    
C18   C24   A    
C7    H3    S    
C35   C37   A    
C62   H60   S    
C45   H20   S    
C22   O14   S    
C27   C29   T    
C5    C10   A    
O13   C55   S    
C53   H38   S    
C41   H9    S    
Cu1   O5    S    
Cu2   O6    S    
C4    C40   A    
C53   H39   S    
N4    C42   S    
C5    C33   A    
C60   H56   S    
C65   C66   S    
C48   H27   S    
C34   C36   A    
C3    C39   A    
N3    H7    S    
C66   H70   S    
C49   H29   S    
C63   H63   S    
Cu1   N1    S    
O12   C52   S    
C50   H32   S    
C56   H46   S    
C47   C48   S    
C52   C53   S    
N3    C41   S    
C47   H25   S    
C42   H12   S    
C33   H1    S    
C34   H2    S    
O16   C64   S    
C63   H62   S    
C24   O16   S    
C64   C65   S    
C47   H24   S    
C63   H61   S    
C49   C50   S    
C2    O3    A    
C51   H35   S    
C6    C34   A    
C13   O11   S    
C42   H13   S    
C26   O7    A    
C41   H10   S    
C59   H53   S    
C44   H17   S    
C58   H51   S    
C11   N1    A    
C37   C39   A    
C1    O1    A    
C14   O12   S    
C31   C32   T    
C38   N4    S    
C16   C20   A    
C51   H34   S    
C12   O10   S    
C54   H41   S    
C17   C23   A    
C48   H28   S    
C49   H30   S    
C44   H18   S    
Cu1   O3    S    
C37   N3    S    
C2    O2    A    
Cu2   N2    S    
C1    O4    A    
C13   N1    A    
C4    C6    A    
C46   H23   S    
C65   H67   S    
C9    H5    S    
C13   C15   A    
C10   H6    S    
C60   H54   S    
C14   C16   A    
C62   C63   S    
C59   C60   S    
C25   O8    A    
C57   H48   S    
C3    C4    A    
C50   C51   S    
C52   H36   S    
C56   C57   S    
C7    C9    A    
C11   C17   A    
C16   C22   A    
C54   H40   S    
C45   H19   S    
C23   O15   S    
C25   O5    A    
C43   H15   S    
C3    C5    A    
C61   C62   S    
C26   O6    A    
C12   N2    A    
C56   H45   S    
C53   C54   S    
C61   H58   S    
C25   C27   S    
O15   C61   S    
C26   C28   S    
C55   C56   S    
C42   H14   S    
C57   H49   S    
C64   H65   S    
C59   H52   S    
C57   H47   S    
C58   C59   S    
Cu1   O7    S    
O9    C43   S    
C29   C31   S    
C64   H64   S    
Cu2   O4    S    
C36   C38   A    
C30   C32   S    
C45   H21   S    
C43   C44   S    
C14   N2    A    
C28   C30   T    
C51   H33   S    
C33   C35   A    
C55   H44   S    
C54   H42   S    
C18   C20   A    
N4    H11   S    
C41   H8    S    
C44   C45   S    
C8    H4    S    
C61   H57   S    
C17   C19   A    
C15   C21   A    
C46   C47   S    
C65   H66   S    
C8    C10   A    
O10   C46   S    
C21   C24   A    
C12   C18   A    
C66   H68   S    
C60   H55   S    
C7    C39   A    
C22   C23   A    
C8    C40   A    
C48   H26   S    
C62   H59   S    
Cu1   O1    S    
C58   H50   S    
C1    C36   S    
Cu2   O2    S    
