data_mof_unit_63746.cif
_audit_creation_date              2012-12-10T21:05:37-0500
_audit_creation_method            fapswitch 2.2
_symmetry_space_group_name_H-M    P1
_symmetry_Int_Tables_number       1
_space_group_crystal_system       triclinic
_cell_length_a                    15.882923
_cell_length_b                    15.100993
_cell_length_c                    17.595405
_cell_angle_alpha                 89.999631
_cell_angle_beta                  89.959692
_cell_angle_gamma                 90.001652
_cell_volume                      4220.22005182

loop_
_atom_site_label
_atom_site_type_symbol
_atom_type_description
_atom_site_fract_x
_atom_site_fract_y
_atom_site_fract_z
_atom_type_partial_charge
C1    C     C_R   0.339075 0.499999 0.500021 0.904343
C2    C     C_R   0.660925 0.500001 0.499979 0.904326
C3    C     C_1   0.823573 0.500006 0.500003 -0.013815
C4    C     C_1   0.176426 0.499995 0.499996 -0.013807
C5    C     C_1   0.251030 0.499996 0.500007 -0.135752
C6    C     C_1   0.748969 0.500004 0.499992 -0.135742
C7    C     C_R   0.427693 0.952867 0.477238 -0.038434
C8    C     C_R   0.572329 0.047102 0.522709 -0.037362
C9    C     C_R   0.572306 0.952872 0.522768 -0.038442
C10   C     C_R   0.427669 0.047097 0.477296 -0.037369
C11   C     C_R   0.500000 0.904977 0.500003 -0.046158
C12   C     C_R   0.499999 0.095004 0.500002 -0.045950
C13   C     C_1   0.500000 0.806892 0.500001 0.114957
C14   C     C_1   0.500000 0.193102 0.500001 0.116308
C15   C     C_R   0.499980 0.500006 0.353616 0.889890
C16   C     C_R   0.500027 0.500006 0.646386 0.889861
C17   C     C_R   0.563106 0.546967 0.847315 0.241482
C18   C     C_R   0.563165 0.453710 0.152532 0.241406
C19   C     C_R   0.436925 0.546829 0.152666 0.241528
C20   C     C_R   0.437083 0.453519 0.847507 0.241376
C21   C     C_R   0.563210 0.546977 0.768048 -0.103188
C22   C     C_R   0.563227 0.453444 0.231796 -0.102661
C23   C     C_R   0.436773 0.546833 0.231932 -0.103182
C24   C     C_R   0.436963 0.453269 0.768243 -0.102669
C25   C     C_R   0.500088 0.500049 0.728707 -0.205495
C26   C     C_R   0.499968 0.500053 0.271300 -0.205426
C27   C     C_R   0.500097 0.500303 0.886118 -0.052806
C28   C     C_R   0.500066 0.500331 0.113891 -0.052839
C29   C     C_1   0.500103 0.500398 0.966294 0.162718
C30   C     C_1   0.500088 0.500407 0.033715 0.162716
C31   C     C_R   0.956007 0.581278 0.500195 -0.054043
C32   C     C_R   0.043992 0.418723 0.499883 -0.054170
C33   C     C_R   0.044000 0.581275 0.500103 -0.054021
C34   C     C_R   0.955999 0.418727 0.499814 -0.054170
C35   C     C_R   0.912819 0.500004 0.500009 0.039086
C36   C     C_R   0.087180 0.499998 0.499989 0.039094
N1    N     N_1   0.500000 0.270550 0.500000 -0.080488
N2    N     N_1   0.500000 0.729450 0.500000 -0.080709
O1    O     O_R   0.378020 0.573650 0.500020 -0.604685
O2    O     O_R   0.621980 0.426350 0.499980 -0.604301
O3    O     O_R   0.621980 0.573650 0.499980 -0.604707
O4    O     O_R   0.378020 0.426350 0.500020 -0.604313
O5    O     O_R   0.500000 0.573690 0.389120 -0.608155
O6    O     O_R   0.500000 0.426310 0.610880 -0.607701
O7    O     O_R   0.500000 0.573690 0.610880 -0.608165
O8    O     O_R   0.500000 0.426310 0.389120 -0.607676
Zn1   Zn    Zn3+2 0.500000 0.598370 0.500000 1.017055
Zn2   Zn    Zn3+2 0.500000 0.401630 0.500000 1.018020
Br1   Br    Br    0.649297 0.610229 0.902784 -0.400145
Br2   Br    Br    0.649556 0.390885 0.096843 -0.400327
Br3   Br    Br    0.350619 0.609868 0.097158 -0.400118
Br4   Br    Br    0.350881 0.390448 0.903237 -0.400361
C37   C     C_1   0.629491 0.592955 0.727392 0.290129
N3    N     N_1   0.682376 0.629595 0.694803 -0.152558
C38   C     C_1   0.629666 0.407640 0.272289 0.289661
N4    N     N_1   0.682690 0.371152 0.304747 -0.156273
C39   C     C_1   0.370378 0.592652 0.272563 0.290029
N5    N     N_1   0.317403 0.629167 0.305133 -0.152625
C40   C     C_1   0.370595 0.407307 0.727787 0.289791
N6    N     N_1   0.317626 0.370692 0.695357 -0.156213
C41   C     C_1   0.090017 0.664416 0.500112 0.219787
N7    N     N_1   0.126730 0.730617 0.500112 -0.146406
C42   C     C_1   0.909982 0.335587 0.499516 0.220060
N8    N     N_1   0.873269 0.269386 0.499265 -0.145526
C43   C     C_1   0.910000 0.664421 0.500494 0.219774
N9    N     N_1   0.873294 0.730625 0.500738 -0.146322
C44   C     C_1   0.089998 0.335580 0.499874 0.219999
N10   N     N_1   0.126702 0.269375 0.499882 -0.145511
C45   C     C_1   0.352883 0.094907 0.453895 0.202961
N11   N     N_1   0.293214 0.133115 0.435228 -0.145947
C46   C     C_1   0.646997 0.905034 0.546396 0.202876
N12   N     N_1   0.706569 0.866789 0.565260 -0.141150
C47   C     C_1   0.647116 0.094917 0.546108 0.202978
N13   N     N_1   0.706785 0.133130 0.564774 -0.146006
C48   C     C_1   0.353001 0.905024 0.453614 0.202887
N14   N     N_1   0.293428 0.866775 0.434754 -0.141210

loop_
_geom_bond_atom_site_label_1
_geom_bond_atom_site_label_2
_ccdc_geom_bond_type
C16   O7    A    
C23   C26   A    
C7    C10   A    
C19   C23   A    
C48   N14   T    
C31   C33   A    
C7    C48   S    
C29   C30   T    
C20   C27   A    
C2    O2    A    
C27   C29   S    
C11   C13   S    
C47   N13   T    
C16   O6    A    
C41   N7    T    
C21   C25   A    
C3    C35   S    
C8    C12   A    
C3    C6    T    
C38   N4    T    
C4    C36   S    
C32   C36   A    
O3    Zn1   S    
C44   N10   T    
C15   O5    A    
C40   N6    T    
C20   Br4   S    
O4    Zn2   S    
C37   N3    T    
C14   N1    T    
C21   C37   S    
C19   C28   A    
C9    C11   A    
C13   N2    T    
C22   C38   S    
N2    Zn1   S    
C32   C44   S    
C1    C5    S    
C10   C12   A    
C28   C30   S    
C8    C47   S    
C12   C14   S    
C7    C11   A    
O8    Zn2   S    
C24   C40   S    
C45   N11   T    
C34   C35   A    
C31   C35   A    
C9    C46   S    
C1    O1    A    
C2    O3    A    
C42   N8    T    
C17   C27   A    
C10   C45   S    
C19   Br3   S    
C1    O4    A    
C46   N12   T    
C33   C36   A    
C18   C28   A    
C24   C25   A    
C18   Br2   S    
C8    C9    A    
C33   C41   S    
C43   N9    T    
C22   C26   A    
O7    Zn1   S    
C17   Br1   S    
C16   C25   S    
C23   C39   S    
C31   C43   S    
O2    Zn2   S    
C34   C42   S    
C15   C26   S    
C2    C6    S    
C15   O8    A    
C39   N5    T    
C18   C22   A    
O1    Zn1   S    
O5    Zn1   S    
C20   C24   A    
C17   C21   A    
O6    Zn2   S    
C4    C5    T    
N1    Zn2   S    
C32   C34   A    
