data_mof_unit_58406.cif
_audit_creation_date              2012-12-10T20:11:22-0500
_audit_creation_method            fapswitch 2.2
_symmetry_space_group_name_H-M    P1
_symmetry_Int_Tables_number       1
_space_group_crystal_system       triclinic
_cell_length_a                    15.918903
_cell_length_b                    15.907785
_cell_length_c                    51.402423
_cell_angle_alpha                 89.966465
_cell_angle_beta                  89.906404
_cell_angle_gamma                 89.855866
_cell_volume                      13016.8054325

loop_
_atom_site_label
_atom_site_type_symbol
_atom_type_description
_atom_site_fract_x
_atom_site_fract_y
_atom_site_fract_z
_atom_type_partial_charge
C1    C     C_R   0.944902 0.550849 0.636436 0.283199
C2    C     C_R   0.940377 0.457425 0.363958 0.260661
C3    C     C_R   0.474829 0.923976 0.636698 0.275656
C4    C     C_R   0.547003 0.932822 0.362771 0.287128
C5    C     C_R   0.057791 0.444828 0.637222 0.277530
C6    C     C_R   0.040567 0.573971 0.361720 0.257104
C7    C     C_R   0.490047 0.076315 0.636146 0.263700
C8    C     C_R   0.472037 0.068061 0.364022 0.288296
C9    C     C_R   0.445076 0.050785 0.136419 0.282689
C10   C     C_R   0.440368 0.957419 0.863954 0.260773
C11   C     C_R   0.974842 0.423889 0.136704 0.278290
C12   C     C_R   0.046962 0.432972 0.862794 0.287160
C13   C     C_R   0.557960 0.944739 0.137243 0.282603
C14   C     C_R   0.540609 0.073922 0.861726 0.257126
C15   C     C_R   0.988905 0.576327 0.136180 0.258226
C16   C     C_R   0.971654 0.568029 0.863996 0.288261
C17   C     C_R   0.517487 0.009825 0.985779 -0.081044
C18   C     C_R   0.515334 0.006336 0.013343 -0.080142
C19   C     C_R   0.018177 0.498655 0.986532 -0.076307
C20   C     C_R   0.018411 0.497490 0.014100 -0.079965
C21   C     C_R   0.017288 0.510074 0.485776 -0.081231
C22   C     C_R   0.015090 0.506561 0.513340 -0.080200
C23   C     C_R   0.518664 0.998319 0.486527 -0.076571
C24   C     C_R   0.518962 0.997091 0.514095 -0.079783
C25   C     C_R   0.485110 0.859953 0.984286 0.348274
C26   C     C_R   0.576122 0.147208 0.015004 0.336232
C27   C     C_R   0.172413 0.497583 0.986969 0.334719
C28   C     C_R   0.866526 0.521634 0.013958 0.335107
C29   C     C_R   0.559239 0.157380 0.988272 0.337697
C30   C     C_R   0.459986 0.863631 0.010600 0.336568
C31   C     C_R   0.863801 0.501027 0.987324 0.323691
C32   C     C_R   0.170469 0.474591 0.013506 0.337595
C33   C     C_R   0.985534 0.360066 0.484266 0.347851
C34   C     C_R   0.075294 0.647701 0.515017 0.336400
C35   C     C_R   0.672881 0.996452 0.486937 0.335270
C36   C     C_R   0.367271 0.022356 0.513990 0.335054
C37   C     C_R   0.058371 0.657817 0.488285 0.338781
C38   C     C_R   0.960308 0.363625 0.510575 0.336197
C39   C     C_R   0.364308 0.001715 0.487359 0.325540
C40   C     C_R   0.670867 0.973279 0.513457 0.337467
C41   C     C_R   0.939349 0.540743 0.609056 0.234128
C42   C     C_R   0.930445 0.474089 0.390971 0.351635
C43   C     C_R   0.497170 0.920116 0.609988 0.324518
C44   C     C_R   0.538697 0.927490 0.390149 0.247181
C45   C     C_R   0.067304 0.454293 0.609908 0.227560
C46   C     C_R   0.019072 0.594069 0.387510 0.305671
C47   C     C_R   0.514210 0.073679 0.609611 0.226740
C48   C     C_R   0.491059 0.073778 0.390851 0.258566
C49   C     C_R   0.439609 0.040687 0.109039 0.233711
C50   C     C_R   0.430460 0.974049 0.890968 0.351636
C51   C     C_R   0.997001 0.420266 0.109978 0.323760
C52   C     C_R   0.038605 0.427689 0.890173 0.246199
C53   C     C_R   0.567525 0.954160 0.109927 0.233288
C54   C     C_R   0.519212 0.093931 0.887532 0.305682
C55   C     C_R   0.012868 0.573964 0.109637 0.244798
C56   C     C_R   0.990552 0.573852 0.890830 0.258978
C57   C     C_R   0.004587 0.497939 0.595749 -0.036909
C58   C     C_R   0.988204 0.528668 0.403342 -0.093582
C59   C     C_R   0.516482 0.995391 0.596473 -0.053713
C60   C     C_R   0.516967 0.000645 0.404203 -0.038932
C61   C     C_R   0.504854 0.997826 0.095752 -0.039031
C62   C     C_R   0.488314 0.028503 0.903348 -0.093644
C63   C     C_R   0.015714 0.495725 0.096481 -0.058100
C64   C     C_R   0.016622 0.500821 0.904205 -0.038901
C65   C     C_R   0.000948 0.499974 0.820329 0.986523
C66   C     C_R   0.994809 0.500121 0.179675 0.932139
C67   C     C_R   0.499873 0.000250 0.820276 1.013472
C68   C     C_R   0.500136 0.999677 0.179727 1.021035
C69   C     C_R   0.500971 0.999970 0.320330 0.986258
C70   C     C_R   0.494895 0.000135 0.679669 0.939171
C71   C     C_R   0.999872 0.500248 0.320277 1.013429
C72   C     C_R   0.000122 0.499722 0.679727 1.020798
C73   C     C_R   0.839726 0.660317 0.750002 0.887490
C74   C     C_R   0.160284 0.339683 0.249995 0.850708
C75   C     C_R   0.339649 0.839662 0.750004 0.889504
C76   C     C_R   0.660359 0.160338 0.249997 0.860956
C77   C     C_R   0.160313 0.339679 0.749997 0.896774
C78   C     C_R   0.839671 0.660311 0.249995 0.872952
C79   C     C_R   0.660277 0.160393 0.750008 0.873708
C80   C     C_R   0.339678 0.839646 0.250013 0.859002
C81   C     C_R   0.839649 0.339662 0.250004 0.889398
C82   C     C_R   0.160359 0.660338 0.749997 0.860975
C83   C     C_R   0.339726 0.160317 0.250002 0.887329
C84   C     C_R   0.660284 0.839683 0.749995 0.851038
C85   C     C_R   0.160277 0.660394 0.250009 0.870431
C86   C     C_R   0.839678 0.339646 0.750013 0.859281
C87   C     C_R   0.660313 0.839679 0.249997 0.896516
C88   C     C_R   0.339672 0.160312 0.749995 0.874737
C89   C     C_R   0.000732 0.498364 0.650725 -0.375724
C90   C     C_R   0.997933 0.506868 0.349175 -0.406025
C91   C     C_R   0.486416 0.000228 0.650534 -0.372181
C92   C     C_R   0.506151 0.999988 0.349364 -0.384932
C93   C     C_R   0.500823 0.998269 0.150726 -0.377021
C94   C     C_R   0.497939 0.006853 0.849175 -0.406240
C95   C     C_R   0.986060 0.500184 0.150551 -0.374404
C96   C     C_R   0.006005 0.500021 0.849364 -0.384857
C97   C     C_1   0.776574 0.276576 0.750030 -0.102986
C98   C     C_1   0.223349 0.723487 0.250012 -0.094970
C99   C     C_1   0.723387 0.776582 0.749990 -0.097813
C100  C     C_1   0.276633 0.223416 0.250003 -0.089613
C101  C     C_1   0.223442 0.723414 0.749996 -0.097532
C102  C     C_1   0.776574 0.276588 0.250005 -0.089203
C103  C     C_1   0.276587 0.223397 0.749991 -0.097284
C104  C     C_1   0.723390 0.776594 0.249993 -0.085574
C105  C     C_1   0.776586 0.723396 0.249991 -0.092363
C106  C     C_1   0.223391 0.276595 0.749993 -0.087167
C107  C     C_1   0.723442 0.223414 0.249997 -0.096928
C108  C     C_1   0.276574 0.776588 0.750005 -0.089827
C109  C     C_1   0.223387 0.276582 0.249990 -0.097076
C110  C     C_1   0.776633 0.723416 0.750004 -0.090126
C111  C     C_1   0.276574 0.776576 0.250030 -0.101646
C112  C     C_1   0.723349 0.223487 0.750011 -0.097878
C113  C     C_R   0.540524 0.086451 0.945579 0.680395
C114  C     C_R   0.484478 0.931589 0.053544 0.712789
C115  C     C_R   0.942879 0.499042 0.945378 0.707894
C116  C     C_R   0.092635 0.487729 0.055383 0.748968
C117  C     C_R   0.502767 0.943677 0.943367 0.665862
C118  C     C_R   0.536411 0.071771 0.055582 0.707280
C119  C     C_R   0.092605 0.501063 0.945145 0.715023
C120  C     C_R   0.943746 0.502528 0.055319 0.689632
C121  C     C_R   0.040065 0.586839 0.445586 0.680754
C122  C     C_R   0.984336 0.431714 0.553532 0.712634
C123  C     C_R   0.443290 0.999050 0.445389 0.707857
C124  C     C_R   0.593229 0.986670 0.555356 0.750151
C125  C     C_R   0.002945 0.443894 0.443356 0.665781
C126  C     C_R   0.035939 0.572018 0.555590 0.706949
C127  C     C_R   0.593032 0.000471 0.445131 0.715489
C128  C     C_R   0.444457 0.002706 0.555332 0.687824
C129  C     C_R   0.503160 0.936405 0.970947 -0.180545
C130  C     C_R   0.543764 0.075681 0.028154 -0.172735
C131  C     C_R   0.095551 0.500338 0.972723 -0.174792
C132  C     C_R   0.942165 0.508360 0.027921 -0.191034
C133  C     C_R   0.537940 0.085802 0.973103 -0.181183
C134  C     C_R   0.485067 0.933322 0.025973 -0.174127
C135  C     C_R   0.940479 0.498228 0.972918 -0.168051
C136  C     C_R   0.094737 0.485322 0.027800 -0.194749
C137  C     C_R   0.003299 0.436604 0.470937 -0.180365
C138  C     C_R   0.043253 0.576006 0.528161 -0.172902
C139  C     C_R   0.596015 0.999640 0.472705 -0.174935
C140  C     C_R   0.442840 0.008510 0.527935 -0.191023
C141  C     C_R   0.037433 0.586150 0.473109 -0.181385
C142  C     C_R   0.985041 0.433430 0.525960 -0.173914
C143  C     C_R   0.440932 0.998344 0.472930 -0.168662
C144  C     C_R   0.595238 0.984353 0.527773 -0.194589
N1    N     N_R   0.508343 0.020879 0.931343 -0.321184
N2    N     N_R   0.508439 0.000416 0.067578 -0.317398
N3    N     N_R   0.017579 0.500201 0.932354 -0.320028
N4    N     N_R   0.018020 0.495100 0.068347 -0.323146
N5    N     N_R   0.008227 0.521125 0.431339 -0.321308
N6    N     N_R   0.008134 0.500581 0.567574 -0.317670
N7    N     N_R   0.517977 0.999944 0.432352 -0.320055
N8    N     N_R   0.518709 0.994664 0.568339 -0.322721
O1    O     O_3   0.000000 0.500000 0.750000 -0.544743
O2    O     O_3   0.000000 0.500000 0.250000 -0.543405
O3    O     O_3   0.500000 0.000000 0.750000 -0.540879
O4    O     O_3   0.500000 1.000000 0.250000 -0.545250
O5    O     O_R   0.000000 0.430630 0.807650 -0.586061
O6    O     O_R   1.000000 0.569370 0.192350 -0.585174
O7    O     O_R   0.569370 1.000000 0.807650 -0.579133
O8    O     O_R   0.430630 1.000000 0.192350 -0.590210
O9    O     O_R   0.000000 0.569370 0.807650 -0.587070
O10   O     O_R   0.000000 0.430630 0.192350 -0.589001
O11   O     O_R   0.430630 1.000000 0.807650 -0.603224
O12   O     O_R   0.569370 1.000000 0.192350 -0.591088
O13   O     O_R   0.500000 0.930630 0.307650 -0.586054
O14   O     O_R   0.500000 0.069370 0.692350 -0.582913
O15   O     O_R   0.069370 0.500000 0.307650 -0.579162
O16   O     O_R   0.930630 0.500000 0.692350 -0.590048
O17   O     O_R   0.500000 0.069370 0.307650 -0.586942
O18   O     O_R   0.500000 0.930630 0.692350 -0.589687
O19   O     O_R   0.930630 0.500000 0.307650 -0.603403
O20   O     O_R   0.069370 0.500000 0.692350 -0.592115
O21   O     O_R   0.902350 0.666510 0.764820 -0.610865
O22   O     O_R   0.097650 0.333490 0.235180 -0.624637
O23   O     O_R   0.333490 0.902350 0.764820 -0.612124
O24   O     O_R   0.666510 0.097650 0.235180 -0.628866
O25   O     O_R   0.097650 0.333490 0.764820 -0.607404
O26   O     O_R   0.902350 0.666510 0.235180 -0.601661
O27   O     O_R   0.666510 0.097650 0.764820 -0.605824
O28   O     O_R   0.333490 0.902350 0.235180 -0.628941
O29   O     O_R   0.902350 0.333490 0.235180 -0.606011
O30   O     O_R   0.097650 0.666510 0.764820 -0.625326
O31   O     O_R   0.333490 0.097650 0.235180 -0.610536
O32   O     O_R   0.666510 0.902350 0.764820 -0.629255
O33   O     O_R   0.097650 0.666510 0.235180 -0.628696
O34   O     O_R   0.902350 0.333490 0.764820 -0.626071
O35   O     O_R   0.666510 0.902350 0.235180 -0.608930
O36   O     O_R   0.333490 0.097650 0.764820 -0.632232
O37   O     O_R   0.402350 0.166510 0.264820 -0.611164
O38   O     O_R   0.597650 0.833490 0.735180 -0.624960
O39   O     O_R   0.833490 0.402350 0.264820 -0.612421
O40   O     O_R   0.166510 0.597650 0.735180 -0.629581
O41   O     O_R   0.597650 0.833490 0.264820 -0.607982
O42   O     O_R   0.402350 0.166510 0.735180 -0.614479
O43   O     O_R   0.166510 0.597650 0.264820 -0.607160
O44   O     O_R   0.833490 0.402350 0.735180 -0.630193
O45   O     O_R   0.402350 0.833490 0.735180 -0.606382
O46   O     O_R   0.597650 0.166510 0.264820 -0.625536
O47   O     O_R   0.833490 0.597650 0.735180 -0.611187
O48   O     O_R   0.166510 0.402350 0.264820 -0.629614
O49   O     O_R   0.597650 0.166510 0.735180 -0.633272
O50   O     O_R   0.402350 0.833490 0.264820 -0.626515
O51   O     O_R   0.166510 0.402350 0.735180 -0.610719
O52   O     O_R   0.833490 0.597650 0.264820 -0.634860
O53   O     O_2   0.582574 0.148186 0.933499 -0.419773
O54   O     O_2   0.461926 0.861526 0.066459 -0.463361
O55   O     O_2   0.871688 0.501134 0.931314 -0.448766
O56   O     O_2   0.164123 0.485560 0.069350 -0.418019
O57   O     O_2   0.497524 0.874323 0.928554 -0.412136
O58   O     O_2   0.555187 0.139005 0.070360 -0.465990
O59   O     O_2   0.163488 0.500332 0.930862 -0.446402
O60   O     O_2   0.871581 0.500999 0.069057 -0.413089
O61   O     O_2   0.081823 0.648800 0.433521 -0.419133
O62   O     O_2   0.961851 0.361629 0.566446 -0.462965
O63   O     O_2   0.372089 0.001285 0.431332 -0.448777
O64   O     O_2   0.664746 0.983992 0.569304 -0.418223
O65   O     O_2   0.998012 0.374532 0.428534 -0.412195
O66   O     O_2   0.054572 0.639256 0.570382 -0.465849
O67   O     O_2   0.663901 0.999474 0.430840 -0.445905
O68   O     O_2   0.372320 0.001793 0.569091 -0.415507
Zn1   Zn    Zn3+2 0.900880 0.500000 0.727850 1.089741
Zn2   Zn    Zn3+2 0.099120 0.500000 0.272150 1.084346
Zn3   Zn    Zn3+2 0.500000 0.900880 0.727850 1.081601
Zn4   Zn    Zn3+2 0.500000 0.099120 0.272150 1.090749
Zn5   Zn    Zn3+2 0.099120 0.500000 0.727850 1.092752
Zn6   Zn    Zn3+2 0.900880 0.500000 0.272150 1.085642
Zn7   Zn    Zn3+2 0.500000 0.099120 0.727850 1.062731
Zn8   Zn    Zn3+2 0.500000 0.900880 0.272150 1.092778
Zn9   Zn    Zn3+2 0.400880 0.000000 0.227850 1.091022
Zn10  Zn    Zn3+2 0.599120 1.000000 0.772150 1.085559
Zn11  Zn    Zn3+2 0.000000 0.400880 0.227850 1.081326
Zn12  Zn    Zn3+2 0.000000 0.599120 0.772150 1.090858
Zn13  Zn    Zn3+2 0.599120 0.000000 0.227850 1.094566
Zn14  Zn    Zn3+2 0.400880 1.000000 0.772150 1.086443
Zn15  Zn    Zn3+2 0.000000 0.599120 0.227850 1.082966
Zn16  Zn    Zn3+2 0.000000 0.400880 0.772150 1.093014
S1    S     S_3+6 0.507949 0.759211 0.970627 0.157416
O69   O     O_2   0.437646 0.732214 0.953050 -0.130808
O70   O     O_2   0.588315 0.763721 0.955271 -0.206201
O71   O     O_3   0.520671 0.686911 0.994164 -0.510454
H1    H     H_    0.540226 0.635616 0.985039 0.388982
S2    S     S_3+6 0.653131 0.213323 0.029721 0.175220
O72   O     O_2   0.610876 0.282234 0.044914 -0.137894
O73   O     O_2   0.707251 0.162136 0.047744 -0.206965
O74   O     O_3   0.715594 0.256206 0.006926 -0.446132
H2    H     H_    0.759359 0.286749 0.016786 0.405596
S3    S     S_3+6 0.269140 0.535164 0.973585 0.159217
O75   O     O_2   0.308029 0.468202 0.956761 -0.159220
O76   O     O_2   0.252807 0.612339 0.957442 -0.185661
O77   O     O_3   0.337332 0.561272 0.997141 -0.465878
H3    H     H_    0.391819 0.568591 0.988118 0.409155
S4    S     S_3+6 0.782580 0.582125 0.027660 0.164172
O78   O     O_2   0.724337 0.526046 0.042777 -0.153880
O79   O     O_2   0.817835 0.647706 0.045603 -0.176175
O80   O     O_3   0.727973 0.631428 0.004171 -0.486452
H4    H     H_    0.686426 0.666647 0.013546 0.413056
S5    S     S_3+6 0.545946 0.261427 0.975865 0.165873
O81   O     O_2   0.623647 0.288487 0.961538 -0.110952
O82   O     O_2   0.472498 0.263271 0.957547 -0.191884
O83   O     O_3   0.526536 0.329578 0.000137 -0.498714
H5    H     H_    0.505993 0.381283 0.991456 0.390824
S6    S     S_3+6 0.381103 0.792336 0.021586 0.173283
O84   O     O_2   0.420393 0.721905 0.036852 -0.140668
O85   O     O_2   0.319295 0.838290 0.038605 -0.192541
O86   O     O_3   0.328621 0.752151 0.996128 -0.464367
H6    H     H_    0.277953 0.725741 0.003753 0.413289
S7    S     S_3+6 0.765995 0.466934 0.973943 0.168985
O87   O     O_2   0.729016 0.535995 0.957515 -0.184854
O88   O     O_2   0.780113 0.390438 0.957326 -0.144846
O89   O     O_3   0.697254 0.440942 0.997462 -0.456328
H7    H     H_    0.642438 0.463699 0.991665 0.399255
S8    S     S_3+6 0.256508 0.415761 0.026581 0.172105
O90   O     O_2   0.312332 0.472293 0.042318 -0.147734
O91   O     O_2   0.223684 0.346732 0.043766 -0.180219
O92   O     O_3   0.313346 0.371280 0.002643 -0.469835
H8    H     H_    0.353283 0.333306 0.011624 0.409652
S9    S     S_3+6 0.008830 0.259430 0.470600 0.157720
O93   O     O_2   0.938721 0.232207 0.452982 -0.131209
O94   O     O_2   0.089252 0.264285 0.455283 -0.205905
O95   O     O_3   0.021703 0.187111 0.494124 -0.508840
H9    H     H_    0.041045 0.135775 0.484978 0.390292
S10   S     S_3+6 0.151871 0.714285 0.529751 0.174877
O96   O     O_2   0.109154 0.782813 0.544987 -0.138040
O97   O     O_2   0.206378 0.663376 0.547737 -0.206468
O98   O     O_3   0.213998 0.757758 0.506974 -0.447611
H10   H     H_    0.257518 0.788604 0.516849 0.405817
S11   S     S_3+6 0.769721 0.033840 0.473587 0.159191
O99   O     O_2   0.808503 0.966855 0.456749 -0.158777
O100  O     O_2   0.753598 0.111111 0.457467 -0.186427
O101  O     O_3   0.837898 0.059703 0.497174 -0.465833
H11   H     H_    0.892211 0.067944 0.488125 0.409033
S12   S     S_3+6 0.283911 0.083623 0.527703 0.167961
O102  O     O_2   0.225262 0.028103 0.542867 -0.150538
O103  O     O_2   0.319839 0.148961 0.545604 -0.177986
O104  O     O_3   0.229605 0.133297 0.504222 -0.480979
H12   H     H_    0.188096 0.168555 0.513599 0.413199
S13   S     S_3+6 0.044515 0.761812 0.475891 0.162653
O105  O     O_2   0.122101 0.789376 0.461595 -0.115306
O106  O     O_2   0.971120 0.763264 0.457550 -0.191593
O107  O     O_3   0.024622 0.829774 0.500178 -0.500725
H13   H     H_    0.003171 0.881157 0.491524 0.391380
S14   S     S_3+6 0.881818 0.291866 0.521547 0.173095
O108  O     O_2   0.921467 0.221792 0.536881 -0.140408
O109  O     O_2   0.819605 0.337535 0.538499 -0.192758
O110  O     O_3   0.829767 0.251145 0.496084 -0.464767
H14   H     H_    0.778696 0.225358 0.503657 0.413081
S15   S     S_3+6 0.266149 0.968547 0.473999 0.167578
O111  O     O_2   0.229882 0.037907 0.457546 -0.183310
O112  O     O_2   0.279473 0.891761 0.457448 -0.148235
O113  O     O_3   0.197126 0.943553 0.497529 -0.458349
H15   H     H_    0.141371 0.959312 0.490520 0.401270
S16   S     S_3+6 0.756577 0.913833 0.526461 0.172265
O114  O     O_2   0.812859 0.969889 0.542203 -0.146405
O115  O     O_2   0.723361 0.844928 0.543624 -0.181111
O116  O     O_3   0.812979 0.869137 0.502464 -0.470214
H16   H     H_    0.851679 0.829704 0.511364 0.409854
S17   S     S_3+6 0.849517 0.575417 0.591038 0.172823
O117  O     O_2   0.827127 0.510027 0.571177 -0.202676
O118  O     O_2   0.774457 0.587906 0.608367 -0.128504
O119  O     O_3   0.869905 0.665652 0.575150 -0.445389
H17   H     H_    0.910512 0.696339 0.586129 0.404285
S18   S     S_3+6 0.834142 0.451288 0.407374 0.154818
O120  O     O_2   0.822284 0.511703 0.429577 -0.250455
O121  O     O_2   0.761934 0.461429 0.388835 -0.187489
O122  O     O_3   0.833385 0.352777 0.419250 -0.400878
H18   H     H_    0.780799 0.348765 0.429497 0.409780
S19   S     S_3+6 0.500667 0.822199 0.592894 0.145846
O123  O     O_2   0.571766 0.821126 0.573703 -0.241431
O124  O     O_2   0.513014 0.749573 0.611201 -0.160596
O125  O     O_3   0.409933 0.809852 0.576637 -0.463825
H19   H     H_    0.417214 0.757190 0.566604 0.404827
S20   S     S_3+6 0.545105 0.829228 0.406969 0.163835
O126  O     O_2   0.471457 0.822483 0.425161 -0.209535
O127  O     O_2   0.541795 0.756031 0.388555 -0.144634
O128  O     O_3   0.633280 0.822625 0.424873 -0.445936
H20   H     H_    0.678763 0.844659 0.413691 0.416519
S21   S     S_3+6 0.159063 0.417300 0.593174 0.173527
O129  O     O_2   0.184578 0.479984 0.572801 -0.217130
O130  O     O_2   0.231799 0.406375 0.611454 -0.124267
O131  O     O_3   0.140003 0.325244 0.578201 -0.433911
H21   H     H_    0.093920 0.298640 0.588135 0.402062
S22   S     S_3+6 0.967255 0.692962 0.391055 0.180208
O132  O     O_2   0.901119 0.687972 0.411910 -0.201415
O133  O     O_2   0.028581 0.760922 0.398013 -0.069739
O134  O     O_3   0.920701 0.719375 0.362841 -0.485605
H22   H     H_    0.877892 0.675281 0.359929 0.344645
S23   S     S_3+6 0.541810 0.167715 0.592512 0.158380
O135  O     O_2   0.611861 0.152464 0.573495 -0.257423
O136  O     O_2   0.466554 0.198648 0.577710 -0.133760
O137  O     O_3   0.573562 0.243455 0.613037 -0.402176
H23   H     H_    0.625866 0.221306 0.620926 0.372748
S24   S     S_3+6 0.492467 0.172083 0.407684 0.155188
O138  O     O_2   0.573223 0.177877 0.422660 -0.209061
O139  O     O_2   0.488765 0.245360 0.389276 -0.151578
O140  O     O_3   0.412787 0.179417 0.429120 -0.464215
H24   H     H_    0.361750 0.163313 0.419421 0.415666
S25   S     S_3+6 0.349887 0.075510 0.090994 0.172848
O141  O     O_2   0.327489 0.010216 0.071104 -0.202965
O142  O     O_2   0.274773 0.088035 0.108299 -0.128293
O143  O     O_3   0.370450 0.165773 0.075143 -0.445170
H25   H     H_    0.411216 0.196275 0.086115 0.404028
S26   S     S_3+6 0.334045 0.951512 0.907343 0.154918
O144  O     O_2   0.322327 0.011898 0.929561 -0.250146
O145  O     O_2   0.261920 0.961948 0.888789 -0.187762
O146  O     O_3   0.332922 0.852969 0.919191 -0.400607
H26   H     H_    0.280284 0.849099 0.929418 0.409878
S27   S     S_3+6 0.001033 0.322430 0.092852 0.145736
O147  O     O_2   0.071971 0.321898 0.073602 -0.241550
O148  O     O_2   0.014029 0.249846 0.111132 -0.160880
O149  O     O_3   0.910258 0.309499 0.076662 -0.463602
H27   H     H_    0.917692 0.256737 0.066689 0.404684
S28   S     S_3+6 0.045379 0.329501 0.907025 0.164121
O150  O     O_2   0.971940 0.322653 0.925294 -0.210028
O151  O     O_2   0.042018 0.256248 0.888633 -0.144145
O152  O     O_3   0.133770 0.323140 0.924835 -0.445055
H28   H     H_    0.178942 0.345967 0.913687 0.416197
S29   S     S_3+6 0.659244 0.916954 0.093210 0.167862
O153  O     O_2   0.684650 0.979257 0.072713 -0.215148
O154  O     O_2   0.732059 0.906425 0.111482 -0.152644
O155  O     O_3   0.640187 0.824596 0.078414 -0.433600
H29   H     H_    0.593661 0.798484 0.088276 0.402189
S30   S     S_3+6 0.467624 0.192911 0.891159 0.180239
O156  O     O_2   0.401548 0.187917 0.912033 -0.201342
O157  O     O_2   0.529112 0.260695 0.898143 -0.069765
O158  O     O_3   0.421032 0.219613 0.862977 -0.485495
H30   H     H_    0.378140 0.175615 0.860046 0.344732
S31   S     S_3+6 0.039847 0.668082 0.092498 0.157952
O159  O     O_2   0.112247 0.653470 0.074291 -0.257875
O160  O     O_2   0.965597 0.696418 0.076750 -0.130051
O161  O     O_3   0.067589 0.745707 0.112902 -0.402856
H31   H     H_    0.120518 0.726067 0.121022 0.369636
S32   S     S_3+6 0.991604 0.672195 0.907646 0.155143
O162  O     O_2   0.072310 0.678286 0.922636 -0.208953
O163  O     O_2   0.987694 0.745433 0.889227 -0.151736
O164  O     O_3   0.911859 0.679295 0.929065 -0.464378
H32   H     H_    0.860871 0.663185 0.919343 0.415662
S33   S     S_3+6 0.888418 0.633061 0.652676 0.097602
O165  O     O_2   0.807596 0.598019 0.663207 -0.215128
O166  O     O_2   0.939447 0.667280 0.674850 -0.332540
O167  O     O_3   0.866840 0.713519 0.632546 -0.489742
H33   H     H_    0.829130 0.751011 0.642608 0.404080
S34   S     S_3+6 0.886879 0.371118 0.349272 0.123603
O168  O     O_2   0.806037 0.402178 0.337597 -0.225856
O169  O     O_2   0.940130 0.332758 0.328187 -0.323104
O170  O     O_3   0.865768 0.295783 0.371222 -0.409344
H34   H     H_    0.829127 0.255395 0.361994 0.399081
S35   S     S_3+6 0.412593 0.842674 0.651119 0.139747
O171  O     O_2   0.469443 0.778966 0.663694 -0.221755
O172  O     O_2   0.354830 0.879169 0.671381 -0.290032
O173  O     O_3   0.352357 0.794795 0.628767 -0.419986
H35   H     H_    0.325979 0.747136 0.638088 0.399303
S36   S     S_3+6 0.616600 0.862884 0.345992 0.107005
O174  O     O_2   0.566840 0.791849 0.334496 -0.212700
O175  O     O_2   0.661279 0.909044 0.324527 -0.318434
O176  O     O_3   0.689941 0.823321 0.366071 -0.490274
H36   H     H_    0.721696 0.782211 0.355412 0.405318
S37   S     S_3+6 0.111649 0.362834 0.654407 0.100248
O177  O     O_2   0.191711 0.397522 0.665503 -0.215847
O178  O     O_2   0.057886 0.330393 0.676279 -0.334125
O179  O     O_3   0.134521 0.281100 0.634917 -0.482716
H37   H     H_    0.172756 0.244989 0.645247 0.417060
S38   S     S_3+6 0.112287 0.640414 0.344974 0.114940
O180  O     O_2   0.183174 0.588424 0.334182 -0.237031
O181  O     O_2   0.067669 0.684155 0.323031 -0.305177
O182  O     O_3   0.153247 0.712462 0.365178 -0.430351
H38   H     H_    0.189242 0.748175 0.354004 0.397996
S39   S     S_3+6 0.442441 0.169072 0.649396 0.138048
O183  O     O_2   0.404584 0.223009 0.628448 -0.133143
O184  O     O_2   0.373206 0.144896 0.667872 -0.279461
O185  O     O_3   0.515258 0.224799 0.665567 -0.506753
H39   H     H_    0.483695 0.271328 0.673890 0.396952
S40   S     S_3+6 0.397987 0.139043 0.349767 0.112066
O186  O     O_2   0.444391 0.209485 0.336611 -0.211757
O187  O     O_2   0.345329 0.093771 0.329990 -0.308168
O188  O     O_3   0.332864 0.179311 0.372321 -0.495890
H40   H     H_    0.298689 0.221612 0.362916 0.406941
S41   S     S_3+6 0.388614 0.133055 0.152643 0.097898
O189  O     O_2   0.307731 0.098085 0.163152 -0.213875
O190  O     O_2   0.439605 0.167238 0.174830 -0.332759
O191  O     O_3   0.367164 0.213533 0.132506 -0.489695
H41   H     H_    0.329451 0.251053 0.142558 0.404066
S42   S     S_3+6 0.386819 0.871150 0.849266 0.123417
O192  O     O_2   0.305979 0.902251 0.837600 -0.225762
O193  O     O_2   0.440035 0.832777 0.828175 -0.323496
O194  O     O_3   0.365697 0.795817 0.871216 -0.409455
H42   H     H_    0.329041 0.755442 0.861989 0.399020
S43   S     S_3+6 0.913169 0.342173 0.151133 0.140629
O195  O     O_2   0.970458 0.278810 0.163683 -0.220994
O196  O     O_2   0.855245 0.378288 0.171416 -0.289199
O197  O     O_3   0.853158 0.293929 0.128798 -0.420289
H43   H     H_    0.826887 0.246271 0.138148 0.399253
S44   S     S_3+6 0.116650 0.363076 0.846031 0.106822
O198  O     O_2   0.066966 0.291971 0.834545 -0.212624
O199  O     O_2   0.161286 0.409243 0.824559 -0.318866
O200  O     O_3   0.190034 0.323616 0.866114 -0.490104
H44   H     H_    0.221817 0.282508 0.855461 0.405297
S45   S     S_3+6 0.612001 0.862920 0.154463 0.093097
O201  O     O_2   0.691966 0.897870 0.165549 -0.227472
O202  O     O_2   0.558317 0.830437 0.176347 -0.330985
O203  O     O_3   0.635109 0.781134 0.135018 -0.488945
H45   H     H_    0.674675 0.745977 0.145181 0.409541
S46   S     S_3+6 0.612329 0.140369 0.844979 0.114817
O204  O     O_2   0.683181 0.088371 0.834169 -0.237025
O205  O     O_2   0.567689 0.184152 0.823048 -0.305726
O206  O     O_3   0.653359 0.212380 0.865181 -0.430173
H46   H     H_    0.689333 0.248100 0.854003 0.397921
S47   S     S_3+6 0.939492 0.668236 0.149308 0.132832
O207  O     O_2   0.871321 0.642973 0.168021 -0.278709
O208  O     O_2   0.003530 0.720258 0.163451 -0.240367
O209  O     O_3   0.894631 0.726716 0.125846 -0.402272
H47   H     H_    0.867955 0.774442 0.135104 0.412229
S48   S     S_3+6 0.897459 0.638770 0.849699 0.111842
O210  O     O_2   0.943712 0.709350 0.836561 -0.211762
O211  O     O_2   0.845046 0.593325 0.829897 -0.308722
O212  O     O_3   0.832096 0.678845 0.872219 -0.496025
H48   H     H_    0.797846 0.721043 0.862797 0.406845

loop_
_geom_bond_atom_site_label_1
_geom_bond_atom_site_label_2
_ccdc_geom_bond_type
C29   C133  A    
S39   O183  D    
S25   O141  D    
S13   O106  D    
O182  H38   S    
S18   O121  D    
C19   C20   A    
C21   C137  A    
S31   O161  S    
C42   C58   A    
S21   O129  D    
S41   O189  D    
C24   C140  A    
C45   C57   A    
S10   O96   D    
C127  C139  A    
C72   O20   A    
O1    Zn5   S    
O179  H37   S    
S33   O166  D    
S46   O205  D    
S41   O191  S    
S18   O122  S    
C10   C94   A    
S28   O150  D    
S45   O201  D    
S35   O173  S    
C2    C90   A    
S29   O155  S    
C35   C139  A    
C65   C96   S    
C33   C137  A    
S8    O90   D    
C79   O49   A    
C62   N1    S    
C67   C94   S    
S2    O73   D    
S11   O100  D    
O1    Zn12  S    
C8    C92   A    
C69   C92   S    
S34   O169  D    
O10   Zn11  S    
C26   C130  A    
O4    Zn8   S    
C100  C109  T    
C113  C133  A    
C21   C22   A    
C23   C143  A    
C20   C132  A    
C104  C105  T    
S14   O109  D    
C68   O12   A    
C37   S13   S    
C38   S14   S    
S2    O74   S    
C1    S33   S    
O125  H19   S    
O131  H21   S    
S32   O163  D    
C50   S26   S    
C97   C112  T    
S22   O132  D    
C85   O43   A    
C99   C110  T    
O13   Zn8   S    
C29   S5    S    
C30   S6    S    
C60   N7    S    
C121  O61   S    
O42   Zn7   S    
O2    Zn2   S    
S17   O119  S    
C61   N2    S    
C6    S38   S    
C7    S39   S    
O20   Zn5   S    
O140  H24   S    
C25   S1    S    
S24   O138  D    
C83   O31   A    
O95   H9    S    
C54   S30   S    
O35   Zn13  S    
C125  N5    A    
O30   Zn12  S    
S40   O186  D    
O33   Zn15  S    
C74   O48   A    
C120  N4    A    
S25   O143  S    
C83   C100  S    
C34   S10   S    
C49   S25   S    
S45   O203  S    
C35   S11   S    
C18   C130  A    
S31   O159  D    
O51   Zn5   S    
S21   O131  S    
O107  H13   S    
C42   S18   S    
S3    O77   S    
O49   Zn7   S    
C40   S16   S    
S22   O134  S    
O50   Zn8   S    
O152  H28   S    
C33   C38   A    
S28   O152  S    
S12   O103  D    
C35   C40   A    
O48   Zn2   S    
O11   Zn14  S    
O170  H34   S    
S36   O176  S    
S8    O92   S    
C121  N5    A    
S27   O149  S    
O137  H23   S    
C41   C57   A    
O128  H20   S    
C65   O9    A    
C67   O7    A    
S5    O82   D    
C68   O8    A    
C119  N3    A    
C5    C89   A    
C126  O66   S    
C15   C55   A    
C66   C95   S    
C120  O60   S    
O2    Zn11  S    
S7    O88   D    
O3    Zn3   S    
C70   C91   S    
O16   Zn1   S    
O149  H27   S    
C73   C110  S    
S39   O184  D    
O3    Zn7   S    
C117  N1    A    
C77   C106  S    
C4    S36   S    
C24   C144  A    
C74   O22   A    
C55   S31   S    
S7    O89   S    
S26   O144  D    
O9    Zn12  S    
S24   O140  S    
S16   O114  D    
S5    O81   D    
C86   C97   S    
C81   O39   A    
C51   S27   S    
C86   O44   A    
C53   C61   A    
C128  N8    A    
S40   O188  S    
O176  H36   S    
O14   Zn7   S    
C30   C134  A    
C55   C63   A    
S41   O190  D    
C119  C131  A    
C23   C24   A    
C56   C64   A    
C2    S34   S    
C117  C129  A    
C128  O68   S    
C3    S35   S    
C43   C59   A    
C71   O15   A    
S1    O69   D    
C46   C58   A    
C72   O16   A    
O194  H42   S    
O143  H25   S    
S37   O178  D    
O34   Zn16  S    
C85   O33   A    
C45   S21   S    
O28   Zn9   S    
C16   C96   A    
C31   S7    S    
C84   O32   A    
C9    C49   A    
S48   O210  D    
C87   O41   A    
S19   O124  D    
O209  H47   S    
C87   O35   A    
C6    C90   A    
C47   C59   A    
C34   C138  A    
C77   O25   A    
O18   Zn3   S    
O1    Zn16  S    
C28   C132  A    
C113  O53   S    
C16   C56   A    
O15   Zn2   S    
O24   Zn13  S    
O19   Zn6   S    
C22   C142  A    
C17   C18   A    
C114  C134  A    
C102  C107  T    
C69   O17   A    
C20   C136  A    
O173  H35   S    
C116  O56   S    
S4    O80   S    
O40   Zn5   S    
S15   O111  D    
S38   O180  D    
C71   O19   A    
C16   S48   S    
S34   O168  D    
C15   S47   S    
O89   H7    S    
C36   C39   A    
S20   O128  S    
O167  H33   S    
O45   Zn3   S    
S7    O87   D    
S6    O84   D    
C82   O30   A    
C119  O59   S    
S16   O116  S    
O4    Zn4   S    
S5    O83   S    
C117  O57   S    
C128  C140  A    
S33   O165  D    
S23   O137  S    
C126  N6    A    
S46   O206  S    
C71   C90   S    
C115  C135  A    
C2    C42   A    
S40   O187  D    
O71   H1    S    
S28   O151  D    
C18   C134  A    
S35   O172  D    
C69   O13   A    
S29   O154  D    
C67   O11   A    
C75   C108  S    
C11   C95   A    
S38   O182  S    
S8    O91   D    
S1    O71   S    
O155  H29   S    
C53   S29   S    
S42   O192  D    
O74   H2    S    
C5    S37   S    
S30   O156  D    
C123  O63   S    
C34   C37   A    
O92   H8    S    
S48   O212  S    
C88   C103  S    
S6    O86   S    
O37   Zn4   S    
C127  O67   S    
C59   N8    S    
C37   C141  A    
C79   C112  S    
O2    Zn6   S    
C122  N6    A    
C15   C95   A    
S22   O133  D    
O17   Zn4   S    
C19   C135  A    
C115  N3    A    
O191  H41   S    
C66   O10   A    
C3    C91   A    
O101  H11   S    
C113  N1    A    
S17   O118  D    
C43   S19   S    
S21   O130  D    
C124  O64   S    
C80   O50   A    
S24   O139  D    
O2    Zn15  S    
C1    C89   A    
O31   Zn9   S    
O44   Zn1   S    
C101  C108  T    
C75   O45   A    
S18   O120  D    
O200  H44   S    
S25   O142  D    
S45   O202  D    
S44   O200  S    
C77   O51   A    
C12   C52   A    
C13   S45   S    
O25   Zn16  S    
C13   C53   A    
S3    O76   D    
C123  N7    A    
C49   C61   A    
C75   O23   A    
S43   O195  D    
C121  C141  A    
C76   O24   A    
C51   C63   A    
C65   O5    A    
C52   C64   A    
S33   O167  S    
S23   O135  D    
C116  N4    A    
S46   O204  D    
O83   H5    S    
C4    C44   A    
S30   O158  S    
S31   O160  D    
O77   H3    S    
C5    C45   A    
C122  O62   S    
C13   C93   A    
C46   S22   S    
C7    C47   A    
O46   Zn4   S    
C8    C48   A    
O1    Zn1   S    
O98   H10   S    
C118  C130  A    
O21   Zn12  S    
S11   O99   D    
S14   O110  S    
C41   S17   S    
C7    C91   A    
S2    O72   D    
S11   O101  S    
S27   O148  D    
C31   C135  A    
C86   O34   A    
O39   Zn6   S    
C32   S8    S    
O52   Zn6   S    
C10   C50   A    
O104  H12   S    
O36   Zn14  S    
C32   C136  A    
O158  H30   S    
C25   C30   A    
C44   S20   S    
O113  H15   S    
S36   O174  D    
C82   O40   A    
C27   C32   A    
C78   O26   A    
C84   C99   S    
S10   O97   D    
C83   O37   A    
C28   C31   A    
S48   O211  D    
S32   O162  D    
O43   Zn2   S    
O146  H26   S    
O164  H32   S    
O5    Zn16  S    
O161  H31   S    
C116  C136  A    
C54   C62   A    
C22   C138  A    
O3    Zn10  S    
O3    Zn14  S    
C125  C137  A    
S4    O78   D    
S36   O175  D    
C70   O18   A    
S43   O197  S    
C21   C141  A    
S19   O123  D    
C76   O46   A    
O38   Zn3   S    
C12   S44   S    
S26   O145  D    
C44   C60   A    
C80   C111  S    
S16   O115  D    
O122  H18   S    
O32   Zn10  S    
C87   C104  S    
S47   O209  S    
O203  H45   S    
O110  H14   S    
O8    Zn9   S    
C12   C96   A    
C14   C94   A    
C4    C92   A    
S26   O146  S    
C125  O65   S    
C115  O55   S    
C27   C131  A    
S13   O105  D    
S27   O147  D    
C81   O29   A    
C25   C129  A    
C74   C109  S    
C28   S4    S    
S37   O177  D    
C33   S9    S    
S44   O198  D    
S15   O113  S    
C3    C43   A    
C78   C105  S    
C80   O28   A    
C23   C139  A    
S12   O102  D    
C78   O52   A    
C27   S3    S    
C70   O14   A    
O26   Zn15  S    
S43   O196  D    
S1    O70   D    
S20   O126  D    
O185  H39   S    
C85   C98   S    
C48   S24   S    
O4    Zn9   S    
S35   O171  D    
C8    S40   S    
C84   O38   A    
O47   Zn1   S    
O86   H6    S    
C58   N5    S    
C127  N7    A    
O197  H43   S    
C124  N8    A    
S38   O181  D    
C38   C142  A    
C47   S23   S    
S32   O164  S    
C10   S42   S    
C48   C60   A    
C11   S43   S    
C81   C102  S    
C19   C131  A    
S39   O185  S    
C9    S41   S    
C17   C129  A    
O7    Zn10  S    
C88   O42   A    
C118  N2    A    
C114  N2    A    
S44   O199  D    
O212  H48   S    
S6    O85   D    
C114  O54   S    
S15   O112  D    
C39   S15   S    
O6    Zn15  S    
S23   O136  D    
S34   O170  S    
S4    O79   D    
S47   O207  D    
C88   O36   A    
O4    Zn13  S    
O23   Zn14  S    
C57   N6    S    
O206  H46   S    
O27   Zn10  S    
C36   C140  A    
S29   O153  D    
S10   O98   S    
C14   C54   A    
C39   C143  A    
S9    O94   D    
C64   N3    S    
C50   C62   A    
S13   O107  S    
S9    O95   S    
C122  C142  A    
S42   O193  D    
O80   H4    S    
C9    C93   A    
C63   N4    S    
C66   O6    A    
S37   O179  S    
O22   Zn11  S    
C1    C41   A    
C36   S12   S    
S14   O108  D    
C126  C138  A    
S30   O157  D    
C98   C111  T    
C6    C46   A    
S47   O208  D    
O12   Zn13  S    
C120  C132  A    
S12   O104  S    
O41   Zn8   S    
S19   O125  S    
S3    O75   D    
C26   S2    S    
C76   C107  S    
C68   C93   S    
C40   C144  A    
C118  O58   S    
O119  H17   S    
S42   O194  S    
O116  H16   S    
C17   C133  A    
C72   C89   S    
O29   Zn11  S    
C73   O47   A    
C56   S32   S    
C82   C101  S    
C103  C106  T    
C79   O27   A    
C52   S28   S    
C73   O21   A    
S17   O117  D    
C14   S46   S    
C11   C51   A    
O188  H40   S    
S20   O127  D    
C26   C29   A    
C123  C143  A    
C124  C144  A    
O134  H22   S    
S9    O93   D    
