data_mof_unit_44854.cif
_audit_creation_date              2013-03-05T16:13:54-0500
_audit_creation_method            fapswitch 2.2
_symmetry_space_group_name_H-M    P1
_symmetry_Int_Tables_number       1
_space_group_crystal_system       triclinic
_cell_length_a                    20.274437
_cell_length_b                    22.67389
_cell_length_c                    6.941061
_cell_angle_alpha                 89.84616
_cell_angle_beta                  86.638745
_cell_angle_gamma                 89.998887
_cell_volume                      3185.30755525

loop_
_atom_site_label
_atom_site_type_symbol
_atom_site_description
_atom_site_fract_x
_atom_site_fract_y
_atom_site_fract_z
_atom_type_partial_charge
O1    O     O_R   0.751270 0.447300 0.600030 -0.565252
O2    O     O_R   0.248730 0.947300 0.399970 -0.563774
O3    O     O_R   0.613530 0.440160 0.952150 -0.593076
O4    O     O_R   0.386470 0.940160 0.047850 -0.576991
O5    O     O_R   0.613050 0.552700 0.122560 -0.597690
O6    O     O_R   0.386950 0.052700 0.877440 -0.581716
C1    C     C_R   0.591524 0.425401 0.787451 0.962946
C2    C     C_R   0.408446 0.925415 0.213167 0.959460
O7    O     O_R   0.750780 0.440350 0.929820 -0.567075
O8    O     O_R   0.249220 0.940350 0.070180 -0.568311
O9    O     O_R   0.751280 0.552900 0.100070 -0.601652
O10   O     O_R   0.248720 0.052900 0.899930 -0.604398
C3    C     C_R   0.774801 0.427043 0.756900 0.958198
C4    C     C_R   0.225232 0.927012 0.243339 0.958156
O11   O     O_R   0.613040 0.447100 0.622520 -0.560801
O12   O     O_R   0.386960 0.947100 0.377480 -0.575408
O13   O     O_3   0.682160 0.536920 0.777780 -0.293940
O14   O     O_3   0.317840 0.036920 0.222220 -0.295498
V1    V     V_3+5 0.682160 0.493150 0.052630 1.231018
V2    V     V_3+5 0.317840 0.993150 0.947370 1.238863
O15   O     O_R   0.750790 0.559840 0.429870 -0.603212
O16   O     O_R   0.249210 0.059840 0.570130 -0.601469
C5    C     C_R   0.774004 0.573981 0.257014 0.972778
C6    C     C_R   0.225980 0.073970 0.742744 0.971794
O17   O     O_R   0.613540 0.559650 0.452200 -0.578461
O18   O     O_R   0.386460 0.059650 0.547800 -0.597091
C7    C     C_R   0.591161 0.574001 0.287013 1.029778
C8    C     C_R   0.408629 0.074229 0.712433 1.032162
V3    V     V_3+5 0.682160 0.506850 0.552630 1.231355
V4    V     V_3+5 0.317840 0.006850 0.447370 1.224926
O19   O     O_3   0.682150 0.463080 0.277610 -0.243302
O20   O     O_3   0.317850 0.963080 0.722390 -0.241165
C9    C     C_R   0.580392 0.862431 0.204363 0.218436
C10   C     C_R   0.421080 0.360064 0.856428 0.216090
H1    H     H_    0.537917 0.948780 0.182135 0.171084
H2    H     H_    0.463635 0.446385 0.876595 0.168818
H3    H     H_    0.671467 0.776059 0.226083 0.164963
H4    H     H_    0.330811 0.272339 0.873050 0.164485
C11   C     C_R   0.462793 0.882205 0.214231 -0.153758
C12   C     C_R   0.537190 0.382074 0.790373 -0.146552
C13   C     C_R   0.469730 0.593163 0.294229 0.340381
C14   C     C_R   0.529068 0.095119 0.655252 0.345495
C15   C     C_R   0.416689 0.632109 0.282418 -0.168771
C16   C     C_R   0.581459 0.135168 0.636120 -0.169783
C17   C     C_R   0.426519 0.692653 0.265758 -0.244764
C18   C     C_R   0.571990 0.195040 0.671025 -0.245084
C19   C     C_R   0.490562 0.717301 0.258633 0.131607
C20   C     C_R   0.508994 0.217924 0.726781 0.132481
C21   C     C_R   0.545356 0.677869 0.267915 0.074662
C22   C     C_R   0.454842 0.177474 0.745438 0.073944
C23   C     C_R   0.501882 0.779710 0.239946 0.089366
C24   C     C_R   0.498056 0.279656 0.763381 0.089121
C25   C     C_R   0.568089 0.801202 0.226246 0.054122
C26   C     C_R   0.432885 0.299567 0.817521 0.056612
C27   C     C_R   0.620712 0.761308 0.235019 -0.165630
C28   C     C_R   0.380809 0.258795 0.832857 -0.165722
C29   C     C_R   0.609659 0.701134 0.256341 -0.189378
C30   C     C_R   0.391473 0.199202 0.797763 -0.193182
C31   C     C_R   0.449750 0.821687 0.234907 -0.242978
C32   C     C_R   0.549630 0.322395 0.749562 -0.244735
C33   C     C_R   0.527889 0.902029 0.198260 -0.091741
C34   C     C_R   0.473154 0.400347 0.843927 -0.099911
C35   C     C_R   0.534883 0.615792 0.286676 -0.361351
C36   C     C_R   0.464898 0.116085 0.709139 -0.363088
H5    H     H_    0.398454 0.809130 0.248388 0.106259
H6    H     H_    0.600213 0.310870 0.711063 0.107347
H7    H     H_    0.382524 0.718849 0.257024 0.139829
H8    H     H_    0.615446 0.222192 0.652525 0.140264
H9    H     H_    0.366570 0.615393 0.287721 0.177590
H10   H     H_    0.630853 0.119771 0.595068 0.178132
H11   H     H_    0.652500 0.672840 0.262775 0.096286
H12   H     H_    0.349092 0.170149 0.812659 0.100902
C37   C     C_R   0.168365 0.885115 0.263669 -0.303503
C38   C     C_R   0.831718 0.385230 0.736918 -0.303709
C39   C     C_R   0.158864 0.843476 0.117621 -0.134194
C40   C     C_R   0.841377 0.343512 0.883326 -0.133817
C41   C     C_R   0.105066 0.804491 0.130512 -0.133835
C42   C     C_R   0.895126 0.304486 0.870205 -0.134068
C43   C     C_R   0.059060 0.806197 0.291017 0.189553
C44   C     C_R   0.940910 0.306244 0.709117 0.189536
C45   C     C_R   0.068295 0.847579 0.436042 -0.253804
C46   C     C_R   0.931548 0.347744 0.563860 -0.253986
C47   C     C_R   0.121825 0.886926 0.424467 0.369260
C48   C     C_R   0.878087 0.387129 0.575666 0.369287
C49   C     C_R   0.905545 0.685406 0.381944 -0.124081
C50   C     C_R   0.094102 0.185271 0.617464 -0.124110
C51   C     C_R   0.852600 0.645622 0.400420 -0.143955
C52   C     C_R   0.147049 0.145504 0.598897 -0.141221
C53   C     C_R   0.937070 0.697548 0.199029 0.231341
C54   C     C_R   0.062905 0.197422 0.800615 0.231358
N1    N     N_2   0.003871 0.767021 0.315848 -0.087774
N2    N     N_2   0.996013 0.267029 0.683946 -0.087671
N3    N     N_2   0.992149 0.736832 0.171347 -0.094405
N4    N     N_2   0.007888 0.236710 0.828536 -0.094329
C55   C     C_R   0.829549 0.617090 0.237457 -0.124182
C56   C     C_R   0.170409 0.117023 0.762010 -0.123969
H13   H     H_    0.829834 0.637168 0.542859 0.129688
H14   H     H_    0.169577 0.137027 0.456335 0.129187
H15   H     H_    0.921956 0.706075 0.511149 0.117292
H16   H     H_    0.077435 0.205925 0.488194 0.117242
H17   H     H_    0.033198 0.849428 0.559819 0.159917
H18   H     H_    0.966489 0.349652 0.439692 0.159961
C57   C     C_R   0.860970 0.629446 0.055519 -0.132077
C58   C     C_R   0.139280 0.129379 0.944133 -0.134495
C59   C     C_R   0.914136 0.668917 0.037244 -0.144524
C60   C     C_R   0.086127 0.168812 0.962494 -0.143962
H19   H     H_    0.844926 0.608205 0.926771 0.135939
H20   H     H_    0.155556 0.108178 0.073032 0.136272
H21   H     H_    0.100020 0.772876 0.015717 0.132277
H22   H     H_    0.900295 0.272788 0.985242 0.132441
H23   H     H_    0.937644 0.677296 0.895651 0.116673
H24   H     H_    0.062868 0.177195 0.104252 0.116685
H25   H     H_    0.193612 0.840604 0.993453 0.171092
H26   H     H_    0.806773 0.340589 0.007867 0.171296
N5    N     N_R   0.126369 0.929788 0.574022 0.227643
O21   O     O_R   0.080580 0.969734 0.598029 -0.396869
O22   O     O_R   0.166338 0.920674 0.710846 -0.404372
N6    N     N_R   0.873423 0.430104 0.425766 0.227641
O23   O     O_R   0.919104 0.470178 0.401458 -0.397205
O24   O     O_R   0.833546 0.420962 0.288881 -0.404390
I1    I     I_    0.676691 0.900041 0.179151 -0.269348
I2    I     I_    0.326296 0.395388 0.937965 -0.266900
N7    N     N_R   0.456291 0.530826 0.310474 0.224425
O25   O     O_R   0.491289 0.496977 0.416513 -0.409568
O26   O     O_R   0.404121 0.508805 0.236885 -0.374331
N8    N     N_R   0.542067 0.033495 0.618193 0.226320
O27   O     O_R   0.510043 0.992661 0.717030 -0.407954
O28   O     O_R   0.591270 0.017963 0.500285 -0.382713

loop_
_geom_bond_atom_site_label_1
_geom_bond_atom_site_label_2
_geom_bond_distance
_ccdc_geom_bond_type
C52   C56   1.407864 A    
N8    O27   1.301455 A    
C21   C35   1.427912 A    
C54   N4    1.432085 S    
C9    C25   1.416714 A    
C22   C36   1.427718 A    
O4    C2    1.298031 A    
V1    O19   1.702262 S    
C58   C60   1.400516 A    
C21   C29   1.404250 A    
N7    O25   1.300931 A    
C19   C21   1.430288 A    
C60   H24   1.083172 S    
O9    V1    1.991038 S    
C38   C40   1.408528 A    
C12   C32   1.403071 A    
C40   C42   1.402708 A    
O3    C1    1.296071 A    
C6    C56   1.491032 S    
C42   C44   1.411196 A    
N7    O26   1.301427 A    
O12   V4    1.989548 S    
N5    O21   1.300989 A    
C10   C34   1.394732 A    
C12   C34   1.392708 A    
C10   I2    2.128268 S    
C17   C19   1.411762 A    
O7    C3    1.304680 A    
N6    O23   1.301057 A    
C24   C32   1.424578 A    
O5    C7    1.294894 A    
O7    V1    1.990419 S    
O6    C8    1.296618 A    
O8    V2    1.987695 S    
N5    O22   1.300193 A    
C51   C55   1.407960 A    
C17   H7    1.076201 S    
C40   H26   1.082793 S    
C1    C12   1.475220 S    
O3    V1    1.996107 S    
C39   H25   1.082800 S    
C2    C11   1.474736 S    
C28   C30   1.388332 A    
C50   H16   1.082528 S    
C43   N1    1.430849 S    
C49   C51   1.402032 A    
C59   H23   1.083165 S    
C32   H6    1.076859 S    
C2    O12   1.295000 A    
C9    I1    2.128129 S    
C13   C15   1.397444 A    
C14   C16   1.397627 A    
H2    C34   1.083707 S    
O1    V3    1.986513 S    
C45   C47   1.403444 A    
C24   C26   1.426016 A    
O11   V3    1.987809 S    
C18   C20   1.411864 A    
C25   C27   1.402670 A    
O17   V3    1.990951 S    
C11   C33   1.392399 A    
C26   C28   1.402504 A    
C55   C57   1.408137 A    
C22   C30   1.404092 A    
C4    C37   1.493943 S    
C47   N5    1.430803 S    
C54   C60   1.401107 A    
C44   C46   1.398334 A    
C50   C54   1.414088 A    
C43   C45   1.398551 A    
C49   C53   1.413941 A    
C19   C23   1.437853 A    
C1    O11   1.296667 A    
C16   C18   1.390950 A    
O15   V3    1.990288 S    
C23   C25   1.425867 A    
O4    V2    1.993820 S    
C44   N2    1.430777 S    
O1    C3    1.297060 A    
C18   H8    1.076139 S    
C49   H15   1.082531 S    
N1    N3    1.250064 D    
C39   C41   1.402569 A    
C11   C31   1.402820 A    
O10   V2    1.989797 S    
N2    N4    1.249950 D    
C46   H18   1.083851 S    
C41   C43   1.411044 A    
C57   C59   1.400837 A    
C29   H11   1.082763 S    
C41   H21   1.082508 S    
C20   C22   1.430395 A    
C15   C17   1.390700 A    
C7    C35   1.483255 S    
O14   V4    1.703354 S    
C8    C36   1.483092 S    
C9    C33   1.395002 A    
C10   C26   1.416405 A    
C46   C48   1.403196 A    
C27   C29   1.388764 A    
C48   N6    1.430751 S    
O8    C4    1.304638 A    
O16   C6    1.302251 A    
C23   C31   1.424221 A    
C37   C39   1.408616 A    
C14   C36   1.415045 A    
C58   H20   1.082937 S    
C16   H10   1.083044 S    
V2    O20   1.705617 S    
C56   C58   1.408242 A    
N8    O28   1.301832 A    
O16   V4    1.993016 S    
C38   C48   1.419416 A    
O18   V4    1.993234 S    
O5    V1    1.986373 S    
O17   C7    1.298215 A    
O6    V2    1.984642 S    
O10   C6    1.298977 A    
O18   C8    1.295907 A    
C42   H22   1.082504 S    
O2    V4    1.987749 S    
C13   N7    1.442314 S    
O15   C5    1.302141 A    
V3    O19   2.153873 S    
O13   V3    1.706710 S    
C31   H5    1.076967 S    
V4    O20   2.149144 S    
C30   H12   1.082668 S    
H1    C33   1.083625 S    
C50   C52   1.402268 A    
O9    C5    1.299654 A    
O13   V1    2.148088 S    
C5    C55   1.491106 S    
O14   V2    2.152816 S    
C53   N3    1.432223 S    
O2    C4    1.297676 A    
N6    O24   1.300195 A    
C14   N8    1.442883 S    
H3    C27   1.080300 S    
C20   C24   1.438129 A    
H4    C28   1.080254 S    
C3    C38   1.493861 S    
C15   H9    1.083093 S    
C53   C59   1.401375 A    
C13   C35   1.415153 A    
C45   H17   1.083842 S    
C57   H19   1.082940 S    
C37   C47   1.419313 A    
C52   H14   1.082929 S    
C51   H13   1.082932 S    
