data_mof_unit_59796.cif
_audit_creation_date              2012-12-11T16:51:29-0500
_audit_creation_method            fapswitch 2.2
_symmetry_space_group_name_H-M    P1
_symmetry_Int_Tables_number       1
_space_group_crystal_system       triclinic
_cell_length_a                    24.873243
_cell_length_b                    17.506978
_cell_length_c                    15.767373
_cell_angle_alpha                 89.352394
_cell_angle_beta                  130.195468
_cell_angle_gamma                 90.30001
_cell_volume                      5244.20963555

loop_
_atom_site_label
_atom_site_type_symbol
_atom_type_description
_atom_site_fract_x
_atom_site_fract_y
_atom_site_fract_z
_atom_type_partial_charge
C1    C     C_R   0.833039 0.892757 0.197681 -0.078738
C2    C     C_R   0.170388 0.149789 0.503161 -0.036166
C3    C     C_3   0.211344 0.341180 0.741753 0.156921
C4    C     C_3   0.147425 0.329518 0.619072 -0.284599
C5    C     C_3   0.150048 0.380933 0.542938 -1.027674
C6    C     C_3   0.336704 0.836002 0.288635 0.200520
C7    C     C_3   0.408886 0.801043 0.382526 -0.291013
C8    C     C_3   0.457211 0.857409 0.475218 -1.073573
C9    C     C_3   0.676407 0.860873 0.720680 0.190943
C10   C     C_3   0.677225 0.852811 0.624981 -0.280963
C11   C     C_3   0.631827 0.913455 0.534894 -1.046201
C12   C     C_3   0.273376 0.946056 0.764544 0.168658
C13   C     C_R   0.342893 0.666667 0.496589 -0.041572
C14   C     C_3   0.337634 0.975126 0.781266 -0.233699
C15   C     C_3   0.387167 0.020009 0.888982 -1.109190
C16   C     C_3   0.727769 0.934775 0.267327 0.105969
C17   C     C_3   0.692779 0.950559 0.317468 -0.301952
C18   C     C_3   0.632848 0.008547 0.247389 -1.006022
C19   C     C_3   0.777506 0.417668 0.737921 0.106884
C20   C     C_3   0.808099 0.430432 0.679748 -0.256567
C21   C     C_3   0.870642 0.484748 0.744828 -1.018909
C22   C     C_3   0.231378 0.438087 0.266807 0.085836
C23   C     C_3   0.203128 0.453823 0.327909 -0.314110
C24   C     C_R   0.686959 0.614171 0.507623 -0.021352
C25   C     C_3   0.126407 0.480528 0.248230 -0.999714
C26   C     C_3   0.913752 0.145274 0.049804 0.183984
C27   C     C_3   0.853104 0.090484 0.967739 -0.363001
C28   C     C_3   0.805467 0.124071 0.850313 -0.973580
C29   C     C_3   0.100830 0.112688 0.943407 0.111363
C30   C     C_3   0.135727 0.034676 0.962605 -0.366010
C31   C     C_3   0.203793 0.026771 0.082861 -0.964774
C32   C     C_3   0.498931 0.735321 0.235267 0.241624
C33   C     C_3   0.491955 0.774102 0.141477 -0.272592
C34   C     C_3   0.501524 0.860335 0.157634 -1.053958
C35   C     C_R   0.861727 0.160628 0.169175 0.011477
C36   C     C_3   0.607638 0.602651 0.948249 0.138477
C37   C     C_3   0.615992 0.516427 0.953713 -0.330817
C38   C     C_3   0.676326 0.488717 0.071761 -0.994611
C39   C     C_3   0.930657 0.035804 0.751564 0.260718
C40   C     C_3   0.872276 0.993395 0.739328 -0.397043
C41   C     C_3   0.902932 0.935486 0.833776 -1.038833
C42   C     C_3   0.088389 0.046823 0.269023 0.252411
C43   C     C_3   0.163544 0.023493 0.321575 -0.391888
C44   C     C_3   0.164771 0.956630 0.261237 -1.010503
C45   C     C_3   0.412182 0.562805 0.729715 0.272585
C46   C     C_R   0.123468 0.178139 0.797693 0.014127
C47   C     C_3   0.336263 0.546230 0.679212 -0.348676
C48   C     C_3   0.332267 0.475994 0.732819 -1.050512
C49   C     C_3   0.567561 0.528546 0.254447 0.216738
C50   C     C_3   0.546390 0.534597 0.139504 -0.251754
C51   C     C_3   0.513421 0.461057 0.073768 -1.081584
C52   C     C_3   0.680200 0.730148 0.222832 0.323319
C53   C     C_3   0.662547 0.760773 0.116183 -0.275538
C54   C     C_3   0.584781 0.782256 0.028904 -1.043109
C55   C     C_3   0.339805 0.957836 0.541969 0.160588
C56   C     C_3   0.416926 0.970761 0.644870 -0.305345
C57   C     C_R   0.370954 0.672495 0.188685 0.011692
C58   C     C_3   0.452684 0.027178 0.620660 -1.003650
C59   C     C_3   0.158289 0.268541 0.196798 0.313898
C60   C     C_3   0.096699 0.212747 0.130728 -0.448643
C61   C     C_3   0.039199 0.242385 0.011845 -0.993064
C62   C     C_3   0.715555 0.381760 0.320919 0.215173
C63   C     C_3   0.789122 0.404421 0.364037 -0.333577
C64   C     C_3   0.807499 0.486614 0.404044 -0.861518
C65   C     C_R   0.622874 0.678461 0.796258 0.006934
C66   C     C_R   0.843778 0.723721 0.605811 0.109006
C67   C     C_R   0.202489 0.741579 0.483386 0.115941
C68   C     C_R   0.339713 0.212299 0.583066 0.111353
C69   C     C_R   0.161160 0.877153 0.790509 -0.137653
C70   C     C_R   0.711112 0.207974 0.553800 0.171185
C71   C     C_R   0.821452 0.749670 0.502906 -0.087804
C72   C     C_R   0.219528 0.818223 0.501423 -0.079125
C73   C     C_R   0.315851 0.250633 0.485187 -0.079332
C74   C     C_R   0.694963 0.277281 0.498242 -0.107228
C75   C     C_R   0.771537 0.704133 0.408157 0.539192
C76   C     C_R   0.283755 0.845622 0.534519 0.585661
C77   C     C_R   0.244396 0.240557 0.388596 0.556635
C78   C     C_R   0.722286 0.297750 0.446154 0.540764
C79   C     C_R   0.197601 0.223998 0.405619 -0.400344
C80   C     C_R   0.333261 0.392493 0.197336 -0.064685
C81   C     C_R   0.760434 0.241932 0.442107 -0.406856
C82   C     C_R   0.738960 0.643630 0.419585 -0.412126
C83   C     C_R   0.326355 0.793348 0.535042 -0.372254
C84   C     C_R   0.221184 0.188056 0.503272 0.041967
C85   C     C_R   0.770349 0.169700 0.488812 0.040072
C86   C     C_R   0.746447 0.637237 0.515212 0.031342
C87   C     C_R   0.301094 0.719400 0.496464 0.062484
C88   C     C_R   0.292752 0.175849 0.588463 0.129349
C89   C     C_R   0.749404 0.154039 0.550118 0.204081
C90   C     C_R   0.806340 0.669176 0.611979 0.162152
C91   C     C_R   0.664467 0.382884 0.794202 -0.112717
C92   C     C_R   0.243322 0.692169 0.481578 0.128707
C93   C     C_3   0.818104 0.707172 0.707071 -0.495676
C94   C     C_3   0.181674 0.646844 0.390099 -0.517293
C95   C     C_3   0.334575 0.193147 0.708292 -0.502856
C96   C     C_3   0.701940 0.091448 0.532305 -0.564222
C97   C     C_R   0.106993 0.883634 0.407177 -0.290021
C98   C     C_R   0.907690 0.860352 0.591866 -0.279186
C99   C     C_R   0.594467 0.365474 0.405957 -0.226427
C100  C     C_R   0.410164 0.355658 0.587359 -0.255512
C101  C     C_3   0.858788 0.767065 0.700111 -0.498436
C102  C     C_R   0.882238 0.099297 0.586583 0.556290
C103  C     C_3   0.135821 0.702581 0.391221 -0.450925
C104  C     C_3   0.384839 0.235348 0.702635 -0.483416
C105  C     C_3   0.660829 0.150994 0.538380 -0.476391
C106  C     C_2   0.185126 0.824477 0.961562 -0.159735
C107  C     C_2   0.806524 0.848343 0.020404 -0.167788
C108  C     C_2   0.690806 0.319029 0.959725 -0.210194
C109  C     C_2   0.308717 0.345525 0.022974 -0.162312
C110  C     C_2   0.254002 0.839287 0.029375 -0.304039
C111  C     C_2   0.736464 0.848583 0.958330 -0.335152
C112  C     C_2   0.758359 0.341697 0.031099 -0.339515
C113  C     C_R   0.108655 0.118682 0.410107 0.557087
C114  C     C_2   0.238482 0.347094 0.958216 -0.328749
C115  C     C_2   0.820103 0.221396 0.087265 -0.380890
C116  C     C_2   0.150166 0.250694 0.858402 -0.323874
C117  C     C_2   0.337751 0.738992 0.115618 -0.359981
C118  C     C_2   0.652364 0.747665 0.863481 -0.348935
C119  C     C_2   0.814000 0.289589 0.118442 0.631367
C120  C     C_2   0.196371 0.295411 0.863400 0.623715
C121  C     C_2   0.301367 0.789597 0.124540 0.603140
C122  C     C_2   0.693100 0.797757 0.862606 0.607285
C123  C     C_R   0.185945 0.891686 0.591480 0.571916
C124  C     C_R   0.398621 0.629828 0.589947 0.536471
C125  C     C_R   0.827519 0.867027 0.408345 0.614936
C126  C     C_R   0.671468 0.365554 0.591002 0.555753
C127  C     C_R   0.329294 0.366716 0.403951 0.601486
C128  C     C_R   0.072641 0.883026 0.793718 -0.164201
C129  C     C_R   0.923471 0.892678 0.198768 -0.146873
C130  C     C_R   0.573927 0.379641 0.793037 -0.186740
C131  C     C_R   0.424211 0.391059 0.200236 -0.173755
C132  C     C_R   0.853065 0.874090 0.136122 0.116750
C133  C     C_R   0.139381 0.855014 0.848786 0.140378
C134  C     C_R   0.354074 0.372549 0.137484 0.125992
C135  C     C_R   0.618784 0.597768 0.413727 0.530523
C136  C     C_R   0.642763 0.355029 0.849800 0.166791
C137  C     C_R   0.173894 0.865371 0.499558 0.022836
C138  C     C_R   0.850123 0.822194 0.499329 -0.019619
C139  C     C_R   0.651597 0.328756 0.498269 0.003911
C140  C     C_R   0.352298 0.318668 0.491515 -0.052556
C141  C     C_R   0.812247 0.105814 0.404043 -0.262339
C142  C     C_R   0.181869 0.119650 0.594305 -0.286955
C143  C     C_R   0.324833 0.630240 0.405125 -0.271819
C144  C     C_R   0.689475 0.600371 0.595675 -0.284418
C145  C     C_R   0.924567 0.123120 0.208608 0.565362
C146  C     C_R   0.816225 0.119645 0.492661 -0.042817
C147  C     C_R   0.066500 0.135165 0.770312 0.562427
C148  C     C_R   0.434649 0.638063 0.232126 0.489255
C149  C     C_R   0.568134 0.633529 0.773675 0.555748
C150  C     C_R   0.152553 0.136959 0.761999 -0.185121
C151  C     C_R   0.840581 0.128402 0.222583 -0.159346
C152  C     C_R   0.650449 0.639484 0.756527 -0.178407
C153  C     C_R   0.342605 0.631162 0.225597 -0.154352
C154  C     C_3   0.886177 0.381152 0.248899 0.159957
C155  C     C_3   0.945934 0.391230 0.373394 -0.248929
C156  C     C_3   0.978256 0.470742 0.399303 -1.030162
H1    H     H_    0.780074 0.895945 0.167092 0.105747
H2    H     H_    0.133314 0.267083 0.904312 0.105553
H3    H     H_    0.092147 0.436572 0.184611 0.258392
H4    H     H_    0.044896 0.884136 0.825270 0.080797
H5    H     H_    0.952482 0.895032 0.169302 0.093607
H6    H     H_    0.545980 0.376383 0.824185 0.099632
H7    H     H_    0.453708 0.391319 0.171884 0.101842
H8    H     H_    0.948325 0.146123 0.028598 0.138208
H9    H     H_    0.897487 0.205605 0.040726 0.114881
H10   H     H_    0.875346 0.035416 0.968422 0.208909
H11   H     H_    0.820807 0.077914 0.991902 0.200416
H12   H     H_    0.777265 0.175224 0.845119 0.274469
H13   H     H_    0.341139 0.745447 0.050584 0.137339
H14   H     H_    0.765969 0.080767 0.791515 0.259484
H15   H     H_    0.836789 0.141085 0.825652 0.278286
H16   H     H_    0.077105 0.106485 0.982502 0.145600
H17   H     H_    0.140830 0.158544 0.987836 0.145656
H18   H     H_    0.098906 0.988888 0.945223 0.191618
H19   H     H_    0.149300 0.026815 0.908785 0.217656
H20   H     H_    0.245201 0.063821 0.096794 0.271011
H21   H     H_    0.222335 0.966675 0.100974 0.276933
H22   H     H_    0.195506 0.043916 0.141186 0.274017
H23   H     H_    0.555166 0.736290 0.311630 0.119105
H24   H     H_    0.642994 0.756263 0.920474 0.131933
H25   H     H_    0.470788 0.770085 0.254239 0.062527
H26   H     H_    0.532352 0.749979 0.139887 0.201227
H27   H     H_    0.439396 0.762327 0.060316 0.209031
H28   H     H_    0.458107 0.885565 0.151215 0.269908
H29   H     H_    0.500623 0.886647 0.092440 0.279556
H30   H     H_    0.552432 0.873464 0.240382 0.276046
H31   H     H_    0.597196 0.618004 0.004429 0.144507
H32   H     H_    0.658674 0.627863 0.980563 0.102101
H33   H     H_    0.566051 0.488823 0.922692 0.192861
H34   H     H_    0.629448 0.501488 0.901564 0.212787
H35   H     H_    0.163015 0.786761 0.987327 0.153131
H36   H     H_    0.727662 0.505969 0.096190 0.264928
H37   H     H_    0.674876 0.425562 0.076251 0.278204
H38   H     H_    0.672215 0.513045 0.131769 0.254134
H39   H     H_    0.202123 0.146280 0.781489 0.186509
H40   H     H_    0.791426 0.138339 0.204993 0.125700
H41   H     H_    0.697132 0.653095 0.768073 0.178669
H42   H     H_    0.290508 0.637170 0.198565 0.157137
H43   H     H_    0.971223 0.048887 0.840783 0.163238
H44   H     H_    0.956322 0.998508 0.730482 0.077296
H45   H     H_    0.841169 0.035001 0.744018 0.236652
H46   H     H_    0.830357 0.822001 0.989517 0.159899
H47   H     H_    0.837295 0.964520 0.657668 0.188861
H48   H     H_    0.938608 0.895241 0.837251 0.263111
H49   H     H_    0.859770 0.903335 0.821343 0.282966
H50   H     H_    0.933573 0.965148 0.914671 0.262545
H51   H     H_    0.056895 0.050710 0.177702 0.140570
H52   H     H_    0.061483 0.003812 0.281656 0.101412
H53   H     H_    0.190384 0.072832 0.318138 0.231816
H54   H     H_    0.192778 0.007784 0.409861 0.216792
H55   H     H_    0.148600 0.902871 0.276550 0.268595
H56   H     H_    0.218937 0.948655 0.291736 0.264054
H57   H     H_    0.673662 0.268169 0.976447 0.135603
H58   H     H_    0.129110 0.967720 0.170358 0.266854
H59   H     H_    0.444970 0.565674 0.821323 0.149794
H60   H     H_    0.434258 0.515202 0.714172 0.074567
H61   H     H_    0.314751 0.596207 0.691730 0.226531
H62   H     H_    0.303459 0.536551 0.588685 0.185467
H63   H     H_    0.348685 0.424359 0.714449 0.266862
H64   H     H_    0.277352 0.468636 0.698978 0.279686
H65   H     H_    0.366448 0.482957 0.824130 0.276746
H66   H     H_    0.520006 0.514173 0.243333 0.131413
H67   H     H_    0.607999 0.483080 0.303205 0.109216
H68   H     H_    0.333766 0.317260 0.995328 0.161919
H69   H     H_    0.508199 0.582216 0.091584 0.232461
H70   H     H_    0.593702 0.548125 0.149550 0.173396
H71   H     H_    0.547491 0.411043 0.123348 0.266437
H72   H     H_    0.506449 0.465130 0.996908 0.273070
H73   H     H_    0.460775 0.452754 0.049161 0.271849
H74   H     H_    0.660675 0.771365 0.250942 0.106673
H75   H     H_    0.651283 0.675526 0.201089 0.054802
H76   H     H_    0.693957 0.810766 0.129591 0.233792
H77   H     H_    0.677813 0.717157 0.086159 0.168494
H78   H     H_    0.550578 0.732704 0.009310 0.279223
H79   H     H_    0.766355 0.111950 0.317439 0.134762
H80   H     H_    0.572681 0.802334 0.951293 0.280149
H81   H     H_    0.572525 0.829784 0.059918 0.275487
H82   H     H_    0.314874 0.014802 0.507843 0.141172
H83   H     H_    0.335289 0.929244 0.475023 0.078312
H84   H     H_    0.419831 0.994398 0.712746 0.213569
H85   H     H_    0.445961 0.915660 0.674425 0.194268
H86   H     H_    0.448190 0.007985 0.549514 0.274687
H87   H     H_    0.509304 0.031875 0.694835 0.267466
H88   H     H_    0.428090 0.084556 0.600972 0.271843
H89   H     H_    0.164293 0.294889 0.138885 0.154100
H90   H     H_    0.230040 0.120775 0.679238 0.150093
H91   H     H_    0.144386 0.315558 0.226049 0.086497
H92   H     H_    0.116702 0.155894 0.133412 0.221390
H93   H     H_    0.071696 0.206778 0.168083 0.250231
H94   H     H_    0.014764 0.294836 0.013076 0.261193
H95   H     H_    0.997678 0.198731 0.961523 0.282424
H96   H     H_    0.061016 0.256174 0.970450 0.276993
H97   H     H_    0.678209 0.427999 0.265230 0.127225
H98   H     H_    0.695544 0.330651 0.266784 0.044477
H99   H     H_    0.830222 0.366819 0.433881 0.204071
H100  H     H_    0.790494 0.397893 0.295611 0.189649
H101  H     H_    0.277324 0.638095 0.320341 0.151906
H102  H     H_    0.772076 0.526469 0.333188 0.249858
H103  H     H_    0.862443 0.498822 0.440189 0.249036
H104  H     H_    0.803042 0.495777 0.468872 0.284548
H105  H     H_    0.211128 0.863953 0.814725 0.135690
H106  H     H_    0.736324 0.595638 0.681730 0.138759
H107  H     H_    0.142596 0.235764 0.341499 0.185488
H108  H     H_    0.783505 0.253460 0.404239 0.160480
H109  H     H_    0.703291 0.606760 0.350441 0.194367
H110  H     H_    0.377464 0.809348 0.562987 0.150069
H111  H     H_    0.769284 0.729649 0.686333 0.211886
H112  H     H_    0.173919 0.649443 0.312386 0.203498
H113  H     H_    0.306313 0.230664 0.724726 0.210515
H114  H     H_    0.671444 0.065278 0.449408 0.220501
H115  H     H_    0.851828 0.672738 0.784949 0.189400
H116  H     H_    0.279767 0.396121 0.164311 0.123848
H117  H     H_    0.181573 0.589128 0.419657 0.208643
H118  H     H_    0.358442 0.141438 0.761022 0.212267
H119  H     H_    0.728551 0.049871 0.601861 0.202212
H120  H     H_    0.832472 0.823691 0.672763 0.211143
H121  H     H_    0.101798 0.737842 0.314128 0.189185
H122  H     H_    0.382866 0.297038 0.715682 0.188928
H123  H     H_    0.606202 0.159046 0.458835 0.199398
H124  H     H_    0.915683 0.766632 0.774417 0.194209
H125  H     H_    0.108756 0.676345 0.419256 0.199395
H126  H     H_    0.438160 0.209082 0.755139 0.195261
H127  H     H_    0.717923 0.383655 0.826442 0.139353
H128  H     H_    0.665595 0.145231 0.613235 0.204782
H129  H     H_    0.845319 0.425494 0.218764 0.111419
H130  H     H_    0.908180 0.388832 0.206124 0.088119
H131  H     H_    0.925791 0.382244 0.418328 0.201713
H132  H     H_    0.987176 0.347568 0.403475 0.204699
H133  H     H_    0.000812 0.480125 0.357995 0.270988
H134  H     H_    0.020990 0.476287 0.490359 0.276206
H135  H     H_    0.937787 0.515142 0.370539 0.273590
H136  H     H_    0.259732 0.343453 0.751631 0.141559
H137  H     H_    0.207042 0.397511 0.769483 0.090797
H138  H     H_    0.276489 0.876637 0.003957 0.116148
H139  H     H_    0.145546 0.269246 0.596487 0.230791
H140  H     H_    0.098604 0.341460 0.605720 0.187065
H141  H     H_    0.149525 0.441971 0.560787 0.272759
H142  H     H_    0.103577 0.369826 0.454987 0.277480
H143  H     H_    0.198111 0.368715 0.554159 0.275833
H144  H     H_    0.310684 0.851062 0.322765 0.123413
H145  H     H_    0.342591 0.890556 0.257862 0.079533
H146  H     H_    0.402388 0.749988 0.417314 0.221620
H147  H     H_    0.434853 0.782821 0.349976 0.186021
H148  H     H_    0.463814 0.909697 0.442279 0.273985
H149  H     H_    0.712008 0.873515 0.988786 0.117217
H150  H     H_    0.509228 0.830066 0.538523 0.282082
H151  H     H_    0.435519 0.873176 0.515396 0.274708
H152  H     H_    0.709582 0.910805 0.771515 0.103262
H153  H     H_    0.621340 0.871821 0.685673 0.107551
H154  H     H_    0.732222 0.858784 0.658209 0.191824
H155  H     H_    0.657325 0.795490 0.586933 0.212736
H156  H     H_    0.575366 0.899131 0.484711 0.281295
H157  H     H_    0.644319 0.915546 0.478796 0.269521
H158  H     H_    0.641345 0.970460 0.572282 0.279723
H159  H     H_    0.081481 0.873718 0.321206 0.133919
H160  H     H_    0.774496 0.394825 0.017126 0.124075
H161  H     H_    0.938378 0.843800 0.677427 0.157225
H162  H     H_    0.569454 0.355232 0.320156 0.137010
H163  H     H_    0.443254 0.335505 0.671205 0.149801
H164  H     H_    0.292362 0.931123 0.848408 0.127771
H165  H     H_    0.233943 0.992152 0.732297 0.071839
H166  H     H_    0.367495 0.925915 0.785792 0.248949
H167  H     H_    0.319664 0.012364 0.709802 0.206380
H168  H     H_    0.358755 0.068485 0.889548 0.275458
H169  H     H_    0.432078 0.042319 0.896876 0.276332
H170  H     H_    0.408517 0.982398 0.961755 0.287599
H171  H     H_    0.212913 0.374503 0.985341 0.115200
H172  H     H_    0.686009 0.931657 0.175770 0.137899
H173  H     H_    0.762000 0.982237 0.280900 0.095775
H174  H     H_    0.671094 0.896524 0.321778 0.204057
H175  H     H_    0.732624 0.971962 0.403479 0.179784
H176  H     H_    0.653896 0.065874 0.252389 0.266765
H177  H     H_    0.603248 0.012065 0.277697 0.268384
H178  H     H_    0.595180 0.990761 0.159189 0.270726
H179  H     H_    0.821715 0.407338 0.827788 0.142011
H180  H     H_    0.749730 0.469306 0.732624 0.087646
H181  H     H_    0.825689 0.374954 0.671263 0.225531
H182  H     H_    0.786735 0.207382 0.999909 0.138466
H183  H     H_    0.766773 0.454903 0.595469 0.213635
H184  H     H_    0.855848 0.538768 0.761119 0.260699
H185  H     H_    0.887710 0.497768 0.696265 0.276169
H186  H     H_    0.915336 0.458140 0.825286 0.267772
H187  H     H_    0.186994 0.436473 0.175790 0.133604
H188  H     H_    0.264875 0.485897 0.277900 0.093665
H189  H     H_    0.206783 0.401885 0.372513 0.204507
H190  H     H_    0.236567 0.497929 0.391624 0.177313
H191  H     H_    0.121292 0.534271 0.205500 0.264978
H192  H     H_    0.107698 0.490314 0.294866 0.270531
N1    N     N_R   0.888400 0.921830 0.294620 -0.054362
N2    N     N_R   0.874350 0.922400 0.443380 -0.114564
N3    N     N_R   0.625650 0.422400 0.556620 -0.105596
N4    N     N_R   0.374350 0.422400 0.443380 -0.106645
N5    N     N_R   0.054230 0.922730 0.705400 -0.037669
N6    N     N_R   0.945770 0.922730 0.294600 -0.039824
N7    N     N_R   0.554230 0.422730 0.705400 -0.041117
N8    N     N_R   0.445770 0.422730 0.294600 -0.043890
N9    N     N_R   0.873790 0.077030 0.443380 -0.065797
N10   N     N_R   0.126210 0.077030 0.556620 -0.073079
N11   N     N_R   0.373790 0.577030 0.443380 -0.074513
N12   N     N_R   0.111600 0.921830 0.705380 -0.048913
N13   N     N_R   0.626210 0.577030 0.556620 -0.063787
N14   N     N_R   0.945200 0.076700 0.294600 -0.098216
N15   N     N_R   0.054800 0.076700 0.705400 -0.109652
N16   N     N_R   0.445200 0.576700 0.294600 -0.102817
N17   N     N_R   0.554800 0.576700 0.705400 -0.112554
N18   N     N_R   0.111030 0.077600 0.705380 -0.089417
N19   N     N_R   0.888970 0.077600 0.294620 -0.079679
N20   N     N_R   0.611030 0.577600 0.705380 -0.085720
N21   N     N_R   0.388970 0.577600 0.294620 -0.082421
N22   N     N_R   0.919490 0.077280 0.556590 -0.106748
N23   N     N_R   0.388400 0.421830 0.294620 -0.052549
N24   N     N_R   0.080510 0.077280 0.443410 -0.104744
N25   N     N_R   0.419490 0.577280 0.556590 -0.116308
N26   N     N_R   0.580510 0.577280 0.443410 -0.104669
N27   N     N_R   0.611600 0.421830 0.705380 -0.050982
N28   N     N_R   0.079940 0.922160 0.443410 -0.068451
N29   N     N_R   0.920060 0.922160 0.556590 -0.080945
N30   N     N_R   0.579940 0.422160 0.443410 -0.085505
N31   N     N_R   0.420060 0.422160 0.556590 -0.072990
N32   N     N_R   0.125650 0.922400 0.556620 -0.107685
Ni1   Ni    Ni4+2 0.882160 0.999430 0.370180 0.183369
Ni2   Ni    Ni4+2 0.117840 0.999430 0.629820 0.182750
Ni3   Ni    Ni4+2 0.382160 0.499430 0.370180 0.179984
Ni4   Ni    Ni4+2 0.617840 0.499430 0.629820 0.177550
Ni5   Ni    Ni4+2 0.012460 0.999430 0.370180 0.216045
Ni6   Ni    Ni4+2 0.987540 0.999430 0.629820 0.198859
Ni7   Ni    Ni4+2 0.512460 0.499430 0.370180 0.203633
Ni8   Ni    Ni4+2 0.487540 0.499430 0.629820 0.190689
O1    O     O_3   0.857332 0.307455 0.230570 -0.657562
O2    O     O_3   0.044560 0.133384 0.830903 -0.654631
O3    O     O_3   0.476369 0.658292 0.206535 -0.653085
O4    O     O_3   0.550018 0.629545 0.840063 -0.637691
O5    O     O_3   0.906635 0.106587 0.693628 -0.644280
O6    O     O_3   0.087007 0.119902 0.304374 -0.671536
O7    O     O_3   0.416697 0.634868 0.693109 -0.629406
O8    O     O_3   0.595406 0.599420 0.306938 -0.675228
O9    O     O_3   0.754112 0.718583 0.306074 -0.635071
O10   O     O_3   0.303689 0.920322 0.572238 -0.689543
O11   O     O_3   0.224218 0.232962 0.283322 -0.628467
O12   O     O_3   0.218337 0.277645 0.804436 -0.681566
O13   O     O_3   0.714476 0.373183 0.409287 -0.666610
O14   O     O_3   0.293722 0.781832 0.203932 -0.664713
O15   O     O_3   0.703039 0.793256 0.785820 -0.670674
O16   O     O_3   0.246691 0.878572 0.700388 -0.675168
O17   O     O_3   0.762728 0.863385 0.304132 -0.677790
O18   O     O_3   0.734018 0.352408 0.697304 -0.686160
O19   O     O_3   0.265925 0.366258 0.297658 -0.681222
O20   O     O_3   0.955421 0.118683 0.160494 -0.666653

loop_
_geom_bond_atom_site_label_1
_geom_bond_atom_site_label_2
_ccdc_geom_bond_type
N14   Ni5   S    
C39   H44   S    
C8    H148  S    
C49   H66   S    
N30   Ni7   S    
C149  O4    S    
C19   C20   S    
C55   C56   S    
C19   H179  S    
C47   H61   S    
C98   C138  A    
C98   H161  S    
C44   H58   S    
C57   C117  S    
C91   N27   A    
C9    H153  S    
N23   Ni3   S    
C154  H129  S    
C35   C145  A    
C34   H30   S    
C15   H170  S    
C22   O19   S    
C18   H176  S    
C106  C133  S    
C3    O12   S    
C61   H94   S    
C142  H90   S    
C70   C74   A    
C65   C118  S    
C35   C115  S    
C108  H57   S    
C78   O13   S    
C100  N31   A    
C88   C95   S    
C59   C60   S    
N9    N22   A    
C18   H177  S    
C76   C83   A    
C155  C156  S    
C45   C47   S    
C142  N10   A    
C145  O20   S    
C123  O16   S    
C107  H46   S    
C86   C90   A    
C93   C101  S    
C13   C124  A    
C121  O14   S    
C69   H105  S    
C11   H157  S    
C156  H135  S    
C80   H116  S    
C151  H40   S    
C43   C44   S    
C37   C38   S    
C6    H145  S    
C30   H18   S    
C51   H72   S    
C92   C94   S    
C42   H51   S    
C151  N19   A    
C58   H88   S    
C154  C155  S    
C119  O1    S    
C28   H14   S    
C148  O3    S    
C50   H70   S    
C90   C93   S    
N13   Ni4   S    
C56   H84   S    
C84   C88   A    
C4    C5    S    
C70   C105  S    
C6    C7    S    
N21   Ni3   S    
C22   H188  S    
C125  C138  A    
C38   H37   S    
C89   C96   S    
C29   O2    S    
C61   H96   S    
C67   C92   A    
C45   H59   S    
C130  N7    A    
C82   H109  S    
C65   C149  A    
C135  O8    S    
C43   H53   S    
N1    Ni1   S    
C25   H191  S    
C28   H12   S    
C16   H173  S    
N2    N29   A    
N12   Ni2   S    
C20   C21   S    
C124  N25   A    
C73   C77   A    
C22   C23   S    
C9    O15   S    
C48   H63   S    
C7    H147  S    
C149  N17   A    
C101  H124  S    
C21   H184  S    
C54   H80   S    
C94   H117  S    
C23   H190  S    
C67   C103  S    
C7    C8    S    
C122  O15   S    
C8    H151  S    
C95   H118  S    
C99   N30   A    
C36   C37   S    
C110  C121  S    
C17   H174  S    
C67   C72   A    
C118  C122  D    
C69   N12   A    
C58   H86   S    
N16   Ni7   S    
C28   H15   S    
C143  N11   A    
C91   C136  A    
C120  O12   S    
C91   H127  S    
C9    C10   S    
C152  N20   A    
C130  H6    S    
C37   H34   S    
C111  C122  S    
N22   Ni6   S    
C66   C101  S    
C99   C139  A    
C3    H136  S    
C97   C137  A    
C21   H185  S    
C31   H20   S    
C10   H154  S    
C126  C139  A    
N24   Ni5   S    
C31   H22   S    
C156  H134  S    
C32   H25   S    
N17   N20   A    
C39   C40   S    
C113  O6    S    
C153  H42   S    
C148  N16   A    
C116  C120  D    
N4    Ni3   S    
C76   O10   S    
N16   N21   A    
C39   O5    S    
C116  H2    S    
C29   C30   S    
C63   H100  S    
C93   H115  S    
C141  H79   S    
C13   C87   S    
C17   C18   S    
C129  H5    S    
C154  O1    S    
C41   H48   S    
C109  C114  D    
C115  C119  D    
C60   H93   S    
C2    C142  A    
N15   N18   A    
N13   N26   A    
C70   C89   A    
C127  C140  A    
C54   H78   S    
C3    C4    S    
C33   H26   S    
C19   O18   S    
C52   C53   S    
C111  H149  S    
C39   H43   S    
C40   C41   S    
C107  C111  D    
C107  C132  S    
C52   H75   S    
C16   O17   S    
C123  C137  A    
C113  N24   A    
C20   H181  S    
C9    H152  S    
C144  N13   A    
C12   H164  S    
N6    Ni5   S    
C26   H8    S    
C56   C58   S    
C152  H41   S    
C154  H130  S    
C15   H169  S    
C150  H39   S    
C100  H163  S    
N10   N24   A    
C10   C11   S    
C53   H76   S    
N7    N27   A    
C63   C64   S    
C117  H13   S    
C49   C50   S    
C14   C15   S    
C59   H91   S    
C155  H132  S    
C125  N2    A    
C24   C86   S    
N1    N6    A    
C81   C85   A    
N28   N32   A    
C118  H24   S    
C129  N6    A    
C62   H97   S    
C83   C87   A    
C96   C105  S    
C26   H9    S    
C102  N22   A    
N31   Ni8   S    
C51   H73   S    
C79   H107  S    
C2    C84   S    
C143  H101  S    
C4    H139  S    
C45   O7    S    
N29   Ni6   S    
C18   H178  S    
C131  C134  A    
C144  H106  S    
C14   H166  S    
C66   C90   A    
C145  N14   A    
C110  H138  S    
C26   C27   S    
C125  O17   S    
C30   C31   S    
C8    H150  S    
C80   C134  A    
C41   H50   S    
N25   Ni8   S    
C5    H141  S    
N26   Ni7   S    
C104  H126  S    
C16   C17   S    
N19   Ni1   S    
C80   N23   A    
C101  H120  S    
C42   H52   S    
C64   H103  S    
C72   C76   A    
C129  C132  A    
N27   Ni4   S    
C12   O16   S    
C97   N28   A    
C77   C79   A    
C87   C92   A    
C49   H67   S    
N11   N25   A    
N8    N23   A    
C35   C151  A    
C127  N4    A    
C15   H168  S    
C71   C138  S    
N14   N19   A    
C19   H180  S    
C47   H62   S    
N8    Ni7   S    
C3    H137  S    
C1    N1    A    
C20   H183  S    
C85   C89   A    
C25   H3    S    
C115  H182  S    
C53   C54   S    
C57   C153  A    
C11   H156  S    
C38   H38   S    
C60   C61   S    
C150  N18   A    
C98   N29   A    
C62   C63   S    
C66   C71   A    
C131  H7    S    
C61   H95   S    
N17   Ni8   S    
C50   C51   S    
C75   C82   A    
C141  C146  A    
N3    N30   A    
C94   C103  S    
C51   H71   S    
C6    O14   S    
C49   O8    S    
C42   C43   S    
C53   H77   S    
C30   H19   S    
N32   Ni2   S    
C48   H64   S    
C75   O9    S    
N4    N31   A    
C127  O19   S    
C109  C134  S    
C83   H110  S    
C68   C104  S    
C54   H81   S    
C62   O13   S    
C112  C119  S    
C23   H189  S    
C93   H111  S    
C153  N21   A    
C11   H158  S    
C94   H112  S    
C46   C116  S    
C36   H31   S    
C32   C33   S    
C44   H55   S    
C5    H143  S    
C59   O11   S    
C55   O10   S    
C6    H144  S    
C147  O2    S    
C82   C86   A    
C78   C81   A    
C52   H74   S    
C79   C84   A    
C24   C144  A    
C114  H171  S    
C13   C143  A    
C55   H82   S    
C58   H87   S    
C27   H10   S    
C141  N9    A    
C108  C112  D    
C40   H45   S    
C74   C78   A    
C57   C148  A    
C50   H69   S    
C36   H32   S    
C114  C120  S    
C12   H165  S    
C102  O5    S    
C112  H160  S    
C37   H33   S    
C56   H85   S    
C77   O11   S    
C34   H29   S    
C5    H142  S    
C1    C132  A    
C45   H60   S    
C22   H187  S    
C10   H155  S    
N7    Ni8   S    
C31   H21   S    
N5    Ni6   S    
C108  C136  S    
C2    C113  A    
C48   H65   S    
C96   H114  S    
C105  H128  S    
C43   H54   S    
C117  C121  D    
C21   H186  S    
C25   H192  S    
C100  C140  A    
N3    Ni4   S    
C63   H99   S    
C46   C147  A    
C33   H27   S    
C32   O3    S    
N9    Ni1   S    
C32   H23   S    
C34   H28   S    
N11   Ni3   S    
C52   O9    S    
C26   O20   S    
C126  O18   S    
C106  H35   S    
N15   Ni6   S    
C64   H102  S    
C95   H113  S    
N28   Ni5   S    
C85   C146  S    
C59   H89   S    
C104  H122  S    
C17   H175  S    
C68   C73   A    
C131  N8    A    
C147  N15   A    
C44   H56   S    
C99   H162  S    
C42   O6    S    
C124  O7    S    
C47   C48   S    
C16   H172  S    
C40   H47   S    
C33   C34   S    
C123  N32   A    
C135  N26   A    
C109  H68   S    
N18   Ni2   S    
C24   C135  A    
C72   C137  S    
C46   C150  A    
C12   C14   S    
C60   H92   S    
C38   H36   S    
C68   C88   A    
C105  H123  S    
C103  H121  S    
C155  H131  S    
C95   C104  S    
C128  H4    S    
C106  C110  D    
N2    Ni1   S    
C62   H98   S    
C126  N3    A    
C69   C133  A    
C130  C136  A    
C4    H140  S    
C29   H17   S    
N10   Ni2   S    
C14   H167  S    
C73   C140  S    
C74   C139  S    
C65   C152  A    
C1    H1    S    
C128  C133  A    
C102  C146  A    
C71   C75   A    
C36   O4    S    
C156  H133  S    
C23   C25   S    
C29   H16   S    
C41   H49   S    
N20   Ni4   S    
N5    N12   A    
C7    H146  S    
C81   H108  S    
C27   C28   S    
C97   H159  S    
C96   H119  S    
C55   H83   S    
C103  H125  S    
C64   H104  S    
C27   H11   S    
C128  N5    A    
