data_mof_unit_59469.cif
_audit_creation_date              2013-03-05T15:49:33-0500
_audit_creation_method            fapswitch 2.2
_symmetry_space_group_name_H-M    P1
_symmetry_Int_Tables_number       1
_space_group_crystal_system       triclinic
_cell_length_a                    10.719328
_cell_length_b                    12.098525
_cell_length_c                    12.87294
_cell_angle_alpha                 93.25932
_cell_angle_beta                  93.445483
_cell_angle_gamma                 83.631833
_cell_volume                      1654.04551898

loop_
_atom_site_label
_atom_site_type_symbol
_atom_site_description
_atom_site_fract_x
_atom_site_fract_y
_atom_site_fract_z
_atom_type_partial_charge
O1    O     O_R   0.506170 0.421700 0.658830 -0.633599
O2    O     O_R   0.493830 0.578300 0.341170 -0.610917
O3    O     O_R   0.491330 0.609310 0.646410 -0.573493
O4    O     O_R   0.508670 0.390690 0.353590 -0.594575
C1    C     C_R   0.489055 0.521929 0.699455 0.947981
C2    C     C_R   0.502365 0.478200 0.299485 0.900242
O5    O     O_R   0.690650 0.406190 0.506220 -0.592479
O6    O     O_R   0.309350 0.593810 0.493780 -0.568381
O7    O     O_R   0.675800 0.593810 0.493800 -0.585790
O8    O     O_R   0.324200 0.406190 0.506200 -0.600886
C3    C     C_R   0.740598 0.498543 0.503984 0.915265
C4    C     C_R   0.260720 0.504529 0.509648 0.891418
Zn1   Zn    Zn3+2 0.509910 0.374730 0.508290 1.050536
Zn2   Zn    Zn3+2 0.490090 0.625270 0.491710 1.086631
H1    H     H_    0.852817 0.763013 0.266570 0.172957
H2    H     H_    0.162406 0.270494 0.794832 0.172501
C5    C     C_R   0.898983 0.417953 0.692413 0.379842
C6    C     C_R   0.073273 0.710040 0.464696 0.412632
C7    C     C_R   0.975682 0.345554 0.757203 -0.064737
C8    C     C_R   0.004393 0.766844 0.383678 -0.110592
C9    C     C_R   0.103048 0.322122 0.741617 -0.192267
C10   C     C_R   0.904753 0.720062 0.329785 -0.173345
C11   C     C_R   0.156577 0.376671 0.666307 -0.124797
C12   C     C_R   0.863617 0.624282 0.365286 -0.117079
C13   C     C_R   0.079913 0.444655 0.596632 0.072528
C14   C     C_R   0.928454 0.571133 0.451000 0.041259
C15   C     C_R   0.948346 0.451563 0.600337 -0.010104
C16   C     C_R   0.046737 0.600281 0.482537 -0.027437
C17   C     C_R   0.129137 0.517700 0.532205 -0.139656
C18   C     C_R   0.874935 0.499843 0.514756 -0.112806
H3    H     H_    0.939486 0.314349 0.825258 0.201867
H4    H     H_    0.025010 0.848570 0.364333 0.195304
H5    H     H_    0.257848 0.369564 0.668497 0.156035
H6    H     H_    0.778887 0.595202 0.328591 0.138333
C19   C     C_R   0.498906 0.465479 0.187489 -0.081366
C20   C     C_R   0.471963 0.534959 0.809642 -0.036765
C21   C     C_R   0.461839 0.650046 0.968053 -0.162996
C22   C     C_R   0.492569 0.350716 0.028598 -0.168825
C23   C     C_R   0.460735 0.640724 0.860437 -0.090301
C24   C     C_R   0.504287 0.359838 0.136346 -0.131159
C25   C     C_R   0.472719 0.438993 0.865318 -0.193370
C26   C     C_R   0.485974 0.561596 0.131065 -0.203794
C27   C     C_R   0.477792 0.447242 0.972442 0.168204
C28   C     C_R   0.474353 0.553505 0.024097 0.153595
H7    H     H_    0.486252 0.643150 0.169995 0.209949
H8    H     H_    0.477222 0.357048 0.825964 0.183251
H9    H     H_    0.518109 0.284726 0.179132 0.212071
H10   H     H_    0.454217 0.715611 0.817567 0.218144
H11   H     H_    0.456757 0.731975 0.007336 0.185682
H12   H     H_    0.497130 0.268786 0.989337 0.167467
N1    N     N_R   0.523130 0.207800 0.519340 -0.220895
N2    N     N_R   0.476870 0.792200 0.480660 -0.202537
C29   C     C_R   0.386881 0.959819 0.397375 -0.192656
C30   C     C_R   0.616268 0.041081 0.601747 -0.234190
C31   C     C_R   0.403175 0.843222 0.401303 0.396954
C32   C     C_R   0.609699 0.156124 0.588343 0.376795
C33   C     C_R   0.547232 0.856388 0.547923 0.377871
C34   C     C_R   0.443525 0.145009 0.460072 0.375398
C35   C     C_R   0.538977 0.974458 0.540220 -0.113852
C36   C     C_R   0.454180 0.026924 0.466532 -0.105913
H13   H     H_    0.324915 0.996980 0.336322 0.231398
H14   H     H_    0.686046 0.004326 0.657618 0.235396
N3    N     N_R   0.787077 0.475875 0.733894 0.181364
O9    O     O_R   0.759085 0.580775 0.716548 -0.340344
O10   O     O_R   0.740778 0.438119 0.814257 -0.377397
N4    N     N_R   0.149729 0.770809 0.538932 0.227235
O11   O     O_R   0.177351 0.734650 0.631770 -0.378231
O12   O     O_R   0.170382 0.872066 0.522086 -0.387306
N5    N     N_R   0.347854 0.198905 0.392568 0.224633
O13   O     O_R   0.232010 0.209802 0.419771 -0.353814
O14   O     O_R   0.369776 0.207793 0.295389 -0.411765
N6    N     N_R   0.635638 0.803581 0.621802 0.239109
O15   O     O_R   0.752369 0.782394 0.597915 -0.346359
O16   O     O_R   0.609859 0.810302 0.719481 -0.369161
N7    N     N_R   0.700956 0.216428 0.643591 0.224261
O17   O     O_R   0.698552 0.226986 0.744532 -0.384211
O18   O     O_R   0.807586 0.218010 0.600989 -0.388251
N8    N     N_R   0.349012 0.780923 0.315079 0.199066
O19   O     O_R   0.346752 0.818061 0.221946 -0.433798
O20   O     O_R   0.278856 0.703410 0.330120 -0.380976

loop_
_geom_bond_atom_site_label_1
_geom_bond_atom_site_label_2
_geom_bond_distance
_ccdc_geom_bond_type
C24   H9    1.080908 S    
N4    O12   1.301138 A    
N3    O10   1.300341 A    
H2    C9    1.082765 S    
C4    C17   1.446814 S    
O7    Zn2   1.983702 S    
C7    H3    1.082381 S    
O5    C3    1.293884 A    
O1    C1    1.291390 A    
C16   C17   1.412866 A    
C7    C9    1.387518 A    
C12   C14   1.415396 A    
N8    O20   1.295017 A    
C33   C35   1.430118 A    
C34   C36   1.427306 A    
C1    C20   1.438658 S    
C2    C19   1.439866 S    
N1    C32   1.369815 A    
O4    Zn1   2.010792 S    
N5    O14   1.299225 A    
C19   C26   1.395431 A    
Zn1   N1    2.021356 S    
C29   H13   1.082692 S    
H1    C10   1.082418 S    
Zn2   N2    2.021357 S    
C3    C18   1.440097 S    
C11   H5    1.078196 S    
C25   H8    1.084937 S    
N2    C31   1.383908 A    
N4    O11   1.302114 A    
C35   C36   1.402065 A    
C32   N7    1.418000 S    
C15   C18   1.428678 A    
C25   C27   1.375180 A    
C20   C25   1.397725 A    
O2    C2    1.292443 A    
C26   C28   1.374032 A    
C29   C36   1.393787 A    
C30   C35   1.400028 A    
C29   C31   1.405486 A    
C13   C17   1.409476 A    
C30   C32   1.405733 A    
C5    C15   1.424139 A    
C6    C16   1.422452 A    
N6    O16   1.299702 A    
C31   N8    1.435854 S    
N8    O19   1.301989 A    
C30   H14   1.082778 S    
C12   H6    1.082704 S    
C26   H7    1.081176 S    
N7    O17   1.299957 A    
C21   H11   1.084221 S    
O6    C4    1.281798 A    
N1    C34   1.373677 A    
O7    C3    1.287147 A    
O3    Zn2   2.010793 S    
O8    C4    1.303290 A    
O4    C2    1.293417 A    
C8    C10   1.393849 A    
C14   C18   1.411906 A    
C9    C11   1.388614 A    
C27   C28   1.411229 A    
C10   C12   1.394227 A    
C13   C15   1.407025 A    
C8    H4    1.082404 S    
O6    Zn2   2.017446 S    
C20   C23   1.399841 A    
N6    O15   1.300802 A    
O3    C1    1.293952 A    
O8    Zn1   1.983701 S    
C34   N5    1.428629 S    
C22   H12   1.084247 S    
C6    N4    1.443980 S    
C14   C16   1.384862 A    
C21   C28   1.397201 A    
C19   C24   1.401016 A    
C22   C27   1.397378 A    
C21   C23   1.382959 A    
C5    N3    1.436366 S    
C22   C24   1.384401 A    
C5    C7    1.407021 A    
C6    C8    1.407686 A    
C11   C13   1.414798 A    
C33   N6    1.427287 S    
N5    O13   1.301042 A    
O2    Zn2   1.989730 S    
N2    C33   1.377187 A    
N3    O9    1.300114 A    
O5    Zn1   2.017446 S    
O1    Zn1   1.989730 S    
N7    O18   1.299602 A    
C23   H10   1.080972 S    
