data_mof_unit_52486.cif
_audit_creation_date              2012-12-10T17:48:24-0500
_audit_creation_method            fapswitch 2.2
_symmetry_space_group_name_H-M    P1
_symmetry_Int_Tables_number       1
_space_group_crystal_system       triclinic
_cell_length_a                    13.889675
_cell_length_b                    14.76822
_cell_length_c                    14.883251
_cell_angle_alpha                 115.440086
_cell_angle_beta                  107.189078
_cell_angle_gamma                 71.881084
_cell_volume                      2573.14168569

loop_
_atom_site_label
_atom_site_type_symbol
_atom_type_description
_atom_site_fract_x
_atom_site_fract_y
_atom_site_fract_z
_atom_type_partial_charge
C1    C     C_R   0.518780 0.118400 0.687569 0.893395
C2    C     C_R   0.481256 0.881593 0.312414 0.884386
C3    C     C_R   0.525670 0.356936 0.922736 -0.006993
C4    C     C_R   0.473558 0.642636 0.077859 -0.007195
C5    C     C_R   0.621106 0.324405 0.981764 -0.036628
C6    C     C_R   0.378132 0.675172 0.018849 -0.031919
C7    C     C_R   0.478544 0.464293 0.953349 0.090787
C8    C     C_R   0.520480 0.535235 0.047391 0.106442
C9    C     C_R   0.604094 0.495472 0.110356 -0.054512
C10   C     C_R   0.395320 0.504131 0.890131 -0.047012
C11   C     C_R   0.655672 0.394063 0.076982 -0.108058
C12   C     C_R   0.343775 0.605582 0.923469 -0.082711
C13   C     C_R   0.316250 0.306410 0.339462 0.278871
C14   C     C_R   0.683940 0.693964 0.660879 0.276700
C15   C     C_R   0.346667 0.220745 0.366996 0.510307
C16   C     C_R   0.653263 0.779560 0.633206 0.507540
C17   C     C_R   0.492159 0.282129 0.482903 0.058780
C18   C     C_R   0.508089 0.717653 0.517158 0.059968
C19   C     C_R   0.459551 0.375894 0.465986 -0.041478
C20   C     C_R   0.541108 0.623893 0.534173 -0.038549
C21   C     C_R   0.375057 0.382390 0.386456 -0.094288
C22   C     C_R   0.625570 0.617632 0.613738 -0.088013
C23   C     C_R   0.687176 0.986503 0.504225 0.838744
C24   C     C_R   0.312819 0.013465 0.495724 0.828798
C25   C     C_R   0.510788 0.460543 0.520584 -0.050764
C26   C     C_R   0.490339 0.538949 0.479444 -0.050212
C27   C     C_R   0.420583 0.527853 0.385105 0.385568
C28   C     C_R   0.581086 0.471415 0.614667 0.379960
C29   C     C_R   0.356259 0.459079 0.348452 -0.117888
C30   C     C_R   0.644929 0.540631 0.651450 -0.113889
C31   C     C_1   0.206864 0.021427 0.492739 -0.067339
C32   C     C_1   0.793120 0.978464 0.507086 -0.059604
C33   C     C_2   0.012150 0.033275 0.488108 -0.127688
C34   C     C_2   0.987815 0.966496 0.511525 -0.115064
C35   C     C_1   0.882053 0.972446 0.509298 0.082262
C36   C     C_1   0.117921 0.027380 0.490423 0.076600
C37   C     C_R   0.546282 0.183971 0.793888 -0.138763
C38   C     C_R   0.453673 0.816011 0.206086 -0.158661
C39   C     C_R   0.678729 0.222368 0.944852 0.373291
C40   C     C_R   0.320614 0.777269 0.055672 0.362782
C41   C     C_R   0.642756 0.155666 0.848888 -0.284729
C42   C     C_R   0.357212 0.844411 0.151111 -0.315231
C43   C     C_R   0.483277 0.280185 0.835011 0.354251
C44   C     C_R   0.516301 0.719482 0.165216 0.343849
Cu1   Cu    Cu3+1 0.526370 0.916390 0.524860 1.064105
Cu2   Cu    Cu3+1 0.473630 0.083610 0.475140 1.068582
H1    H     H_    0.047158 0.907054 0.532511 0.186129
H2    H     H_    0.952809 0.092724 0.467132 0.182765
H3    H     H_    0.722521 0.371255 0.128276 0.224917
H4    H     H_    0.277399 0.628622 0.871889 0.219999
H5    H     H_    0.309675 0.918987 0.183793 0.237815
H6    H     H_    0.690773 0.081492 0.815871 0.234534
H7    H     H_    0.631336 0.540648 0.187413 0.239089
H8    H     H_    0.368598 0.459029 0.812844 0.235208
H9    H     H_    0.298455 0.458617 0.281170 0.240977
H10   H     H_    0.702945 0.541052 0.718590 0.240303
H11   H     H_    0.435398 0.734261 0.469688 0.209273
H12   H     H_    0.564953 0.265022 0.529911 0.204603
N1    N     N_R   0.433980 0.209250 0.437830 -0.255352
N2    N     N_R   0.566020 0.790750 0.562170 -0.253061
O1    O     O_R   0.534760 0.019630 0.662610 -0.557451
O2    O     O_R   0.465240 0.980370 0.337390 -0.550592
O3    O     O_R   0.490220 0.160840 0.620610 -0.526111
O4    O     O_R   0.509780 0.839160 0.379390 -0.535528
O5    O     O_R   0.663260 0.919400 0.523940 -0.519763
O6    O     O_R   0.336740 0.080600 0.476060 -0.524244
O7    O     O_R   0.618720 0.060610 0.481950 -0.595809
O8    O     O_R   0.381280 0.939390 0.518050 -0.593773
Cl1   Cl    Cl    0.204373 0.316567 0.245181 -0.413493
Cl2   Cl    Cl    0.795640 0.684329 0.755491 -0.437340
S1    S     S_3+6 0.424664 0.576332 0.295758 -0.028227
O9    O     O_2   0.526602 0.603967 0.317328 -0.318627
O10   O     O_2   0.409826 0.495369 0.191103 -0.268626
O11   O     O_3   0.328361 0.679854 0.299289 -0.547507
H13   H     H_    0.332771 0.699458 0.245029 0.370191
S2    S     S_3+6 0.578398 0.422715 0.704285 -0.027307
O12   O     O_2   0.476805 0.395195 0.684536 -0.302962
O13   O     O_2   0.664489 0.329924 0.700103 -0.321393
O14   O     O_3   0.596066 0.513738 0.821122 -0.511610
H14   H     H_    0.636162 0.476157 0.866460 0.381809
Cl3   Cl    Cl    0.650956 0.710771 0.210447 -0.558711
Cl4   Cl    Cl    0.348697 0.288705 0.789321 -0.550298
S3    S     S_3+6 0.799851 0.177160 0.011964 0.081200
O15   O     O_2   0.872905 0.243703 0.033230 -0.175725
O16   O     O_2   0.786497 0.182653 0.110947 -0.272454
O17   O     O_3   0.851299 0.055196 0.944537 -0.418695
H15   H     H_    0.812137 0.012810 0.950364 0.381680
S4    S     S_3+6 0.199048 0.822134 0.988935 0.085779
O18   O     O_2   0.213086 0.819801 0.891586 -0.205318
O19   O     O_2   0.126958 0.753557 0.964625 -0.238425
O20   O     O_3   0.146353 0.943245 0.057313 -0.406402
H16   H     H_    0.117471 0.937073 0.107354 0.369254
Cl5   Cl    Cl    0.726535 0.874997 0.697698 -0.504889
Cl6   Cl    Cl    0.273136 0.125514 0.302512 -0.494615

loop_
_geom_bond_atom_site_label_1
_geom_bond_atom_site_label_2
_ccdc_geom_bond_type
C7    C10   A    
Cu1   N2    S    
C21   C29   A    
Cu2   N1    S    
C27   C29   A    
S2    O14   S    
C4    C8    A    
C15   Cl6   S    
C7    C8    A    
C39   C41   A    
Cu1   Cu2   S    
C25   C28   A    
C3    C43   A    
C26   C27   A    
C20   C26   A    
Cu2   O2    S    
C19   C21   A    
S2    O13   D    
C5    C11   A    
C3    C7    A    
C6    C12   A    
C33   C36   S    
C34   C35   S    
C16   N2    A    
C23   O7    A    
C8    C9    A    
C41   H6    S    
C18   C20   A    
C24   O6    A    
C42   H5    S    
Cu1   O1    S    
C40   C42   A    
C14   Cl2   S    
C19   C25   A    
C1    O3    A    
C2    O4    A    
O11   H13   S    
C32   C35   T    
S2    O12   D    
C4    C6    A    
C44   Cl3   S    
O20   H16   S    
S1    O10   D    
O17   H15   S    
C29   H9    S    
C25   C26   A    
C30   H10   S    
C37   C43   A    
C38   C44   A    
C11   H3    S    
C2    C38   S    
C18   H11   S    
S3    O15   D    
S4    O20   S    
Cu1   O8    S    
C33   C34   D    
C16   Cl5   S    
C13   C21   A    
C9    C11   A    
C10   C12   A    
C17   N1    A    
C18   N2    A    
S3    O16   D    
S4    O19   D    
C5    C39   A    
Cu1   O5    S    
C14   C16   A    
C9    H7    S    
C28   S2    S    
C27   S1    S    
C33   H2    S    
C22   C30   A    
C15   N1    A    
C20   C22   A    
C3    C5    A    
C1    O1    A    
S1    O11   S    
C12   H4    S    
Cu2   O6    S    
C38   C42   A    
C1    C37   S    
C4    C44   A    
C17   H12   S    
Cu1   O4    S    
Cu2   O3    S    
C23   C32   S    
C23   O5    A    
C13   C15   A    
C24   C31   S    
C39   S3    S    
Cu2   O7    S    
C14   C22   A    
C13   Cl1   S    
C28   C30   A    
C17   C19   A    
C6    C40   A    
C37   C41   A    
C10   H8    S    
C24   O8    A    
O14   H14   S    
S1    O9    D    
S3    O17   S    
S4    O18   D    
C43   Cl4   S    
C31   C36   T    
C34   H1    S    
C40   S4    S    
C2    O2    A    
