data_mof_unit_39535.cif
_audit_creation_date              2012-12-10T16:52:38-0500
_audit_creation_method            fapswitch 2.2
_symmetry_space_group_name_H-M    P1
_symmetry_Int_Tables_number       1
_space_group_crystal_system       triclinic
_cell_length_a                    13.018677
_cell_length_b                    10.913421
_cell_length_c                    9.688068
_cell_angle_alpha                 90.593465
_cell_angle_beta                  96.931718
_cell_angle_gamma                 90.571048
_cell_volume                      1366.24271858

loop_
_atom_site_label
_atom_site_type_symbol
_atom_type_description
_atom_site_fract_x
_atom_site_fract_y
_atom_site_fract_z
_atom_type_partial_charge
Br1   Br    Br    0.181849 0.462276 0.149974 -0.566141
Br2   Br    Br    0.606011 0.929141 0.671912 -0.623139
C1    C     C_R   0.496553 0.265455 0.498841 0.836898
C2    C     C_2   0.484563 0.133942 0.497052 -0.251141
C3    C     C_2   0.438307 0.431366 0.912291 0.086539
C4    C     C_R   0.300115 0.499254 0.472695 0.828025
C5    C     C_2   0.451563 0.417579 0.068701 0.016689
C6    C     C_R   0.504965 0.734679 0.501458 0.799977
C7    C     C_R   0.699594 0.497788 0.526903 0.857671
C8    C     C_R   0.812794 0.496718 0.543851 -0.190822
C9    C     C_R   0.186466 0.499421 0.454946 -0.133543
C10   C     C_R   0.019046 0.491730 0.314520 -0.192256
C11   C     C_R   0.126358 0.488439 0.323085 0.263448
C12   C     C_R   0.029068 0.507416 0.566899 0.023443
C13   C     C_R   0.136614 0.509722 0.575250 -0.253269
C14   C     C_3   0.619708 0.644591 0.904153 0.239857
C15   C     C_3   0.709250 0.678333 0.016051 -0.436784
C16   C     C_3   0.747248 0.809650 0.000737 -0.873168
C17   C     C_3   0.840641 0.347823 0.834731 0.078789
C18   C     C_3   0.769699 0.314006 0.943462 -0.281356
C19   C     C_3   0.791526 0.185302 0.999067 -0.919796
C20   C     C_3   0.016073 0.629692 0.884569 0.128039
C21   C     C_3   0.106304 0.719436 0.878247 -0.362675
C22   C     C_3   0.091546 0.836784 0.960255 -0.888158
C23   C     C_R   0.970330 0.500231 0.434911 0.057177
C24   C     C_R   0.863214 0.499869 0.424325 -0.315531
C25   C     C_R   0.871223 0.491728 0.676130 0.310474
C26   C     C_R   0.979189 0.509523 0.687970 0.338303
C27   C     C_2   0.495931 0.932703 0.392364 -0.214689
C28   C     C_2   0.523776 0.865823 0.506411 0.123995
C29   C     C_2   0.507548 0.065710 0.390148 -0.125309
Cu1   Cu    Cu3+1 0.500020 0.500020 0.638640 0.986227
Cu2   Cu    Cu3+1 0.499980 0.499980 0.361360 0.962766
H1    H     H_    0.819180 0.499203 0.321829 0.184161
H2    H     H_    0.553076 0.705565 0.916334 0.122455
H3    H     H_    0.646483 0.660458 0.801844 0.219282
H4    H     H_    0.684046 0.668037 0.120899 0.220731
H5    H     H_    0.774775 0.615192 0.008220 0.246537
H6    H     H_    0.683398 0.875157 0.008658 0.279621
H7    H     H_    0.777311 0.820728 0.899007 0.276772
H8    H     H_    0.810901 0.831128 0.084721 0.255043
H9    H     H_    0.922400 0.336689 0.881233 0.189286
H10   H     H_    0.823663 0.283000 0.744694 0.136648
H11   H     H_    0.781001 0.380873 0.031477 0.221968
H12   H     H_    0.455161 0.092417 0.585996 0.188121
H13   H     H_    0.687926 0.317272 0.895354 0.271118
H14   H     H_    0.779372 0.116554 0.913089 0.282825
H15   H     H_    0.738079 0.163317 0.076650 0.263267
H16   H     H_    0.872366 0.179703 0.050383 0.261650
H17   H     H_    0.008497 0.609763 0.995045 0.188490
H18   H     H_    0.942416 0.674509 0.841804 0.133634
H19   H     H_    0.179768 0.675777 0.921788 0.257141
H20   H     H_    0.112082 0.742817 0.768042 0.210795
H21   H     H_    0.019145 0.882914 0.917232 0.255835
H22   H     H_    0.157864 0.900216 0.953136 0.262421
H23   H     H_    0.374801 0.382082 0.852649 0.104006
H24   H     H_    0.087772 0.815662 0.071484 0.263995
H25   H     H_    0.416320 0.338453 0.111734 0.150439
H26   H     H_    0.513860 0.582217 0.111833 0.224503
H27   H     H_    0.973377 0.483974 0.213431 0.152119
H28   H     H_    0.181822 0.517001 0.676537 0.210260
H29   H     H_    0.461872 0.888729 0.296244 0.150849
H30   H     H_    0.529685 0.107648 0.296733 0.163743
N1    N     N_2   0.498860 0.498660 0.846770 -0.030163
N2    N     N_2   0.498840 0.498630 0.152900 -0.268631
O1    O     O_R   0.500020 0.321960 0.617050 -0.578770
O2    O     O_3   0.823238 0.470776 0.793878 -0.598905
O3    O     O_3   0.036649 0.517822 0.817873 -0.603033
O4    O     O_R   0.499980 0.321920 0.382890 -0.583497
O5    O     O_R   0.349010 0.500000 0.598060 -0.611455
O6    O     O_R   0.348980 0.499950 0.363910 -0.528576
O7    O     O_R   0.500020 0.678080 0.617110 -0.585857
O8    O     O_R   0.499980 0.678040 0.382950 -0.600939
O9    O     O_R   0.651020 0.500050 0.636090 -0.532550
O10   O     O_R   0.650990 0.500000 0.401940 -0.591152
O11   O     O_3   0.593050 0.520122 0.918701 -0.544731

loop_
_geom_bond_atom_site_label_1
_geom_bond_atom_site_label_2
_ccdc_geom_bond_type
C8    C25   A    
C21   C22   S    
C17   O2    S    
C27   C28   D    
C26   O3    S    
C5    N2    D    
C7    O10   A    
C7    C8    S    
C5    H25   S    
C17   C18   S    
C12   C13   A    
C17   H9    S    
Cu2   O4    S    
C10   C23   A    
C20   H17   S    
C19   H15   S    
C6    C28   S    
Cu1   Cu2   S    
C8    C24   A    
C12   C26   A    
C19   H16   S    
C15   C16   S    
N1    O11   S    
C3    N1    D    
Cu2   N2    S    
C24   H1    S    
Cu1   O7    S    
C15   H4    S    
C12   C23   A    
H26   N2    S    
C22   H22   S    
Cu1   O9    S    
C10   C11   A    
C9    C11   A    
C20   O3    S    
C21   H19   S    
C14   C15   S    
Cu2   O8    S    
C6    O8    A    
C18   H11   S    
C17   H10   S    
C21   H20   S    
C3    C5    S    
C2    H12   S    
C14   H2    S    
C13   H28   S    
C4    O6    A    
C18   H13   S    
C6    O7    A    
C1    O1    A    
Br1   C11   S    
Br2   C28   S    
Cu2   O6    S    
C22   H21   S    
C1    C2    S    
C2    C29   D    
C14   O11   S    
C29   H30   S    
C25   C26   A    
C25   O2    S    
C18   C19   S    
Cu1   N1    S    
C27   C29   S    
C7    O9    A    
C16   H8    S    
C15   H5    S    
C4    C9    S    
C4    O5    A    
C16   H6    S    
C16   H7    S    
C27   H29   S    
C20   H18   S    
Cu1   O5    S    
C3    H23   S    
C1    O4    A    
C23   C24   A    
C20   C21   S    
C9    C13   A    
Cu2   O10   S    
C14   H3    S    
Cu1   O1    S    
C22   H24   S    
C19   H14   S    
C10   H27   S    
