data_mof_unit_44913.cif
_audit_creation_date              2012-10-26T18:27:31-0400
_audit_creation_method            fapswitch 2.2
_symmetry_space_group_name_H-M    P1
_symmetry_Int_Tables_number       1
_space_group_crystal_system       triclinic
_cell_length_a                    10.809188
_cell_length_b                    11.138071
_cell_length_c                    9.907282
_cell_angle_alpha                 111.032235
_cell_angle_beta                  95.840268
_cell_angle_gamma                 92.693383
_cell_volume                      1103.04119195

loop_
_atom_site_label
_atom_site_type_symbol
_atom_type_description
_atom_site_fract_x
_atom_site_fract_y
_atom_site_fract_z
_atom_type_partial_charge
C1    C     C_R   0.493347 0.254392 0.440809 0.566407
C2    C     C_2   0.472498 0.941788 0.514971 -0.049435
C3    C     C_2   0.523916 0.497909 0.078809 0.136607
C4    C     C_R   0.262341 0.501587 0.504923 0.541041
C5    C     C_2   0.504389 0.476660 0.919438 0.147283
C6    C     C_R   0.511550 0.744466 0.558878 0.541132
C7    C     C_R   0.736294 0.502202 0.496380 0.535126
C8    C     C_R   0.135249 0.676002 0.763392 -0.018876
C9    C     C_R   0.085669 0.791305 0.846027 0.006055
C10   C     C_R   0.969206 0.819738 0.796429 -0.090800
C11   C     C_R   0.897013 0.728320 0.677132 -0.113850
C12   C     C_R   0.072910 0.596771 0.623777 -0.002241
C13   C     C_R   0.945782 0.613080 0.595650 0.022810
C14   C     C_1   0.094870 0.305670 0.279677 0.244719
C15   C     C_2   0.431016 0.024036 0.260554 0.247377
C16   C     C_2   0.424976 0.358096 0.824629 0.279680
C17   C     C_1   0.636299 0.573230 0.165092 0.310772
C18   C     C_2   0.598711 0.685165 0.948319 0.397808
C19   C     C_1   0.208426 0.617200 0.848155 0.223885
C20   C     C_2   0.148332 0.874347 0.992436 0.296002
C21   C     C_1   0.345656 0.889786 0.447827 0.228514
C22   C     C_1   0.619557 0.144010 0.634515 0.274540
C23   C     C_R   0.126830 0.498785 0.513199 -0.012124
C24   C     C_R   0.047377 0.407100 0.394690 -0.045214
C25   C     C_R   0.919053 0.410683 0.388165 -0.135058
C26   C     C_R   0.868764 0.511779 0.489454 0.017290
C27   C     C_2   0.483819 0.113976 0.409659 -0.027821
C28   C     C_2   0.522745 0.068991 0.516440 -0.068879
C29   C     C_2   0.538802 0.880768 0.588514 -0.087565
Cu1   Cu    Cu3+1 0.521920 0.521810 0.644910 0.978984
Cu2   Cu    Cu3+1 0.478080 0.478190 0.355090 1.056809
H1    H     H_    0.361608 0.399624 0.077203 0.257791
H2    H     H_    0.929093 0.907222 0.857534 0.169650
H3    H     H_    0.802626 0.747923 0.648979 0.119741
H4    H     H_    0.857903 0.334361 0.304289 0.142546
H5    H     H_    0.625562 0.925394 0.657791 0.101869
H6    H     H_    0.436143 0.921038 0.229321 0.161300
H7    H     H_    0.356672 0.359939 0.738040 0.161720
H8    H     H_    0.679465 0.729223 0.921264 0.120523
H9    H     H_    0.243409 0.860942 0.026449 0.162816
N1    N     N_2   0.445130 0.445430 0.137370 -0.339827
N2    N     N_2   0.554930 0.554500 0.862630 -0.288018
N3    N     N_1   0.133678 0.225730 0.187132 -0.155792
N4    N     N_1   0.726612 0.635161 0.231525 -0.282207
N5    N     N_1   0.262667 0.572481 0.922117 -0.310855
N6    N     N_1   0.244818 0.848330 0.394674 -0.244962
N7    N     N_1   0.696743 0.203178 0.727938 -0.250899
O1    O     O_R   0.511700 0.332330 0.577400 -0.529808
O2    O     O_2   0.432700 0.256911 0.845454 -0.506041
O3    O     O_2   0.540854 0.751494 0.043530 -0.543051
O4    O     O_2   0.093234 0.955132 0.077990 -0.459273
O5    O     O_R   0.474680 0.295500 0.332650 -0.426483
O6    O     O_R   0.338160 0.518420 0.622400 -0.526865
O7    O     O_R   0.301140 0.481590 0.377650 -0.481060
O8    O     O_R   0.525320 0.704500 0.667350 -0.511879
O9    O     O_R   0.488300 0.667670 0.422600 -0.485830
O10   O     O_R   0.698860 0.518410 0.622350 -0.510754
O11   O     O_R   0.661840 0.481580 0.377600 -0.505687
O12   O     O_2   0.383938 0.064123 0.169484 -0.439644

loop_
_geom_bond_atom_site_label_1
_geom_bond_atom_site_label_2
_ccdc_geom_bond_type
C8    C9    A    
C23   C24   A    
C19   N5    T    
C1    O1    A    
C6    O9    A    
C4    O6    A    
C20   O4    D    
Cu2   N1    S    
C9    C10   A    
Cu2   O5    S    
C7    O11   A    
C15   C27   S    
C24   C25   A    
C29   H5    S    
C8    C12   A    
C6    O8    A    
H1    N1    S    
C2    C21   S    
C22   N7    T    
C25   C26   A    
C17   N4    T    
C22   C28   S    
C12   C13   A    
C15   H6    S    
C11   C13   A    
C12   C23   A    
C7    C26   S    
C25   H4    S    
C2    C29   D    
C20   H9    S    
Cu2   O11   S    
Cu1   O1    S    
C1    O5    A    
C3    C17   S    
C10   H2    S    
C18   N2    S    
Cu2   O7    S    
Cu1   Cu2   S    
Cu2   O9    S    
Cu1   O6    S    
C13   C26   A    
C8    C19   S    
C10   C11   A    
Cu1   O10   S    
C6    C29   S    
C16   O2    D    
C18   O3    D    
C5    N2    D    
C21   N6    T    
Cu1   O8    S    
C14   C24   S    
C27   C28   D    
C1    C27   S    
C18   H8    S    
Cu1   N2    S    
C5    C16   S    
C2    C28   S    
C9    C20   S    
C4    O7    A    
C4    C23   S    
C15   O12   D    
C7    O10   A    
C11   H3    S    
C3    N1    D    
C16   H7    S    
C14   N3    T    
C3    C5    S    
