data_mof_unit_23216.cif
_audit_creation_date              2012-12-11T14:44:32-0500
_audit_creation_method            fapswitch 2.2
_symmetry_space_group_name_H-M    P1
_symmetry_Int_Tables_number       1
_space_group_crystal_system       triclinic
_cell_length_a                    24.856956
_cell_length_b                    16.750583
_cell_length_c                    15.616057
_cell_angle_alpha                 89.822411
_cell_angle_beta                  49.795475
_cell_angle_gamma                 89.88813
_cell_volume                      4965.87265191

loop_
_atom_site_label
_atom_site_type_symbol
_atom_type_description
_atom_site_fract_x
_atom_site_fract_y
_atom_site_fract_z
_atom_type_partial_charge
C1    C     C_R   0.333253 0.110889 0.802732 -0.133391
C2    C     C_R   0.666748 0.889112 0.197268 -0.133493
C3    C     C_R   0.666667 0.111363 0.197427 -0.129003
C4    C     C_R   0.333333 0.888661 0.802586 -0.129246
C5    C     C_R   0.853836 0.648615 0.752386 -0.115989
C6    C     C_R   0.146149 0.351373 0.247648 -0.116330
C7    C     C_R   0.146155 0.648630 0.247619 -0.116562
C8    C     C_R   0.853901 0.351318 0.752224 -0.116883
C9    C     C_3   0.293808 0.281388 0.399297 -0.280948
C10   C     C_3   0.705304 0.717252 0.601580 -0.280705
C11   C     C_3   0.688968 0.318835 0.607509 -0.276738
C12   C     C_3   0.310627 0.682343 0.392307 -0.276963
C13   C     C_3   0.738728 0.698323 0.400364 -0.283712
C14   C     C_3   0.262065 0.302708 0.598921 -0.283036
C15   C     C_3   0.244173 0.721684 0.607710 -0.278887
C16   C     C_3   0.756378 0.277383 0.392437 -0.279008
C17   C     C_2   0.697061 0.148799 0.013354 -0.218832
C18   C     C_2   0.302930 0.851246 0.986660 -0.218798
C19   C     C_2   0.302977 0.148335 0.986516 -0.217253
C20   C     C_2   0.697029 0.851680 0.013478 -0.217295
C21   C     C_2   0.136974 0.767774 0.157346 -0.216688
C22   C     C_2   0.863137 0.232100 0.842343 -0.216348
C23   C     C_2   0.863843 0.768193 0.840514 -0.206067
C24   C     C_2   0.136129 0.231775 0.159564 -0.205556
C25   C     C_2   0.766730 0.140021 0.951660 -0.109667
C26   C     C_2   0.233265 0.860013 0.048325 -0.109849
C27   C     C_2   0.233214 0.140571 0.048186 -0.109741
C28   C     C_2   0.766791 0.859442 0.951815 -0.109899
C29   C     C_2   0.186344 0.810238 0.147368 -0.113960
C30   C     C_2   0.813657 0.189723 0.852525 -0.114843
C31   C     C_2   0.813335 0.809944 0.852591 -0.117011
C32   C     C_2   0.186667 0.190050 0.147432 -0.117303
C33   C     C_R   0.588418 0.148295 0.592394 -0.114821
C34   C     C_R   0.411735 0.851589 0.407617 -0.114796
C35   C     C_R   0.415301 0.150530 0.407030 -0.116821
C36   C     C_R   0.584741 0.849480 0.592947 -0.116733
C37   C     C_R   0.116203 0.603989 0.591572 -0.079718
C38   C     C_R   0.883746 0.396241 0.408424 -0.079454
C39   C     C_R   0.885912 0.610722 0.407759 -0.122582
C40   C     C_R   0.114007 0.389161 0.592306 -0.125722
C41   C     C_R   0.664778 0.146335 0.405097 -0.140050
C42   C     C_R   0.335372 0.853552 0.594889 -0.139222
C43   C     C_R   0.339172 0.149045 0.593496 -0.118966
C44   C     C_R   0.660927 0.851023 0.406459 -0.119067
C45   C     C_R   0.190864 0.602924 0.405635 -0.180307
C46   C     C_R   0.809073 0.397375 0.594332 -0.180330
C47   C     C_R   0.811214 0.610672 0.594260 -0.159135
C48   C     C_R   0.188741 0.389202 0.405804 -0.157816
C49   C     C_R   0.578254 0.107670 0.195780 -0.156246
C50   C     C_R   0.421744 0.892345 0.804227 -0.155769
C51   C     C_R   0.421841 0.107512 0.804016 -0.144532
C52   C     C_R   0.578165 0.892500 0.195974 -0.144640
C53   C     C_R   0.057806 0.644647 0.243997 -0.150967
C54   C     C_R   0.942254 0.355272 0.755824 -0.150796
C55   C     C_R   0.942900 0.645094 0.754271 -0.161702
C56   C     C_R   0.057065 0.354872 0.245814 -0.160966
C57   C     C_R   0.351528 0.127265 0.867474 0.154503
C58   C     C_R   0.648477 0.872745 0.132521 0.154490
C59   C     C_R   0.648448 0.127770 0.132518 0.150669
C60   C     C_R   0.351547 0.872266 0.867498 0.150849
C61   C     C_R   0.887158 0.691481 0.782082 0.141611
C62   C     C_R   0.112809 0.308488 0.218000 0.141762
C63   C     C_R   0.113321 0.691214 0.216587 0.143834
C64   C     C_R   0.886765 0.308690 0.783166 0.144154
C65   C     C_R   0.640606 0.190778 0.497717 0.093343
C66   C     C_R   0.359635 0.809029 0.502281 0.092426
C67   C     C_R   0.365953 0.195354 0.500537 0.068685
C68   C     C_R   0.634175 0.804732 0.499402 0.069111
C69   C     C_R   0.184401 0.617822 0.497769 0.100471
C70   C     C_R   0.815490 0.382690 0.502200 0.101271
C71   C     C_R   0.819552 0.631534 0.501513 0.082366
C72   C     C_R   0.180316 0.368183 0.498607 0.081911
C73   C     C_3   0.342194 0.318526 0.417512 0.669551
C74   C     C_3   0.657823 0.680491 0.581257 0.670076
C75   C     C_3   0.664126 0.336665 0.540883 0.677289
C76   C     C_3   0.336295 0.663621 0.457531 0.676676
C77   C     C_3   0.785848 0.735667 0.421089 0.661126
C78   C     C_3   0.214004 0.265001 0.580332 0.660479
C79   C     C_3   0.219202 0.741033 0.542523 0.676825
C80   C     C_3   0.780521 0.258912 0.458998 0.677535
C81   C     C_3   0.725259 0.785551 0.519018 -0.377288
C82   C     C_3   0.273882 0.214064 0.483063 -0.376244
C83   C     C_3   0.292253 0.768510 0.438947 -0.397404
C84   C     C_3   0.707116 0.232220 0.562451 -0.398051
C85   C     C_3   0.281675 0.371032 0.514718 -0.373594
C86   C     C_3   0.719074 0.629026 0.483361 -0.373939
C87   C     C_3   0.738716 0.364620 0.437174 -0.404477
C88   C     C_3   0.262058 0.634868 0.561371 -0.403704
C89   C     C_3   0.677360 0.747763 0.499904 -0.016881
C90   C     C_3   0.322699 0.252211 0.500035 -0.016952
C91   C     C_3   0.318321 0.748431 0.503010 -0.008285
C92   C     C_3   0.681883 0.251430 0.496982 -0.008134
C93   C     C_3   0.232931 0.331768 0.498349 0.000782
C94   C     C_3   0.766900 0.667951 0.501879 0.000940
C95   C     C_3   0.763577 0.344334 0.502858 -0.002156
C96   C     C_3   0.236366 0.656046 0.497111 -0.001787
H1    H     H_    0.280716 0.108550 0.830358 0.085459
H2    H     H_    0.719284 0.891450 0.169644 0.085398
H3    H     H_    0.719189 0.109223 0.169888 0.083186
H4    H     H_    0.280807 0.890812 0.830126 0.083261
H5    H     H_    0.807512 0.664933 0.763985 0.090300
H6    H     H_    0.192479 0.335060 0.236036 0.090399
H7    H     H_    0.192079 0.665056 0.237137 0.090453
H8    H     H_    0.808005 0.334885 0.762627 0.090496
H9    H     H_    0.560844 0.163921 0.678861 0.111662
H10   H     H_    0.439315 0.835937 0.321155 0.112083
H11   H     H_    0.442779 0.166190 0.320518 0.126628
H12   H     H_    0.557247 0.833787 0.679456 0.125831
H13   H     H_    0.095122 0.603413 0.677585 0.100838
H14   H     H_    0.904865 0.396789 0.322391 0.100079
H15   H     H_    0.906231 0.609682 0.322189 0.125269
H16   H     H_    0.093680 0.390246 0.677879 0.126546
H17   H     H_    0.707632 0.160305 0.318173 0.098395
H18   H     H_    0.292510 0.839569 0.681804 0.098587
H19   H     H_    0.296006 0.163727 0.679960 0.106955
H20   H     H_    0.704097 0.836381 0.319983 0.106456
H21   H     H_    0.238786 0.601534 0.318989 0.104009
H22   H     H_    0.761160 0.398757 0.680986 0.103798
H23   H     H_    0.762762 0.609595 0.680458 0.106031
H24   H     H_    0.237221 0.390240 0.319630 0.106155
H25   H     H_    0.550229 0.102506 0.164538 0.096532
H26   H     H_    0.449774 0.897512 0.835462 0.096297
H27   H     H_    0.450054 0.102484 0.834979 0.091826
H28   H     H_    0.549956 0.897537 0.165004 0.091880
H29   H     H_    0.021927 0.659295 0.229647 0.108082
H30   H     H_    0.978175 0.340557 0.770054 0.107986
H31   H     H_    0.979813 0.660734 0.766203 0.119635
H32   H     H_    0.020124 0.339208 0.233948 0.119654
H33   H     H_    0.725815 0.849931 0.535251 0.144134
H34   H     H_    0.272699 0.149483 0.468424 0.144378
H35   H     H_    0.304516 0.823711 0.389687 0.138917
H36   H     H_    0.694322 0.177507 0.612826 0.138792
H37   H     H_    0.284263 0.435873 0.526115 0.147204
H38   H     H_    0.717124 0.564340 0.470363 0.147233
H39   H     H_    0.751988 0.419893 0.387647 0.143213
H40   H     H_    0.249313 0.579124 0.609791 0.143319
H41   H     H_    0.306790 0.273699 0.317159 0.142284
H42   H     H_    0.691627 0.723959 0.684353 0.142296
H43   H     H_    0.661536 0.337763 0.695018 0.147151
H44   H     H_    0.337705 0.664325 0.304595 0.146867
H45   H     H_    0.751842 0.692186 0.317953 0.146901
H46   H     H_    0.249655 0.309804 0.680692 0.147105
H47   H     H_    0.216583 0.738945 0.695853 0.143937
H48   H     H_    0.784387 0.259243 0.304457 0.143970
H49   H     H_    0.211488 0.890310 0.015185 0.127860
H50   H     H_    0.788515 0.109742 0.984799 0.127776
H51   H     H_    0.788847 0.888932 0.984799 0.127522
H52   H     H_    0.211156 0.111084 0.015203 0.127552
H53   H     H_    0.797507 0.204994 0.804413 0.123573
H54   H     H_    0.202424 0.795012 0.195590 0.123573
H55   H     H_    0.203756 0.205708 0.194001 0.126609
H56   H     H_    0.796260 0.794294 0.806000 0.126504
H57   H     H_    0.324055 0.820540 0.020765 0.132059
H58   H     H_    0.675927 0.179484 0.979253 0.132014
H59   H     H_    0.675657 0.821809 0.979448 0.132233
H60   H     H_    0.324352 0.178201 0.020545 0.132302
H61   H     H_    0.878314 0.216891 0.891916 0.134767
H62   H     H_    0.121871 0.782930 0.107656 0.134827
H63   H     H_    0.119708 0.216041 0.111952 0.138205
H64   H     H_    0.880253 0.783919 0.888144 0.138204
N1    N     N_R   0.389620 0.081040 0.705440 -0.043121
N2    N     N_R   0.610380 0.918960 0.294560 -0.043103
N3    N     N_R   0.610380 0.081040 0.294560 -0.041889
N4    N     N_R   0.389620 0.918960 0.705440 -0.041941
N5    N     N_R   0.889620 0.581040 0.705440 -0.045114
N6    N     N_R   0.110380 0.418960 0.294560 -0.045170
N7    N     N_R   0.110380 0.581040 0.294560 -0.045363
N8    N     N_R   0.889620 0.418960 0.705440 -0.045382
N9    N     N_R   0.582320 0.079840 0.556630 -0.048623
N10   N     N_R   0.417680 0.920160 0.443370 -0.048688
N11   N     N_R   0.417680 0.079840 0.443370 -0.049664
N12   N     N_R   0.582320 0.920160 0.556630 -0.049649
N13   N     N_R   0.082320 0.579840 0.556630 -0.049371
N14   N     N_R   0.917680 0.420160 0.443370 -0.049511
N15   N     N_R   0.917680 0.579840 0.443370 -0.045472
N16   N     N_R   0.082320 0.420160 0.556630 -0.045221
N17   N     N_R   0.627920 0.078930 0.443400 -0.041733
N18   N     N_R   0.372080 0.921070 0.556600 -0.041874
N19   N     N_R   0.372080 0.078930 0.556600 -0.044803
N20   N     N_R   0.627920 0.921070 0.443400 -0.044690
N21   N     N_R   0.127920 0.578930 0.443400 -0.038521
N22   N     N_R   0.872080 0.421070 0.556600 -0.038566
N23   N     N_R   0.872080 0.578930 0.556600 -0.038014
N24   N     N_R   0.127920 0.421070 0.443400 -0.038042
N25   N     N_R   0.555090 0.077730 0.294590 -0.039875
N26   N     N_R   0.444910 0.922270 0.705410 -0.039929
N27   N     N_R   0.444910 0.077730 0.705410 -0.040159
N28   N     N_R   0.555090 0.922270 0.294590 -0.040158
N29   N     N_R   0.055090 0.577730 0.294590 -0.043130
N30   N     N_R   0.944910 0.422270 0.705410 -0.043181
N31   N     N_R   0.944910 0.577730 0.705410 -0.043753
N32   N     N_R   0.055090 0.422270 0.294590 -0.043933
Ni1   Ni    Ni4+2 0.382970 0.000000 0.629840 0.210226
Ni2   Ni    Ni4+2 0.617030 0.000000 0.370160 0.210340
Ni3   Ni    Ni4+2 0.882970 0.500000 0.629840 0.212955
Ni4   Ni    Ni4+2 0.117030 0.500000 0.370160 0.213120
Ni5   Ni    Ni4+2 0.514540 0.000000 0.629840 0.202971
Ni6   Ni    Ni4+2 0.485460 0.000000 0.370160 0.202986
Ni7   Ni    Ni4+2 0.014540 0.500000 0.629840 0.207380
Ni8   Ni    Ni4+2 0.985460 0.500000 0.370160 0.207251
O1    O     O_3   0.411650 0.342162 0.326496 -0.638593
C97   C     C_3   0.442570 0.379402 0.366353 0.243500
H65   H     H_    0.432611 0.346096 0.437252 0.085806
H66   H     H_    0.421904 0.441161 0.393883 0.129681
C98   C     C_3   0.521903 0.383079 0.271768 -0.873045
H67   H     H_    0.534428 0.419459 0.201304 0.263824
H68   H     H_    0.547454 0.410418 0.302219 0.199722
H69   H     H_    0.543250 0.321853 0.241289 0.255636
O2    O     O_3   0.588383 0.655957 0.671019 -0.638226
C99   C     C_3   0.558278 0.619542 0.629330 0.244192
H70   H     H_    0.579294 0.558009 0.600741 0.130035
H71   H     H_    0.568612 0.653721 0.558701 0.085296
C100  C     C_3   0.478852 0.615237 0.722909 -0.872034
H72   H     H_    0.457167 0.676205 0.754533 0.255671
H73   H     H_    0.453914 0.588647 0.691024 0.199224
H74   H     H_    0.465982 0.577914 0.792918 0.264050
O3    O     O_3   0.599266 0.374085 0.589146 -0.637000
C101  C     C_3   0.595040 0.391536 0.505072 0.259773
H75   H     H_    0.616082 0.342499 0.442683 0.091531
H76   H     H_    0.624800 0.447216 0.460350 0.081973
C102  C     C_3   0.518265 0.403794 0.559401 -0.915642
H77   H     H_    0.494607 0.451656 0.623282 0.260175
H78   H     H_    0.514435 0.420963 0.494781 0.207625
H79   H     H_    0.488330 0.347602 0.600497 0.262682
O4    O     O_3   0.401485 0.626383 0.407564 -0.637053
C103  C     C_3   0.406539 0.607835 0.490458 0.259748
H80   H     H_    0.376797 0.552068 0.534830 0.081981
H81   H     H_    0.386025 0.656465 0.553248 0.091676
C104  C     C_3   0.483524 0.595042 0.434594 -0.915663
H82   H     H_    0.513495 0.651264 0.393818 0.262617
H83   H     H_    0.488003 0.577010 0.498235 0.207511
H84   H     H_    0.506660 0.547604 0.370215 0.260279
O5    O     O_3   0.854724 0.761893 0.330243 -0.644841
C105  C     C_3   0.879083 0.815599 0.368048 0.254739
H85   H     H_    0.879830 0.786988 0.431697 0.098300
H86   H     H_    0.845904 0.870249 0.403931 0.094696
C106  C     C_3   0.953525 0.841786 0.269114 -0.890414
H87   H     H_    0.953394 0.875085 0.207634 0.255655
H88   H     H_    0.974562 0.881151 0.298559 0.213852
H89   H     H_    0.988259 0.789032 0.227102 0.248964
O6    O     O_3   0.145175 0.239668 0.672620 -0.644962
C107  C     C_3   0.119499 0.185838 0.637070 0.255043
H90   H     H_    0.152502 0.131088 0.600498 0.094291
H91   H     H_    0.117532 0.214306 0.574652 0.098679
C108  C     C_3   0.045475 0.159886 0.737865 -0.892352
H92   H     H_    0.011090 0.212759 0.781101 0.248875
H93   H     H_    0.023133 0.120930 0.710217 0.213951
H94   H     H_    0.046874 0.126212 0.797785 0.255627
O7    O     O_3   0.153943 0.779398 0.594833 -0.641445
C109  C     C_3   0.152831 0.814348 0.513606 0.250428
H95   H     H_    0.176694 0.775052 0.439472 0.086867
H96   H     H_    0.181685 0.872108 0.485169 0.097415
C110  C     C_3   0.076860 0.830206 0.565822 -0.873914
H97   H     H_    0.051209 0.870097 0.639534 0.256655
H98   H     H_    0.075386 0.859235 0.503333 0.208649
H99   H     H_    0.047343 0.773049 0.593013 0.258765
O8    O     O_3   0.845476 0.220314 0.408255 -0.641247
C111  C     C_3   0.845800 0.186271 0.490739 0.250518
H100  H     H_    0.817076 0.128425 0.519303 0.097511
H101  H     H_    0.821329 0.225992 0.564659 0.086281
C112  C     C_3   0.921533 0.170934 0.440132 -0.873474
H102  H     H_    0.950922 0.228203 0.412657 0.259033
H103  H     H_    0.922410 0.142734 0.503676 0.208534
H104  H     H_    0.947730 0.130498 0.366842 0.256665

loop_
_geom_bond_atom_site_label_1
_geom_bond_atom_site_label_2
_ccdc_geom_bond_type
C65   C92   S    
N2    N28   A    
C88   C96   S    
C46   N22   A    
C20   H59   S    
C37   C69   A    
C44   N20   A    
N13   Ni7   S    
C53   C63   A    
C52   H28   S    
C21   H62   S    
C18   C26   D    
C80   C84   S    
C69   C96   S    
C33   N9    A    
C2    N2    A    
C6    N6    A    
C77   O5    S    
C24   H63   S    
C33   C65   A    
C102  H79   S    
C40   H16   S    
C71   C94   S    
C100  H72   S    
C19   C57   S    
C14   H46   S    
C54   H30   S    
C43   N19   A    
O7    C109  S    
C104  H82   S    
C97   H66   S    
N27   Ni5   S    
C105  H86   S    
C54   C64   A    
C74   C89   S    
C41   N17   A    
C56   N32   A    
C16   H48   S    
N6    Ni4   S    
C73   C90   S    
O6    C107  S    
N11   Ni6   S    
N4    N26   A    
C99   H70   S    
C110  H97   S    
C38   N14   A    
C36   H12   S    
C99   H71   S    
C10   C94   S    
C78   C93   S    
C11   C95   S    
C106  H88   S    
C55   C61   A    
C77   C94   S    
N5    N31   A    
C51   H27   S    
C46   H22   S    
O8    C111  S    
N7    Ni4   S    
N21   Ni4   S    
C11   H43   S    
O1    C97   S    
C14   C90   S    
C56   H32   S    
C7    N7    A    
C86   C94   S    
C43   H19   S    
C29   H54   S    
C85   C93   S    
C42   H18   S    
C15   C79   S    
C23   C61   S    
C27   H52   S    
C97   C98   S    
C87   C95   S    
C13   C86   S    
C16   C87   S    
N23   Ni3   S    
C4    N4    A    
N26   Ni5   S    
C25   H50   S    
C51   C57   A    
C55   N31   A    
C5    N5    A    
N25   Ni6   S    
C38   H14   S    
C8    N8    A    
O5    C105  S    
C76   C88   S    
C37   H13   S    
C34   N10   A    
C3    N3    A    
C9    C82   S    
C53   H29   S    
C81   C89   S    
N12   N20   A    
C109  C110  S    
N32   Ni8   S    
C27   C32   S    
C1    N1    A    
N2    Ni2   S    
C7    H7    S    
C108  H92   S    
C18   C60   S    
C6    H6    S    
C19   H60   S    
C79   O7    S    
N14   N22   A    
C9    C73   S    
C48   C72   A    
C17   H58   S    
N5    Ni3   S    
N9    N17   A    
C34   C66   A    
C112  H103  S    
C86   H38   S    
N30   Ni7   S    
C68   C89   S    
N9    Ni5   S    
C13   C77   S    
C100  H73   S    
N7    N29   A    
N18   Ni1   S    
C5    H5    S    
C36   N12   A    
C78   O6    S    
C46   C70   A    
N17   Ni2   S    
C74   O2    S    
C45   C69   A    
C107  C108  S    
C35   H11   S    
C87   H39   S    
C33   H9    S    
C88   H40   S    
C47   N23   A    
C97   H65   S    
C1    H1    S    
C48   N24   A    
C110  H98   S    
N4    Ni1   S    
C30   H53   S    
C41   C65   A    
C20   C28   D    
N3    Ni2   S    
O3    C101  S    
N24   Ni4   S    
C21   C29   D    
N8    Ni3   S    
C67   C90   S    
C12   C83   S    
C16   C80   S    
C105  C106  S    
C23   C31   D    
C26   H49   S    
C111  H101  S    
C24   C32   D    
C43   C67   A    
C83   H35   S    
C102  H77   S    
C1    C57   A    
C112  H104  S    
C78   C82   S    
C107  H91   S    
O2    C99   S    
N28   Ni6   S    
C49   H25   S    
C23   H64   S    
C4    C60   A    
C12   H44   S    
O4    C103  S    
N1    Ni1   S    
N12   Ni5   S    
C39   H15   S    
C50   H26   S    
C74   C86   S    
C80   C95   S    
C84   C92   S    
C8    H8    S    
C7    C63   A    
C66   C91   S    
C18   H57   S    
C52   C58   A    
C75   C92   S    
C17   C59   S    
C15   H47   S    
C72   C93   S    
N29   Ni8   S    
C75   C87   S    
C38   C70   A    
C8    C64   A    
C16   C92   S    
C40   C72   A    
C103  H81   S    
C108  H93   S    
C39   N15   A    
C81   H33   S    
C104  H83   S    
C56   C62   A    
C44   C68   A    
C111  C112  S    
C82   H34   S    
C105  H85   S    
C47   C71   A    
N16   Ni7   S    
C20   C58   S    
C83   C91   S    
C50   N26   A    
C9    C93   S    
N10   Ni6   S    
C19   C27   D    
C48   H24   S    
C101  C102  S    
N15   N23   A    
N19   Ni1   S    
C98   H69   S    
C45   H21   S    
C25   C30   S    
N16   N24   A    
C98   H67   S    
C106  H89   S    
C28   H51   S    
C24   C62   S    
C22   C30   D    
C13   C89   S    
C76   O4    S    
N8    N30   A    
C13   H45   S    
C44   H20   S    
C28   C31   S    
C14   C85   S    
N31   Ni7   S    
C37   N13   A    
C82   C90   S    
C55   H31   S    
C110  H99   S    
C2    C58   A    
C100  H74   S    
N22   Ni3   S    
C22   H61   S    
C11   C84   S    
C104  H84   S    
C99   C100  S    
C10   H42   S    
C40   N16   A    
C10   C81   S    
N14   Ni8   S    
C49   C59   A    
C4    H4    S    
C101  H76   S    
N3    N25   A    
C50   C60   A    
N11   N19   A    
C12   C76   S    
C70   C95   S    
C109  H95   S    
C41   H17   S    
C17   C25   D    
C73   C85   S    
N1    N27   A    
C11   C75   S    
C79   C83   S    
C31   H56   S    
C10   C74   S    
C6    C62   A    
C101  H75   S    
C112  H102  S    
N20   Ni2   S    
C73   O1    S    
C42   N18   A    
C53   N29   A    
C107  H90   S    
C9    H41   S    
C47   H23   S    
C32   H55   S    
C84   H36   S    
C54   N30   A    
C111  H100  S    
C34   H10   S    
N6    N32   A    
C14   C78   S    
N13   N21   A    
C77   C81   S    
N15   Ni8   S    
C21   C63   S    
C51   N27   A    
C35   C67   A    
C76   C91   S    
C15   C91   S    
C3    H3    S    
C79   C96   S    
C49   N25   A    
C103  C104  S    
C2    H2    S    
C26   C29   S    
C102  H78   S    
C103  H80   S    
C45   N21   A    
C108  H94   S    
C42   C66   A    
C75   O3    S    
C12   C96   S    
C35   N11   A    
C80   O8    S    
C52   N28   A    
C22   C64   S    
C106  H87   S    
C98   H68   S    
C109  H96   S    
C36   C68   A    
C5    C61   A    
C85   H37   S    
C15   C88   S    
N10   N18   A    
C39   C71   A    
C3    C59   A    
