data_mof_unit_28872.cif
_audit_creation_date              2012-12-10T17:52:26-0500
_audit_creation_method            fapswitch 2.2
_symmetry_space_group_name_H-M    P1
_symmetry_Int_Tables_number       1
_space_group_crystal_system       triclinic
_cell_length_a                    19.016148
_cell_length_b                    10.630899
_cell_length_c                    9.91554
_cell_angle_alpha                 89.865405
_cell_angle_beta                  89.924865
_cell_angle_gamma                 91.773452
_cell_volume                      2003.54556333

loop_
_atom_site_label
_atom_site_type_symbol
_atom_type_description
_atom_site_fract_x
_atom_site_fract_y
_atom_site_fract_z
_atom_type_partial_charge
C1    C     C_R   0.501784 0.260719 0.500156 0.844878
C2    C     C_R   0.851503 0.411946 0.498994 0.091055
C3    C     C_R   0.619431 0.137577 0.625327 -0.170708
C4    C     C_R   0.365201 0.496454 0.500107 0.836300
C5    C     C_R   0.674508 0.074927 0.685885 -0.125570
C6    C     C_R   0.674611 0.944036 0.685728 -0.137905
C7    C     C_R   0.619702 0.875351 0.624793 -0.180658
C8    C     C_R   0.563006 0.937466 0.564145 0.098501
C9    C     C_R   0.562839 0.069350 0.564500 0.096123
C10   C     C_R   0.506634 0.128700 0.500030 -0.086144
C11   C     C_R   0.453734 0.061793 0.431961 -0.211401
C12   C     C_R   0.289147 0.474204 0.500147 -0.031038
C13   C     C_R   0.453935 0.933290 0.431524 -0.191969
C14   C     C_R   0.507001 0.872052 0.499231 -0.095593
C15   C     C_R   0.407536 0.335219 0.140546 -0.134700
C16   C     C_R   0.502158 0.739465 0.499821 0.879226
C17   C     C_R   0.361842 0.254270 0.070683 -0.194410
C18   C     C_R   0.361867 0.254236 0.931098 -0.193057
C19   C     C_R   0.407607 0.335120 0.860597 -0.133976
C20   C     C_R   0.454497 0.418789 0.928023 0.153401
C21   C     C_R   0.454481 0.418841 0.072515 0.075079
C22   C     C_R   0.543940 0.578142 0.071968 0.496807
C23   C     C_R   0.927099 0.390830 0.499078 0.288754
C24   C     C_R   0.543640 0.577620 0.927761 -0.245982
C25   C     C_R   0.634722 0.497285 0.499913 0.834360
C26   C     C_R   0.252940 0.457404 0.622463 -0.202258
C27   C     C_R   0.181621 0.425563 0.622310 -0.162744
C28   C     C_R   0.145479 0.410544 0.499828 0.087378
C29   C     C_R   0.181916 0.426397 0.377537 -0.162635
C30   C     C_R   0.253197 0.458263 0.377698 -0.207323
C31   C     C_R   0.069103 0.390063 0.499534 0.288087
C32   C     C_R   0.815047 0.421648 0.621431 -0.166447
C33   C     C_R   0.744870 0.453607 0.621905 -0.217750
C34   C     C_R   0.710067 0.475702 0.499921 -0.036617
C35   C     C_R   0.746320 0.465408 0.377468 -0.172686
C36   C     C_R   0.816512 0.433497 0.376978 -0.166942
H1    H     H_    0.279702 0.467683 0.718350 0.161171
H2    H     H_    0.404589 0.329269 0.753664 0.199541
H3    H     H_    0.154770 0.414445 0.718168 0.151012
H4    H     H_    0.578964 0.640539 0.872222 0.147859
H5    H     H_    0.155325 0.415899 0.281532 0.151203
H6    H     H_    0.280133 0.469229 0.281875 0.161361
H7    H     H_    0.840792 0.405940 0.717080 0.149434
H8    H     H_    0.717758 0.459313 0.717733 0.158472
H9    H     H_    0.720397 0.480844 0.281900 0.171581
H10   H     H_    0.843453 0.427448 0.281042 0.150474
H11   H     H_    0.411439 0.109325 0.381565 0.139183
H12   H     H_    0.622335 0.239208 0.625042 0.152617
H13   H     H_    0.617429 0.708788 0.078175 0.307786
H14   H     H_    0.717562 0.128171 0.731879 0.141320
H15   H     H_    0.717735 0.895553 0.731686 0.139290
H16   H     H_    0.622838 0.773979 0.623911 0.143261
H17   H     H_    0.411760 0.881177 0.380915 0.151638
H18   H     H_    0.404408 0.329433 0.247483 0.195272
H19   H     H_    0.326233 0.191131 0.125394 0.146268
H20   H     H_    0.326262 0.191086 0.876899 0.151344
N1    N     N_R   0.033131 0.388897 0.381602 -0.178757
N2    N     N_R   0.963372 0.389286 0.381375 -0.178158
N3    N     N_R   0.962968 0.386992 0.616990 -0.179434
N4    N     N_R   0.032739 0.386638 0.617217 -0.178865
N5    N     N_R   0.499340 0.498800 0.142780 -0.132633
N6    N     N_R   0.499320 0.498720 0.857170 -0.128486
O1    O     O_R   0.500000 0.316780 0.614690 -0.638604
O2    O     O_R   0.499990 0.316750 0.385360 -0.631337
O3    O     O_R   0.398140 0.500000 0.614700 -0.632340
O4    O     O_R   0.398130 0.499970 0.385370 -0.643230
O5    O     O_R   0.500010 0.683250 0.614640 -0.616475
O6    O     O_R   0.500000 0.683220 0.385310 -0.557654
O7    O     O_R   0.601870 0.500030 0.614630 -0.635540
O8    O     O_R   0.601860 0.500000 0.385300 -0.565063
O9    O     O_3   0.588737 0.657842 0.142991 -0.734502
Zn1   Zn    Zn3+2 0.500000 0.500020 0.653130 0.931524
Zn2   Zn    Zn3+2 0.500000 0.499980 0.346870 0.988033

loop_
_geom_bond_atom_site_label_1
_geom_bond_atom_site_label_2
_ccdc_geom_bond_type
C31   N4    A    
O7    Zn1   S    
C4    O4    A    
O2    Zn2   S    
C1    O2    A    
C26   H1    S    
C36   H10   S    
C29   C30   A    
C3    C9    A    
C19   H2    S    
C6    H15   S    
C4    C12   S    
O3    Zn1   S    
C9    C10   A    
C3    H12   S    
C11   H11   S    
C19   C20   A    
C18   H20   S    
C25   C34   S    
O4    Zn2   S    
N5    Zn2   S    
C32   C33   A    
C31   N1    A    
O8    Zn2   S    
C12   C30   A    
C17   C18   A    
C26   C27   A    
N6    Zn1   S    
N3    N4    A    
C16   O5    A    
C13   C14   A    
O1    Zn1   S    
C22   N5    A    
C23   N3    A    
C11   C13   A    
N1    N2    A    
C6    C7    A    
C16   O6    A    
C1    O1    A    
C22   C24   A    
C28   C29   A    
C24   H4    S    
C32   H7    S    
C7    H16   S    
C33   C34   A    
C23   N2    A    
C13   H17   S    
C2    C23   S    
C20   N6    A    
C5    C6    A    
C14   C16   S    
C5    H14   S    
C25   O7    A    
C10   C11   A    
C35   H9    S    
C15   H18   S    
C22   O9    S    
C15   C21   A    
O5    Zn1   S    
C20   C21   A    
C2    C32   A    
C34   C35   A    
H13   O9    S    
C2    C36   A    
C27   C28   A    
C15   C17   A    
C7    C8    A    
C17   H19   S    
C4    O3    A    
C18   C19   A    
C24   N6    A    
C25   O8    A    
C8    C14   A    
C12   C26   A    
C29   H5    S    
O6    Zn2   S    
C33   H8    S    
C21   N5    A    
C28   C31   S    
C30   H6    S    
C1    C10   S    
C35   C36   A    
C27   H3    S    
C8    C9    A    
C3    C5    A    
