data_mof_unit_12640.cif
_audit_creation_date              2012-12-11T14:29:44-0500
_audit_creation_method            fapswitch 2.2
_symmetry_space_group_name_H-M    P1
_symmetry_Int_Tables_number       1
_space_group_crystal_system       triclinic
_cell_length_a                    6.935014
_cell_length_b                    14.736353
_cell_length_c                    16.271452
_cell_angle_alpha                 90.50288
_cell_angle_beta                  90.219075
_cell_angle_gamma                 89.963521
_cell_volume                      1662.81405268

loop_
_atom_site_label
_atom_site_type_symbol
_atom_type_description
_atom_site_fract_x
_atom_site_fract_y
_atom_site_fract_z
_atom_type_partial_charge
O1    O     O_R   0.494400 0.416610 0.413880 -0.545960
O2    O     O_R   0.823920 0.406790 0.585520 -0.515002
O3    O     O_R   0.994250 0.583390 0.586120 -0.525454
C1    C     C_R   0.655830 0.385321 0.613638 0.694910
O4    O     O_R   0.824110 0.405730 0.414490 -0.500422
O5    O     O_R   0.994440 0.582310 0.413870 -0.506706
C2    C     C_R   0.654884 0.382470 0.387390 0.804091
O6    O     O_R   0.494210 0.417690 0.586130 -0.551859
O7    O     O_3   0.660810 0.557940 0.500000 -0.377587
V1    V     V_3+5 0.935650 0.489250 0.500000 1.602327
O8    O     O_R   0.324160 0.593210 0.414480 -0.551251
C3    C     C_R   0.154781 0.616042 0.387270 0.770435
O9    O     O_R   0.323970 0.594270 0.585510 -0.559155
C4    C     C_R   0.155380 0.616157 0.613945 0.702778
V2    V     V_3+5 0.435660 0.510750 0.500000 1.487465
O10   O     O_3   0.160630 0.442060 0.500000 -0.355375
H1    H     H_    0.371741 0.913530 0.521069 0.126201
C5    C     C_R   0.027873 0.562360 0.781472 0.332144
C6    C     C_R   0.940550 0.541386 0.856005 -0.101445
C7    C     C_R   0.917417 0.607043 0.916551 -0.195188
C8    C     C_R   0.980257 0.695111 0.903449 -0.145687
C9    C     C_R   0.058688 0.721234 0.827043 0.033336
C10   C     C_R   0.078908 0.654431 0.763143 -0.024414
C11   C     C_R   0.119125 0.812188 0.814626 -0.158102
C12   C     C_R   0.190689 0.838118 0.736809 0.068584
C13   C     C_R   0.203148 0.773315 0.671565 0.068793
C14   C     C_R   0.147469 0.681640 0.684247 -0.180811
C15   C     C_R   0.244668 0.929185 0.721592 -0.138184
C16   C     C_R   0.310591 0.955535 0.644710 -0.090161
C17   C     C_R   0.322092 0.892564 0.580973 -0.101779
C18   C     C_R   0.268217 0.802744 0.593701 -0.146067
H2    H     H_    0.897970 0.472149 0.868442 0.159125
H3    H     H_    0.854871 0.589013 0.975042 0.150246
H4    H     H_    0.965185 0.742281 0.954233 0.117904
H5    H     H_    0.234331 0.981535 0.768355 0.127803
H6    H     H_    0.351154 0.025446 0.634366 0.139856
H7    H     H_    0.277127 0.757210 0.541401 0.097753
C19   C     C_2   0.985668 0.713734 0.284212 0.315264
C20   C     C_2   0.146637 0.689965 0.326099 -0.284516
H8    H     H_    0.278267 0.728605 0.317388 0.126468
C21   C     C_2   0.985837 0.794615 0.228238 0.227544
C22   C     C_2   0.122131 0.805081 0.169519 0.125566
C23   C     C_2   0.771030 0.194145 0.767857 0.404772
C24   C     C_2   0.610428 0.169655 0.808885 -0.283239
H9    H     H_    0.470596 0.190689 0.785374 0.134599
C25   C     C_2   0.755621 0.248764 0.690914 0.005767
C26   C     C_2   0.650551 0.326350 0.687173 0.179042
C27   C     C_2   0.763775 0.193133 0.227635 0.230041
C28   C     C_2   0.620895 0.190306 0.170429 0.124678
C29   C     C_2   0.790234 0.273921 0.283608 0.320370
C30   C     C_2   0.639783 0.307617 0.326618 -0.266564
H10   H     H_    0.498293 0.276973 0.318973 0.133671
O11   O     O_R   0.770210 0.079270 0.910680 -0.506505
O12   O     O_R   0.440150 0.091160 0.082270 -0.553545
O13   O     O_R   0.269970 0.914530 0.082860 -0.551042
C31   C     C_R   0.609382 0.114287 0.109650 0.730727
O14   O     O_R   0.440480 0.090100 0.911240 -0.552807
O15   O     O_R   0.270310 0.913460 0.910610 -0.546989
C32   C     C_R   0.608488 0.109594 0.881451 0.749937
O16   O     O_R   0.769870 0.080340 0.082930 -0.510424
O17   O     O_3   0.603660 0.938980 0.996790 -0.381166
V3    V     V_3+5 0.328750 0.007610 0.996740 1.476360
O18   O     O_R   0.940600 0.902510 0.911180 -0.545545
C33   C     C_R   0.109254 0.880331 0.882998 0.677294
O19   O     O_R   0.940270 0.903570 0.082200 -0.517537
C34   C     C_R   0.109621 0.880663 0.109332 0.722826
V4    V     V_3+5 0.828770 0.986010 0.996670 1.542709
O20   O     O_3   0.103730 0.054750 0.996710 -0.359101
O21   O     O_3   0.839744 0.858280 0.234722 -0.641967
H11   H     H_    0.761585 0.844100 0.283851 0.293909
O22   O     O_3   0.268923 0.741714 0.163066 -0.663938
H12   H     H_    0.347629 0.755632 0.114065 0.292186
O23   O     O_3   0.949295 0.163964 0.794454 -0.630545
H13   H     H_    0.050048 0.193285 0.760802 0.306725
I1    I     I_    0.908335 0.196045 0.587112 -0.436886
O24   O     O_3   0.550252 0.354915 0.756024 -0.650821
H14   H     H_    0.498324 0.416411 0.745639 0.281442
O25   O     O_3   0.891561 0.121179 0.232717 -0.641796
H15   H     H_    0.976562 0.131184 0.281076 0.300418
O26   O     O_3   0.492090 0.261930 0.165654 -0.664090
H16   H     H_    0.406087 0.252213 0.117618 0.295247
O27   O     O_3   0.971246 0.311872 0.293638 -0.627168
H17   H     H_    0.059736 0.282966 0.253471 0.302576
O28   O     O_3   0.068031 0.490041 0.730478 -0.634858
H18   H     H_    0.207117 0.493923 0.717503 0.269410
O29   O     O_3   0.817025 0.665473 0.295612 -0.631559
H19   H     H_    0.718996 0.688069 0.256265 0.299921

loop_
_geom_bond_atom_site_label_1
_geom_bond_atom_site_label_2
_ccdc_geom_bond_type
C23   O23   S    
O15   V3    S    
O23   H13   S    
C6    C7    A    
C1    O6    A    
O11   C32   A    
O14   V3    S    
C12   C15   A    
C16   H6    S    
C13   C14   A    
C19   O29   S    
C15   C16   A    
C26   O24   S    
O5    C3    A    
C17   C18   A    
O14   C32   A    
C24   C32   S    
V2    O10   S    
O13   V3    S    
C5    C6    A    
C21   C22   D    
C27   O25   S    
O8    V2    S    
O28   H18   S    
C15   H5    S    
O19   V4    S    
C5    O28   S    
O1    V2    S    
C10   C14   A    
C4    C14   S    
O7    V1    S    
C27   C29   S    
C13   C18   A    
C11   C33   S    
O1    C2    A    
O9    C4    A    
H1    C17   S    
O17   V3    S    
V4    O20   S    
C6    H2    S    
C25   I1    S    
O12   C31   A    
O15   C33   A    
O18   V4    S    
C5    C10   A    
C11   C12   A    
O16   V4    S    
C19   C21   S    
C20   H8    S    
O4    C2    A    
O25   H15   S    
C8    H4    S    
O12   V3    S    
C12   C13   A    
C30   H10   S    
O2    C1    A    
C23   C24   D    
C16   C17   A    
O17   V4    S    
C29   C30   D    
O24   H14   S    
O3    C4    A    
C7    H3    S    
C27   C28   D    
O19   C34   A    
O6    V2    S    
O9    V2    S    
C9    C11   A    
O2    V1    S    
O13   C34   A    
C24   H9    S    
C29   O27   S    
C21   O21   S    
C25   C26   D    
O29   H19   S    
O26   H16   S    
O5    V1    S    
O8    C3    A    
C28   C31   S    
C28   O26   S    
V3    O20   S    
C3    C20   S    
O7    V2    S    
C2    C30   S    
O4    V1    S    
O3    V1    S    
V1    O10   S    
C19   C20   D    
C22   O22   S    
O21   H11   S    
O11   V4    S    
C23   C25   S    
O18   C33   A    
C18   H7    S    
O22   H12   S    
C31   O16   A    
C7    C8    A    
O27   H17   S    
C22   C34   S    
C9    C10   A    
C8    C9    A    
C1    C26   S    
