data_mof_unit_32739.cif
_audit_creation_date              2012-10-26T19:40:41-0400
_audit_creation_method            fapswitch 2.2
_symmetry_space_group_name_H-M    P1
_symmetry_Int_Tables_number       1
_space_group_crystal_system       triclinic
_cell_length_a                    9.762348
_cell_length_b                    10.929069
_cell_length_c                    13.449115
_cell_angle_alpha                 90.29013
_cell_angle_beta                  72.122999
_cell_angle_gamma                 89.805329
_cell_volume                      1365.61368506

loop_
_atom_site_label
_atom_site_type_symbol
_atom_type_description
_atom_site_fract_x
_atom_site_fract_y
_atom_site_fract_z
_atom_type_partial_charge
C1    C     C_R   0.499332 0.734460 0.501145 0.556164
C2    C     C_R   0.376470 0.508217 0.815190 0.002392
C3    C     C_2   0.612307 0.066719 0.500945 -0.164083
C4    C     C_R   0.422613 0.505566 0.700026 0.539478
C5    C     C_2   0.500967 0.133533 0.492893 -0.119331
C6    C     C_2   0.613769 0.932632 0.496505 -0.161095
C7    C     C_2   0.494926 0.866633 0.506044 -0.116792
C8    C     C_2   0.050216 0.439767 0.564817 -0.030248
C9    C     C_2   0.893448 0.465019 0.577065 -0.004717
C10   C     C_R   0.500711 0.265592 0.498497 0.555922
C11   C     C_R   0.577559 0.502543 0.300048 0.546441
C12   C     C_R   0.436560 0.516488 0.979428 0.037454
C13   C     C_R   0.775591 0.619326 0.031413 0.091289
C14   C     C_R   0.620962 0.521460 0.186712 -0.023213
C15   C     C_R   0.241572 0.459531 0.868809 -0.131338
C16   C     C_R   0.201653 0.443453 0.976018 -0.154401
C17   C     C_R   0.297906 0.469901 0.030815 -0.121023
C18   C     C_3   0.937310 0.476210 0.392831 -0.057742
C19   C     C_3   0.936821 0.339373 0.364314 -0.256505
C20   C     C_3   0.053225 0.308651 0.262515 -0.486718
C21   C     C_R   0.470235 0.546434 0.872135 0.026286
C22   C     C_R   0.541689 0.536279 0.031610 0.003028
C23   C     C_R   0.671678 0.598166 0.979689 0.089495
C24   C     C_R   0.694035 0.640191 0.877928 -0.129372
C25   C     C_R   0.594821 0.615781 0.825518 -0.150492
C26   C     C_R   0.521743 0.495144 0.133817 -0.142975
C27   C     C_R   0.749244 0.580916 0.134742 -0.133356
Cu1   Cu    Cu3+1 0.361370 0.499980 0.499980 0.925754
Cu2   Cu    Cu3+1 0.638630 0.500020 0.500020 0.902157
H1    H     H_    0.826324 0.602437 0.175444 0.112743
H2    H     H_    0.167383 0.431477 0.827514 0.132455
H3    H     H_    0.259166 0.456823 0.113847 0.098315
H4    H     H_    0.096130 0.407715 0.016495 0.112991
H5    H     H_    0.615743 0.655510 0.748953 0.148285
H6    H     H_    0.707422 0.111097 0.509673 0.141905
H7    H     H_    0.034090 0.361774 0.198014 0.138932
H8    H     H_    0.161338 0.329746 0.269124 0.159259
H9    H     H_    0.049304 0.209653 0.244666 0.147231
H10   H     H_    0.954418 0.281872 0.427216 0.154996
H11   H     H_    0.832358 0.314250 0.354046 0.200326
H12   H     H_    0.407098 0.092752 0.479851 0.101477
H13   H     H_    0.902010 0.533206 0.338027 0.151894
H14   H     H_    0.047781 0.509077 0.371494 0.102069
H15   H     H_    0.992612 0.627674 0.980652 0.237175
H16   H     H_    0.909304 0.761801 0.024761 0.231863
H17   H     H_    0.716436 0.887490 0.486712 0.148042
H18   H     H_    0.389907 0.908070 0.519864 0.101733
H19   H     H_    0.076962 0.370141 0.613072 0.132878
H20   H     H_    0.122343 0.586580 0.482651 0.218729
H21   H     H_    0.816187 0.446836 0.652653 0.133061
H22   H     H_    0.789049 0.692065 0.837687 0.154908
H23   H     H_    0.428661 0.442652 0.175091 0.120344
N1    N     N_2   0.152660 0.501340 0.501130 -0.355770
N2    N     N_2   0.846520 0.501370 0.501160 -0.243638
N3    N     N_3   0.905764 0.683639 0.980481 -0.654374
O1    O     O_R   0.382960 0.678040 0.499980 -0.500248
O2    O     O_R   0.617100 0.678080 0.500020 -0.496458
O3    O     O_R   0.325800 0.499940 0.650950 -0.495038
O4    O     O_R   0.559930 0.499980 0.650990 -0.508261
O5    O     O_R   0.382900 0.321920 0.499980 -0.490735
O6    O     O_R   0.617040 0.321960 0.500020 -0.508418
O7    O     O_R   0.440070 0.500020 0.349010 -0.491777
O8    O     O_R   0.674200 0.500060 0.349050 -0.529350

loop_
_geom_bond_atom_site_label_1
_geom_bond_atom_site_label_2
_ccdc_geom_bond_type
C8    N1    D    
C12   C17   A    
C10   O5    A    
C23   C24   A    
Cu2   O8    S    
C15   H2    S    
C6    C7    D    
C2    C15   A    
C26   H23   S    
C14   C27   A    
C20   H9    S    
C2    C4    S    
C19   C20   S    
C3    H6    S    
C25   H5    S    
Cu1   N1    S    
C3    C6    S    
C11   O7    A    
C2    C21   A    
C18   H13   S    
Cu1   O1    S    
C3    C5    D    
C5    C10   S    
C18   H14   S    
C14   C26   A    
C27   H1    S    
C20   H8    S    
C1    O2    A    
H15   N3    S    
C13   C23   A    
C16   C17   A    
C19   H10   S    
C24   H22   S    
H20   N1    S    
C4    O4    A    
Cu1   Cu2   S    
C1    O1    A    
Cu2   O2    S    
Cu1   O3    S    
Cu1   O5    S    
C16   H4    S    
C11   C14   S    
Cu2   O6    S    
C10   O6    A    
C19   H11   S    
C18   N2    S    
C15   C16   A    
C20   H7    S    
C12   C22   A    
C24   C25   A    
H16   N3    S    
C18   C19   S    
C22   C26   A    
Cu2   N2    S    
C4    O3    A    
C17   H3    S    
C21   C25   A    
C22   C23   A    
C13   C27   A    
C5    H12   S    
C9    N2    D    
C6    H17   S    
C13   N3    S    
C1    C7    S    
C11   O8    A    
C12   C21   A    
C9    H21   S    
Cu2   O4    S    
Cu1   O7    S    
C8    C9    S    
C8    H19   S    
C7    H18   S    
