data_mof_unit_58152.cif
_audit_creation_date              2012-12-11T15:29:41-0500
_audit_creation_method            fapswitch 2.2
_symmetry_space_group_name_H-M    P1
_symmetry_Int_Tables_number       1
_space_group_crystal_system       triclinic
_cell_length_a                    21.379842
_cell_length_b                    7.316188
_cell_length_c                    14.603974
_cell_angle_alpha                 89.997537
_cell_angle_beta                  75.052607
_cell_angle_gamma                 90.000741
_cell_volume                      2207.04316188

loop_
_atom_site_label
_atom_site_type_symbol
_atom_type_description
_atom_site_fract_x
_atom_site_fract_y
_atom_site_fract_z
_atom_type_partial_charge
O1    O     O_R   0.464160 0.506670 0.130070 -0.528534
O2    O     O_R   0.535840 0.006670 0.869930 -0.528558
O3    O     O_R   0.589710 0.179080 0.006710 -0.533826
O4    O     O_R   0.410290 0.679080 0.993290 -0.533831
C1    C     C_R   0.616463 0.345233 0.000429 0.672926
C2    C     C_R   0.383536 0.845233 0.999571 0.672944
O5    O     O_R   0.467940 0.177220 0.138010 -0.532096
O6    O     O_R   0.532060 0.677220 0.861990 -0.532084
O7    O     O_R   0.413200 0.002810 0.002170 -0.519099
O8    O     O_R   0.586800 0.502810 0.997830 -0.519101
C3    C     C_R   0.459060 0.345555 0.175070 0.710523
C4    C     C_R   0.540941 0.845558 0.824929 0.710504
O9    O     O_3   0.482180 0.337850 0.955280 -0.366504
O10   O     O_3   0.517820 0.837850 0.044720 -0.366483
V1    V     V_3+5 0.503310 0.064600 0.008300 1.451488
V2    V     V_3+5 0.496690 0.564600 0.991700 1.451517
C5    C     C_R   0.564374 0.851956 0.720639 -0.090117
C6    C     C_R   0.435644 0.351974 0.279363 -0.090159
C7    C     C_R   0.922388 0.862852 0.275684 -0.023429
C8    C     C_R   0.077640 0.362860 0.724325 -0.023446
C9    C     C_R   0.549124 0.863456 0.562203 -0.181753
C10   C     C_R   0.450918 0.363975 0.437780 -0.181859
C11   C     C_R   0.522017 0.857556 0.660826 0.128893
C12   C     C_R   0.478014 0.357652 0.339155 0.129004
C13   C     C_R   0.631019 0.843909 0.681713 -0.218873
C14   C     C_R   0.369004 0.343985 0.318311 -0.218817
C15   C     C_R   0.658836 0.839195 0.582743 0.063640
C16   C     C_R   0.341202 0.339338 0.417283 0.063686
C17   C     C_R   0.616793 0.852132 0.521761 0.026196
C18   C     C_R   0.383251 0.352514 0.478249 0.026038
C19   C     C_R   0.727242 0.825308 0.543732 0.065920
C20   C     C_R   0.272802 0.325314 0.456306 0.065927
C21   C     C_R   0.753854 0.838413 0.443781 0.010821
C22   C     C_R   0.246189 0.338531 0.556250 0.010775
C23   C     C_R   0.710593 0.847213 0.385187 -0.191446
C24   C     C_R   0.289453 0.347515 0.614836 -0.191333
C25   C     C_R   0.642684 0.851433 0.421859 0.120268
C26   C     C_R   0.357365 0.351844 0.578157 0.120295
C27   C     C_R   0.769978 0.796294 0.601948 -0.191655
C28   C     C_R   0.230076 0.296028 0.398104 -0.191637
C29   C     C_R   0.836397 0.796052 0.565382 -0.203137
C30   C     C_R   0.163658 0.295692 0.434666 -0.203127
C31   C     C_R   0.863535 0.820796 0.469049 0.144032
C32   C     C_R   0.136513 0.320585 0.530984 0.144036
C33   C     C_R   0.823177 0.839679 0.405950 0.098574
C34   C     C_R   0.176864 0.339695 0.594078 0.098563
C35   C     C_R   0.931249 0.824125 0.435545 -0.169507
C36   C     C_R   0.068798 0.323811 0.564477 -0.169514
C37   C     C_R   0.960424 0.845211 0.339532 -0.170173
C38   C     C_R   0.039614 0.345003 0.660477 -0.170144
C39   C     C_R   0.854479 0.860112 0.308047 -0.227758
C40   C     C_R   0.145552 0.360230 0.691972 -0.227787
H1    H     H_    0.828015 0.873750 0.254883 0.081668
H2    H     H_    0.172013 0.374003 0.745133 0.081686
H3    H     H_    0.012772 0.845424 0.314775 0.101451
H4    H     H_    0.987265 0.345112 0.685228 0.101464
H5    H     H_    0.866943 0.776160 0.613438 0.124753
H6    H     H_    0.133118 0.275600 0.386619 0.124757
H7    H     H_    0.516992 0.876931 0.516817 0.128697
H8    H     H_    0.483054 0.377911 0.483141 0.128704
H9    H     H_    0.659826 0.842278 0.731942 0.131327
H10   H     H_    0.340187 0.342320 0.268097 0.131335
H11   H     H_    0.729368 0.847094 0.309843 0.135451
H12   H     H_    0.270676 0.347450 0.690182 0.135398
H13   H     H_    0.754008 0.770129 0.676804 0.139006
H14   H     H_    0.246054 0.269703 0.323266 0.139015
H15   H     H_    0.961806 0.809318 0.483911 0.117359
H16   H     H_    0.038247 0.308825 0.516113 0.117360
C41   C     C_3   0.226346 0.731296 0.922507 0.030231
C42   C     C_3   0.773655 0.231202 0.077469 0.030249
H17   H     H_    0.210876 0.590377 0.947752 0.118985
H18   H     H_    0.789137 0.090320 0.052189 0.119047
C43   C     C_3   0.299570 0.741451 0.919130 -0.449588
C44   C     C_3   0.700432 0.241335 0.080841 -0.449527
H19   H     H_    0.327655 0.799866 0.850720 0.156069
H20   H     H_    0.672338 0.299658 0.149262 0.156068
H21   H     H_    0.317874 0.600095 0.922538 0.172569
H22   H     H_    0.682138 0.099976 0.077401 0.172693
H23   H     H_    0.170751 0.656476 0.112934 0.144041
H24   H     H_    0.829247 0.156599 0.887030 0.144018
H25   H     H_    0.278406 0.633462 0.098098 0.181161
H26   H     H_    0.721599 0.133579 0.901824 0.181166
C45   C     C_3   0.193772 0.793414 0.097342 -0.401783
C46   C     C_3   0.806226 0.293519 0.902651 -0.401787
C47   C     C_3   0.217099 0.060142 0.988449 -0.316278
C48   C     C_3   0.782887 0.560113 0.011625 -0.316256
C49   C     C_3   0.186741 0.864545 0.000280 0.061381
C50   C     C_3   0.813255 0.364538 0.999732 0.061312
H27   H     H_    0.190667 0.145733 0.049064 0.169820
H28   H     H_    0.809318 0.645788 0.951043 0.169837
H29   H     H_    0.210466 0.131168 0.924770 0.136764
H30   H     H_    0.789508 0.631036 0.075334 0.136747
C51   C     C_3   0.311583 0.857577 0.002713 0.022209
C52   C     C_3   0.688415 0.357570 0.997289 0.022231
C53   C     C_3   0.266732 0.779485 0.097749 0.017294
C54   C     C_3   0.733269 0.279599 0.902231 0.017253
C55   C     C_3   0.289642 0.056326 0.985783 0.019068
C56   C     C_3   0.710348 0.556297 0.014275 0.019078
H31   H     H_    0.317647 0.100315 0.914373 0.117696
H32   H     H_    0.682334 0.600193 0.085692 0.117654
H33   H     H_    0.166715 0.885884 0.154483 0.149732
H34   H     H_    0.833284 0.386038 0.845536 0.149753
O11   O     O_R   0.913210 0.208550 0.002110 -0.543395
O12   O     O_R   0.086790 0.708550 0.997890 -0.543385
O13   O     O_R   0.032060 0.539960 0.861980 -0.539966
O14   O     O_R   0.967940 0.039960 0.138020 -0.539973
C57   C     C_R   0.046411 0.372873 0.825938 0.679118
C58   C     C_R   0.953603 0.872865 0.174066 0.679111
O15   O     O_R   0.910290 0.538020 0.993280 -0.545161
O16   O     O_R   0.089710 0.038020 0.006720 -0.545187
O17   O     O_R   0.964160 0.712340 0.130090 -0.533346
O18   O     O_R   0.035840 0.212340 0.869910 -0.533354
C59   C     C_R   0.884304 0.370434 0.998711 0.674692
C60   C     C_R   0.115694 0.870435 0.001297 0.674713
O19   O     O_3   0.017820 0.379210 0.044690 -0.376334
O20   O     O_3   0.982180 0.879210 0.955310 -0.376326
V3    V     V_3+5 0.996690 0.652500 0.991710 1.385529
V4    V     V_3+5 0.003310 0.152500 0.008290 1.385481
C61   C     C_3   0.597064 0.853832 0.355669 -0.360241
C62   C     C_3   0.628668 0.840796 0.249765 -0.786627
H35   H     H_    0.660370 0.960293 0.226031 0.223040
H36   H     H_    0.656754 0.712672 0.234427 0.219446
H37   H     H_    0.590809 0.839423 0.210041 0.233032
H38   H     H_    0.561704 0.740987 0.373912 0.185160
H39   H     H_    0.567253 0.978269 0.367140 0.192400
C63   C     C_3   0.402985 0.354355 0.644350 -0.359759
C64   C     C_3   0.371381 0.340642 0.750257 -0.786211
H40   H     H_    0.339561 0.459871 0.774183 0.222883
H41   H     H_    0.343414 0.212241 0.765394 0.219440
H42   H     H_    0.409237 0.339294 0.789988 0.232933
H43   H     H_    0.438481 0.241838 0.625972 0.184987
H44   H     H_    0.432680 0.479029 0.633027 0.192153
C65   C     C_3   0.212957 0.737782 0.822690 -0.364458
C66   C     C_3   0.219276 0.924061 0.774123 -0.741702
H45   H     H_    0.176378 0.010004 0.805614 0.220207
H46   H     H_    0.264230 0.993924 0.778623 0.217538
H47   H     H_    0.221095 0.905363 0.698006 0.225511
H48   H     H_    0.246801 0.642252 0.775407 0.174980
H49   H     H_    0.163570 0.684855 0.827265 0.187718
C67   C     C_3   0.787043 0.237581 0.177287 -0.364459
C68   C     C_3   0.780593 0.423732 0.225985 -0.741684
H50   H     H_    0.823437 0.509933 0.194569 0.220112
H51   H     H_    0.735593 0.493395 0.221536 0.217761
H52   H     H_    0.778779 0.404867 0.302088 0.225537
H53   H     H_    0.753266 0.141802 0.224505 0.174821
H54   H     H_    0.836462 0.184892 0.172682 0.187773
I1    I     I_    0.308904 0.270085 0.076401 -0.567404
I2    I     I_    0.691090 0.770185 0.923716 -0.567384
C69   C     C_3   0.278612 0.858896 0.190387 -0.334781
C70   C     C_3   0.251747 0.734616 0.275559 -0.762729
H55   H     H_    0.198544 0.718590 0.288480 0.230630
H56   H     H_    0.274894 0.598410 0.263026 0.237227
H57   H     H_    0.262177 0.794854 0.339841 0.231541
H58   H     H_    0.331201 0.876930 0.183350 0.195836
H59   H     H_    0.254662 0.993383 0.207073 0.216783
C71   C     C_3   0.721391 0.359157 0.809620 -0.334802
C72   C     C_3   0.748234 0.234959 0.724409 -0.762764
H60   H     H_    0.801430 0.218770 0.711515 0.230646
H61   H     H_    0.725030 0.098811 0.736877 0.237190
H62   H     H_    0.737848 0.295377 0.660137 0.231552
H63   H     H_    0.668803 0.377257 0.816668 0.195855
H64   H     H_    0.745358 0.493634 0.792968 0.216793
C73   C     C_3   0.448943 0.853525 0.703834 -0.383928
C74   C     C_3   0.405842 0.848619 0.633998 -0.756282
H65   H     H_    0.407283 0.978319 0.595265 0.229451
H66   H     H_    0.420630 0.741295 0.579516 0.219986
H67   H     H_    0.354946 0.822137 0.673396 0.230919
H68   H     H_    0.437475 0.729855 0.749233 0.175947
H69   H     H_    0.434976 0.974301 0.750702 0.175016
C75   C     C_3   0.551080 0.353128 0.296114 -0.383796
C76   C     C_3   0.594204 0.347476 0.365904 -0.756814
H70   H     H_    0.593342 0.477512 0.404138 0.229633
H71   H     H_    0.579028 0.240937 0.420722 0.220117
H72   H     H_    0.644969 0.319211 0.326551 0.230998
H73   H     H_    0.562399 0.229473 0.250682 0.176008
H74   H     H_    0.565170 0.473886 0.249263 0.174928

loop_
_geom_bond_atom_site_label_1
_geom_bond_atom_site_label_2
_ccdc_geom_bond_type
C45   C49   S    
C76   H70   S    
C3    C6    S    
C42   C67   S    
C72   H60   S    
C15   C17   A    
C21   C33   A    
C57   O18   A    
C44   C52   S    
C24   H12   S    
C73   C74   S    
O1    C3    A    
C43   C51   S    
H24   C46   S    
O2    C4    A    
C30   H6    S    
C2    O7    A    
C1    C52   S    
C47   H29   S    
O15   V3    S    
C74   H66   S    
C27   C29   A    
C52   C56   S    
C75   H74   S    
C61   H38   S    
O5    C3    A    
C76   H71   S    
C5    C11   A    
C44   H20   S    
C6    C12   A    
C74   H65   S    
O11   C59   A    
C9    H7    S    
C68   H51   S    
C10   H8    S    
H25   C53   S    
C48   C50   S    
C75   C76   S    
C33   C39   A    
C34   C40   A    
C46   H34   S    
O20   V3    S    
C18   C26   A    
C55   I1    S    
C50   C59   S    
C41   H17   S    
C49   C60   S    
C8    C38   A    
C26   C63   S    
C46   C54   S    
C62   H36   S    
C16   C18   A    
C70   H57   S    
C6    C14   A    
C4    C5    S    
C42   C44   S    
O13   V3    S    
C19   C21   A    
C41   C43   S    
C53   C69   S    
C12   C75   S    
O16   C60   A    
C22   C24   A    
C41   C49   S    
C62   H37   S    
O15   C59   A    
C8    C57   S    
C7    C58   S    
O19   V4    S    
O6    V2    S    
C36   C38   A    
C71   H64   S    
C65   H48   S    
C51   C53   S    
C28   H14   S    
O14   V4    S    
C43   H19   S    
O16   V4    S    
C30   C32   A    
C66   H47   S    
C73   H69   S    
C35   H15   S    
C55   H31   S    
C40   H2    S    
C11   C73   S    
C75   H73   S    
C47   C49   S    
C76   H72   S    
H26   C54   S    
C15   C19   A    
C16   C20   A    
C67   C68   S    
C35   C37   A    
C48   H28   S    
C68   H52   S    
C67   H54   S    
O8    V2    S    
C47   H27   S    
C66   H46   S    
C32   C34   A    
C37   H3    S    
C9    C17   A    
C38   H4    S    
C39   H1    S    
C20   C22   A    
O4    V2    S    
C69   H58   S    
C64   H41   S    
C10   C18   A    
O18   V4    S    
O13   C57   A    
C7    C37   A    
C25   C61   S    
C63   H44   S    
O6    C4    A    
C2    C51   S    
C45   C53   S    
O1    V2    S    
C13   H9    S    
C36   H16   S    
C52   C54   S    
O2    V1    S    
C31   C33   A    
O12   C60   A    
C22   C34   A    
C61   H39   S    
O4    C2    A    
C71   H63   S    
C65   H49   S    
C72   H62   S    
C56   H32   S    
C9    C11   A    
C65   C66   S    
C70   H56   S    
O11   V4    S    
C64   H40   S    
C51   C55   S    
O3    V1    S    
C62   H35   S    
O14   C58   A    
O12   V3    S    
C71   C72   S    
C41   C65   S    
C45   H33   S    
C23   C25   A    
C70   H55   S    
C74   H67   S    
C29   C31   A    
C46   C50   S    
C28   C30   A    
O3    C1    A    
C67   H53   S    
C42   H18   S    
C61   C62   S    
C66   H45   S    
C13   C15   A    
C27   H13   S    
C14   C16   A    
C58   O17   A    
O17   V3    S    
C5    C13   A    
C24   C26   A    
C73   H68   S    
C69   H59   S    
C64   H42   S    
C29   H5    S    
C1    O8    A    
C8    C40   A    
C48   H30   S    
C68   H50   S    
H23   C45   S    
C54   C71   S    
C56   I2    S    
C63   H43   S    
C63   C64   S    
O5    V1    S    
C21   C23   A    
C19   C27   A    
C10   C12   A    
C20   C28   A    
C14   H10   S    
C48   C56   S    
C47   C55   S    
C7    C39   A    
C72   H61   S    
C44   H22   S    
O9    V2    S    
C17   C25   A    
C43   H21   S    
O10   V1    S    
C23   H11   S    
C42   C50   S    
C69   C70   S    
C31   C35   A    
C32   C36   A    
O7    V1    S    
