data_mof_unit_64943.cif
_audit_creation_date              2013-03-05T15:44:15-0500
_audit_creation_method            fapswitch 2.2
_symmetry_space_group_name_H-M    P1
_symmetry_Int_Tables_number       1
_space_group_crystal_system       triclinic
_cell_length_a                    10.054376
_cell_length_b                    10.751208
_cell_length_c                    13.623276
_cell_angle_alpha                 90.040914
_cell_angle_beta                  82.980413
_cell_angle_gamma                 89.915672
_cell_volume                      1461.59062876

loop_
_atom_site_label
_atom_site_type_symbol
_atom_site_description
_atom_site_fract_x
_atom_site_fract_y
_atom_site_fract_z
_atom_type_partial_charge
O1    O     O_R   0.386960 0.680940 0.500020 -0.562013
O2    O     O_R   0.613100 0.680900 0.499980 -0.603459
C1    C     C_R   0.499705 0.737232 0.502193 0.928023
O3    O     O_R   0.370650 0.500000 0.640370 -0.576863
O4    O     O_R   0.596800 0.499960 0.640330 -0.615642
C2    C     C_R   0.475973 0.500035 0.685643 0.888506
Zn1   Zn    Zn3+2 0.349000 0.500030 0.500020 1.046215
Zn2   Zn    Zn3+2 0.651000 0.499970 0.499980 0.974771
O5    O     O_R   0.386900 0.319100 0.500020 -0.630786
O6    O     O_R   0.613040 0.319060 0.499980 -0.619321
O7    O     O_R   0.403200 0.500040 0.359670 -0.613554
O8    O     O_R   0.629350 0.500000 0.359630 -0.612192
C3    C     C_R   0.500486 0.262775 0.497894 0.916428
C4    C     C_R   0.524022 0.500057 0.314360 0.880583
C5    C     C_1   0.542283 0.500004 0.210515 -0.163713
C6    C     C_2   0.557775 0.499942 0.018775 -0.156093
C7    C     C_2   0.442174 0.500278 0.981238 -0.155084
C8    C     C_1   0.445942 0.500219 0.877328 0.023708
C9    C     C_1   0.554017 0.499964 0.122683 0.017049
C10   C     C_1   0.457696 0.500137 0.789494 -0.148338
H1    H     H_    0.346215 0.500575 0.027720 0.165508
H2    H     H_    0.653733 0.499640 0.972293 0.166521
C11   C     C_2   0.611523 0.066812 0.503480 -0.151646
C12   C     C_2   0.502140 0.131236 0.488786 -0.321984
H3    H     H_    0.703106 0.112394 0.518954 0.182454
H4    H     H_    0.412381 0.088666 0.467344 0.157247
C13   C     C_2   0.612475 0.932932 0.497667 -0.149961
C14   C     C_2   0.498132 0.868784 0.511417 -0.314514
H5    H     H_    0.709290 0.887126 0.482901 0.199625
H6    H     H_    0.401094 0.911567 0.532229 0.171538
C15   C     C_2   0.083296 0.436781 0.438026 -0.065851
N1    N     N_2   0.147970 0.498670 0.498970 -0.002234
H7    H     H_    0.137921 0.368031 0.390625 0.119954
C16   C     C_2   0.936440 0.452416 0.429189 -0.083092
N2    N     N_2   0.852310 0.498640 0.498940 -0.168879
H8    H     H_    0.899150 0.418523 0.362726 0.149346
H9    H     H_    0.885140 0.511514 0.566775 0.208977
N3    N     N_R   0.094194 0.612718 0.532569 0.283640
O9    O     O_R   0.113084 0.650450 0.620475 -0.375078
O10   O     O_R   0.057700 0.693815 0.470002 -0.389796

loop_
_geom_bond_atom_site_label_1
_geom_bond_atom_site_label_2
_geom_bond_distance
_ccdc_geom_bond_type
O4    Zn2   1.923056 S    
N3    O10   1.303043 A    
C11   C12   1.334575 D    
C15   H7    1.084625 S    
C11   C13   1.441449 S    
C13   H5    1.086789 S    
C2    C10   1.404218 S    
C8    C10   1.187946 T    
C15   N1    1.298970 D    
Zn2   O8    1.950629 S    
C14   H6    1.083866 S    
O2    C1    1.287287 A    
C15   C16   1.505218 S    
O1    Zn1   1.982644 S    
Zn1   O7    1.923056 S    
O4    C2    1.293686 A    
O3    Zn1   1.950630 S    
O3    C2    1.288967 A    
C1    C14   1.419714 S    
N2    H9    1.027941 S    
O8    C4    1.288984 A    
C7    C8    1.411471 S    
C16   H8    1.084471 S    
N1    N3    1.393575 S    
C11   H3    1.086795 S    
C6    C9    1.411447 S    
N3    O9    1.299977 A    
O7    C4    1.293625 A    
O2    Zn2   1.981640 S    
Zn2   O6    1.982645 S    
C16   N2    1.291147 D    
C13   C14   1.335027 D    
Zn1   O5    1.981639 S    
O5    C3    1.289048 A    
C4    C5    1.404147 S    
C6    H2    1.087426 S    
Zn1   N1    2.023103 S    
C5    C9    1.187921 T    
O6    C3    1.287433 A    
C7    H1    1.087433 S    
C3    C12   1.419444 S    
C12   H4    1.083847 S    
C6    C7    1.325796 D    
O1    C1    1.289324 A    
Zn2   N2    2.022392 S    
