data_mof_unit_34144.cif
_audit_creation_date              2012-12-10T17:38:46-0500
_audit_creation_method            fapswitch 2.2
_symmetry_space_group_name_H-M    P1
_symmetry_Int_Tables_number       1
_space_group_crystal_system       triclinic
_cell_length_a                    12.386908
_cell_length_b                    13.217785
_cell_length_c                    23.514652
_cell_angle_alpha                 75.880635
_cell_angle_beta                  101.493467
_cell_angle_gamma                 117.401963
_cell_volume                      3297.80314181

loop_
_atom_site_label
_atom_site_type_symbol
_atom_type_description
_atom_site_fract_x
_atom_site_fract_y
_atom_site_fract_z
_atom_type_partial_charge
C1    C     C_R   0.855356 0.286769 0.503729 0.801468
C2    C     C_R   0.918889 0.288946 0.049027 0.250810
C3    C     C_R   0.923783 0.292376 0.989650 -0.235554
C4    C     C_R   0.964287 0.397396 0.950001 -0.032132
C5    C     C_R   0.002062 0.501982 0.969925 -0.068986
C6    C     C_R   0.042686 0.608320 0.929829 -0.042818
C7    C     C_R   0.082247 0.712986 0.950945 0.251308
C8    C     C_R   0.077095 0.709531 0.010297 -0.235575
C9    C     C_R   0.966310 0.399750 0.890349 0.542944
C10   C     C_R   0.040822 0.605396 0.869926 0.538069
C11   C     C_R   0.085792 0.473263 0.773458 -0.107963
C12   C     C_R   0.000581 0.500374 0.608881 0.794537
C13   C     C_R   0.085112 0.472691 0.714183 -0.214645
C14   C     C_R   0.001599 0.501038 0.671516 -0.047795
C15   C     C_R   0.919071 0.530134 0.689269 -0.242375
C16   C     C_R   0.919767 0.530354 0.748559 -0.099983
C17   C     C_R   0.003148 0.502049 0.790833 0.353882
C18   C     C_R   0.911202 0.522485 0.226828 -0.108534
C19   C     C_R   0.911675 0.522717 0.286129 -0.224174
C20   C     C_R   0.999399 0.500393 0.328397 -0.032791
C21   C     C_R   0.086511 0.477868 0.310212 -0.217886
C22   C     C_R   0.085673 0.477526 0.250905 -0.108250
C23   C     C_R   0.145511 0.713875 0.490607 0.797825
C24   C     C_R   0.998075 0.499801 0.209077 0.357210
C25   C     C_R   0.282410 0.024029 0.413869 -0.183186
C26   C     C_R   0.230203 0.836140 0.476051 -0.052702
C27   C     C_R   0.815380 0.082072 0.539429 -0.184378
C28   C     C_R   0.736192 0.965184 0.548973 -0.140260
C29   C     C_R   0.614070 0.927988 0.526653 -0.180617
C30   C     C_R   0.569944 0.007548 0.491759 0.078349
C31   C     C_R   0.655167 0.123619 0.474804 0.074319
C32   C     C_R   0.443979 0.975940 0.473481 0.073756
C33   C     C_R   0.406969 0.054906 0.432132 0.157547
C34   C     C_R   0.000006 0.500450 0.391065 0.778590
C35   C     C_R   0.494785 0.163210 0.409249 -0.251105
C36   C     C_R   0.617389 0.197301 0.430218 -0.198851
C37   C     C_R   0.353344 0.869087 0.496575 -0.243964
C38   C     C_R   0.194345 0.914628 0.435364 -0.188740
C39   C     C_R   0.775229 0.162877 0.503976 -0.115170
C40   C     C_R   0.373839 0.388266 0.613686 0.165319
C41   C     C_R   0.752551 0.633084 0.414601 0.064953
C42   C     C_R   0.653954 0.660188 0.394381 -0.254582
C43   C     C_R   0.555260 0.613917 0.427583 -0.172992
C44   C     C_R   0.554560 0.540877 0.482369 -0.032637
C45   C     C_R   0.034394 0.602107 0.109586 0.543360
C46   C     C_R   0.657583 0.514418 0.502035 0.253876
C47   C     C_R   0.454347 0.491614 0.518085 -0.083660
C48   C     C_R   0.470306 0.439775 0.577461 0.095806
C49   C     C_R   0.579229 0.432099 0.598722 -0.318539
C50   C     C_R   0.656078 0.443852 0.559306 0.219280
C51   C     C_R   0.338493 0.491051 0.497754 0.014787
C52   C     C_R   0.261467 0.386844 0.589890 0.005843
C53   C     C_R   0.960856 0.396568 0.130084 0.537955
C54   C     C_R   0.958639 0.393616 0.070154 -0.043255
C55   C     C_R   0.999098 0.499950 0.030042 -0.068882
C56   C     C_R   0.036661 0.604518 0.049951 -0.033001
Cu1   Cu    Cu3+1 0.098270 0.475410 0.513370 0.935255
Cu2   Cu    Cu3+1 0.901730 0.524590 0.486630 0.947180
H1    H     H_    0.843414 0.540317 0.298790 0.153920
H2    H     H_    0.155299 0.460498 0.341709 0.154750
H3    H     H_    0.153241 0.460230 0.237338 0.136872
H4    H     H_    0.099287 0.889958 0.418544 0.152375
H5    H     H_    0.253445 0.083570 0.382011 0.140279
H6    H     H_    0.907550 0.109471 0.561183 0.157698
H7    H     H_    0.893292 0.211408 0.974525 0.186173
H8    H     H_    0.682025 0.281817 0.410954 0.174015
H9    H     H_    0.187222 0.349224 0.617351 0.132416
H10   H     H_    0.590291 0.388864 0.643516 0.195752
H11   H     H_    0.320184 0.533017 0.454025 0.126667
H12   H     H_    0.828406 0.669620 0.388233 0.128210
H13   H     H_    0.482289 0.639521 0.410378 0.138565
H14   H     H_    0.654123 0.717578 0.352719 0.150398
H15   H     H_    0.107359 0.790475 0.025406 0.186213
H16   H     H_    0.150664 0.451547 0.805954 0.137431
H17   H     H_    0.149811 0.449955 0.701872 0.147722
H18   H     H_    0.854037 0.552871 0.657446 0.159313
H19   H     H_    0.843156 0.539581 0.194618 0.136645
N1    N     N_R   0.997425 0.499450 0.148102 -0.474829
N2    N     N_R   0.003787 0.502447 0.851842 -0.474456
N3    N     N_R   0.246280 0.438190 0.533650 -0.197965
N4    N     N_R   0.754320 0.561190 0.466710 -0.198280
O1    O     O_R   0.972510 0.318130 0.516820 -0.578375
O2    O     O_2   0.927463 0.298157 0.170335 -0.507139
O3    O     O_2   0.929554 0.299938 0.870682 -0.547372
O4    O     O_2   0.075170 0.703946 0.829780 -0.508996
O5    O     O_R   0.806530 0.359650 0.494230 -0.539938
O6    O     O_R   0.082990 0.479200 0.593420 -0.590793
O7    O     O_R   0.917010 0.520720 0.570830 -0.572063
O8    O     O_R   0.193470 0.640350 0.505770 -0.577458
O9    O     O_R   0.027490 0.681870 0.483180 -0.582523
O10   O     O_R   0.082990 0.479280 0.429170 -0.585031
O11   O     O_R   0.917010 0.520800 0.406580 -0.603744
O12   O     O_2   0.070310 0.701779 0.129230 -0.545152
N5    N     N_2   0.872202 0.179208 0.086589 -0.374560
H20   H     H_    0.899629 0.121645 0.078498 0.246039
C57   C     C_3   0.741478 0.128227 0.089061 -0.596980
H21   H     H_    0.692408 0.107815 0.045309 0.197688
H22   H     H_    0.715265 0.188201 0.102548 0.243882
H23   H     H_    0.713359 0.046905 0.121978 0.227083
H24   H     H_    0.468346 0.222972 0.376103 0.151563
H25   H     H_    0.376223 0.808910 0.530668 0.149915
H26   H     H_    0.557132 0.836199 0.536294 0.133678
H27   H     H_    0.768489 0.903453 0.575793 0.146779
N6    N     N_2   0.389383 0.339132 0.673990 -0.447777
H28   H     H_    0.356132 0.365641 0.701610 0.248491
C58   C     C_3   0.344464 0.214642 0.684852 -0.688582
H29   H     H_    0.243535 0.172559 0.674590 0.221842
H30   H     H_    0.367591 0.184374 0.731976 0.237767
H31   H     H_    0.387476 0.188421 0.657575 0.234441
N7    N     N_2   0.699750 0.357714 0.573478 -0.354910
H32   H     H_    0.746865 0.356338 0.614909 0.242008
C59   C     C_3   0.604361 0.242107 0.569100 -0.653597
H33   H     H_    0.645217 0.180005 0.578952 0.222525
H34   H     H_    0.554296 0.240160 0.524376 0.248341
H35   H     H_    0.538390 0.213003 0.601941 0.203442
N8    N     N_2   0.128670 0.822723 0.913359 -0.374538
H36   H     H_    0.100673 0.879990 0.921316 0.245897
C60   C     C_3   0.259489 0.874288 0.911067 -0.599313
H37   H     H_    0.287385 0.955516 0.878078 0.225195
H38   H     H_    0.286354 0.814571 0.897776 0.244276
H39   H     H_    0.308195 0.894993 0.954831 0.198202
H40   H     H_    0.855429 0.552404 0.761749 0.141655

loop_
_geom_bond_atom_site_label_1
_geom_bond_atom_site_label_2
_ccdc_geom_bond_type
C30   C32   A    
C55   C56   A    
C10   O4    S    
C49   H10   S    
C41   C42   A    
C35   C36   A    
C50   N7    S    
C45   O12   S    
C8    C56   A    
N6    C58   S    
C7    C8    A    
C53   C54   A    
Cu1   O8    S    
C18   C24   A    
C28   C29   A    
C31   C36   A    
C9    N2    A    
C5    C6    A    
C36   H8    S    
C58   H29   S    
C15   C16   A    
C57   H23   S    
C17   N2    S    
N8    H36   S    
C18   C19   A    
C25   H5    S    
C23   C26   S    
C16   H40   S    
C34   O10   A    
N6    H28   S    
C60   H37   S    
C13   H17   S    
C45   C56   A    
C27   C39   A    
C16   C17   A    
C57   H22   S    
C23   O8    A    
C45   N1    A    
C44   C47   A    
C20   C34   S    
C15   H18   S    
C13   C14   A    
Cu1   N3    S    
C3    H7    S    
Cu2   O5    S    
C59   H34   S    
C59   H33   S    
C44   C46   A    
N7    C59   S    
C12   O7    A    
C2    N5    S    
C21   H2    S    
C2    C54   A    
Cu2   N4    S    
N7    H32   S    
C26   C38   A    
C47   C51   A    
C19   H1    S    
C1    O1    A    
C40   C52   A    
Cu1   O6    S    
C60   H39   S    
C7    N8    S    
C43   C44   A    
C29   C30   A    
C25   C38   A    
C40   N6    S    
C46   N4    A    
C47   C48   A    
C41   N4    A    
C57   H21   S    
C42   H14   S    
C23   O9    A    
C32   C37   A    
N5    C57   S    
Cu2   O9    S    
C52   H9    S    
C24   N1    S    
C48   C49   A    
C12   C14   S    
C22   C24   A    
C42   C43   A    
C35   H24   S    
C1    O5    A    
C40   C48   A    
C54   C55   A    
C11   C17   A    
C43   H13   S    
Cu1   O10   S    
C12   O6    A    
Cu1   O1    S    
C5    C55   A    
C4    C5    A    
C11   H16   S    
Cu2   O7    S    
C6    C10   A    
C10   N2    A    
C26   C37   A    
C6    C7    A    
C46   C50   A    
C53   O2    S    
C32   C33   A    
C19   C20   A    
C2    C3    A    
C52   N3    A    
C22   H3    S    
C37   H25   S    
C11   C13   A    
C28   H27   S    
Cu1   Cu2   S    
C30   C31   A    
C58   H30   S    
C18   H19   S    
C51   N3    A    
C8    H15   S    
C33   C35   A    
N8    C60   S    
C29   H26   S    
C53   N1    A    
N5    H20   S    
C60   H38   S    
C27   H6    S    
C1    C39   S    
C9    O3    S    
C20   C21   A    
C49   C50   A    
C27   C28   A    
C31   C39   A    
C14   C15   A    
C51   H11   S    
C4    C9    A    
C21   C22   A    
Cu2   O11   S    
C58   H31   S    
C59   H35   S    
C3    C4    A    
C25   C33   A    
C41   H12   S    
C38   H4    S    
C34   O11   A    
