data_mof_unit_26047.cif
_audit_creation_date              2012-12-11T15:12:34-0500
_audit_creation_method            fapswitch 2.2
_symmetry_space_group_name_H-M    P1
_symmetry_Int_Tables_number       1
_space_group_crystal_system       triclinic
_cell_length_a                    8.20695
_cell_length_b                    17.521837
_cell_length_c                    19.100986
_cell_angle_alpha                 95.662588
_cell_angle_beta                  94.492921
_cell_angle_gamma                 96.086499
_cell_volume                      2706.96038796

loop_
_atom_site_label
_atom_site_type_symbol
_atom_type_description
_atom_site_fract_x
_atom_site_fract_y
_atom_site_fract_z
_atom_type_partial_charge
Ba1   Ba    Ba6+2 0.157360 0.537160 0.466280 1.676705
Ba2   Ba    Ba6+2 0.652820 0.462830 0.533660 1.646392
C1    C     C_3   0.432952 0.723512 0.207321 -0.226773
C2    C     C_R   0.856643 0.747157 0.513448 0.071206
C3    C     C_R   0.910554 0.827804 0.524935 -0.128367
C4    C     C_3   0.924961 0.761799 0.308231 0.281526
C5    C     C_R   0.808291 0.882955 0.501951 -0.006503
C6    C     C_R   0.648334 0.856209 0.471388 -0.042728
C7    C     C_R   0.596729 0.776774 0.457784 0.024304
C8    C     C_R   0.876497 0.174848 0.486239 -0.093029
C9    C     C_R   0.939680 0.254411 0.493012 0.069415
C10   C     C_R   0.186626 0.225057 0.557640 0.005841
C11   C     C_R   0.123764 0.146679 0.552595 -0.141730
C12   C     C_3   0.421617 0.700486 0.281256 0.448865
C13   C     C_R   0.967198 0.120037 0.517530 -0.008094
C14   C     C_1   0.907595 0.036575 0.511889 0.042387
C15   C     C_1   0.863676 0.966714 0.508173 0.045833
C16   C     C_3   0.947427 0.841731 0.278374 0.688013
C17   C     C_R   0.091842 0.278242 0.530118 -0.290070
C18   C     C_R   0.616597 0.536267 0.299070 -0.257322
C19   C     C_R   0.459488 0.497694 0.277855 0.085956
C20   C     C_R   0.395206 0.495632 0.206921 -0.069082
C21   C     C_R   0.489924 0.529067 0.156512 -0.001834
C22   C     C_R   0.650981 0.566168 0.179348 -0.031686
C23   C     C_3   0.531795 0.699811 0.639176 0.299431
C24   C     C_R   0.714864 0.569880 0.250492 0.032171
C25   C     C_R   0.459062 0.578295 0.036892 -0.069116
C26   C     C_R   0.406947 0.568864 0.964578 -0.057539
C27   C     C_R   0.324955 0.498463 0.932019 0.047223
C28   C     C_3   0.794256 0.351849 0.310850 0.211529
C29   C     C_R   0.294367 0.437687 0.973777 -0.052668
C30   C     C_R   0.343864 0.447650 0.046701 -0.028248
C31   C     C_R   0.428572 0.518346 0.079421 0.051156
C32   C     C_R   0.118290 0.449695 0.827661 -0.139164
C33   C     C_R   0.071519 0.441975 0.754936 0.021932
C34   C     C_3   0.530590 0.786046 0.659701 -0.372307
C35   C     C_R   0.333181 0.509981 0.733868 0.028260
C36   C     C_R   0.378862 0.519640 0.806791 -0.113573
C37   C     C_R   0.273734 0.488409 0.854489 -0.008881
C38   C     C_R   0.180293 0.470538 0.708341 -0.283957
C39   C     C_3   0.846158 0.316006 0.240930 0.319343
C40   C     C_3   0.031866 0.637031 0.683567 0.293912
C41   C     C_3   0.028437 0.662598 0.762177 -0.365976
C42   C     C_3   0.275740 0.300557 0.369385 0.283958
C43   C     C_3   0.280446 0.215492 0.344622 -0.328205
C44   C     C_3   0.884476 0.253171 0.687894 0.375724
C45   C     C_3   0.869372 0.171543 0.709697 -0.352717
C46   C     C_3   0.404041 0.288312 0.726834 0.364261
C47   C     C_3   0.425189 0.260725 0.800029 -0.336612
C48   C     C_R   0.701254 0.723193 0.478453 -0.306013
H1    H     H_    0.339677 0.645509 0.278436 0.043550
H2    H     H_    0.362436 0.316427 0.417270 0.062924
H3    H     H_    0.314314 0.704895 0.174518 0.136995
H4    H     H_    0.187006 0.197005 0.298813 0.135017
H5    H     H_    0.253822 0.179857 0.388294 0.075267
H6    H     H_    0.404293 0.206188 0.327508 0.141227
H7    H     H_    0.545934 0.690194 0.302665 -0.110330
H8    H     H_    0.532121 0.696424 0.181626 0.025916
H9    H     H_    0.657369 0.688613 0.627481 0.012003
H10   H     H_    0.444220 0.682624 0.591646 0.050829
H11   H     H_    0.623253 0.806465 0.705332 0.128891
H12   H     H_    0.767698 0.260094 0.225332 0.061817
H13   H     H_    0.560347 0.818357 0.614347 0.048242
H14   H     H_    0.406768 0.797944 0.674992 0.129630
H15   H     H_    0.465182 0.786539 0.209007 0.243948
H16   H     H_    0.818728 0.252434 0.634542 0.072807
H17   H     H_    0.016115 0.272532 0.684820 -0.072856
H18   H     H_    0.759925 0.136748 0.680419 0.114530
H19   H     H_    0.980712 0.143525 0.696779 0.067739
H20   H     H_    0.857251 0.171979 0.767406 0.145720
H21   H     H_    0.272610 0.293580 0.714688 -0.077095
H22   H     H_    0.473172 0.346543 0.728037 0.085229
H23   H     H_    0.975823 0.305453 0.247569 0.032977
H24   H     H_    0.318903 0.273908 0.830551 0.069296
H25   H     H_    0.539469 0.290368 0.830022 0.128074
H26   H     H_    0.973184 0.769546 0.364746 0.001755
H27   H     H_    0.431230 0.197332 0.796355 0.140553
H28   H     H_    0.759845 0.156185 0.455945 0.112520
H29   H     H_    0.566166 0.896957 0.454942 0.111275
H30   H     H_    0.029662 0.847349 0.552420 0.082575
H31   H     H_    0.658772 0.662207 0.469784 0.071090
H32   H     H_    0.141794 0.338112 0.533726 0.068797
H33   H     H_    0.495846 0.552072 0.825645 0.078923
H34   H     H_    0.156227 0.623271 0.673596 0.003894
H35   H     H_    0.429056 0.617063 0.933976 0.076458
H36   H     H_    0.521519 0.633309 0.059548 0.088960
H37   H     H_    0.794452 0.741177 0.305272 -0.048221
H38   H     H_    0.234278 0.382013 0.949633 0.077583
H39   H     H_    0.318611 0.399002 0.076605 0.088606
H40   H     H_    0.032479 0.427463 0.862995 0.087242
H41   H     H_    0.728256 0.589924 0.141588 0.098805
H42   H     H_    0.143096 0.465731 0.652150 0.067416
H43   H     H_    0.664730 0.536990 0.353378 0.059614
H44   H     H_    0.051963 0.877316 0.310719 -0.007422
H45   H     H_    0.940458 0.585782 0.668737 0.061213
H46   H     H_    0.663507 0.364301 0.304773 0.044269
H47   H     H_    0.576466 0.374467 0.120429 0.355337
H48   H     H_    0.664277 0.956160 0.204699 0.379414
H49   H     H_    0.198159 0.105840 0.574144 0.078391
H50   H     H_    0.274614 0.465230 0.190542 0.132539
H51   H     H_    0.234715 0.856929 0.144906 0.364090
H52   H     H_    0.874572 0.405863 0.330093 0.053510
H53   H     H_    0.128370 0.710353 0.779724 0.128615
H54   H     H_    0.045797 0.613803 0.793793 0.068626
H55   H     H_    0.908130 0.683678 0.772401 0.131960
H56   H     H_    0.149264 0.309779 0.381113 -0.021667
O1    O     O_2   0.143190 0.684560 0.534150 -0.460854
O2    O     O_2   0.730618 0.442847 0.746801 -0.487833
O3    O     O_3   0.817311 0.302911 0.737178 -0.590789
O4    O     O_3   0.882350 0.590230 0.535560 -0.492739
O5    O     O_3   0.431150 0.462160 0.416880 -0.498587
O6    O     O_2   0.634060 0.535220 0.669530 -0.450994
O7    O     O_3   0.485714 0.660861 0.696342 -0.641459
O8    O     O_2   0.518750 0.223857 0.542696 -0.487496
O9    O     O_3   0.460564 0.235973 0.675969 -0.587406
O10   O     O_3   0.372640 0.639320 0.408320 -0.505877
O11   O     O_2   0.249658 0.769691 0.449071 -0.491306
O12   O     O_3   0.320372 0.342593 0.314255 -0.621725
O13   O     O_3   0.995522 0.698636 0.646499 -0.638574
O14   O     O_3   0.361188 0.758910 0.324793 -0.515468
O15   O     O_2   0.176230 0.464730 0.330450 -0.459356
O16   O     O_3   0.952380 0.601530 0.373300 -0.487584
O17   O     O_2   0.060755 0.564160 0.253585 -0.423699
O18   O     O_2   0.934748 0.444721 0.181149 -0.287900
O19   O     O_2   0.845875 0.327449 0.101888 -0.294462
O20   O     O_3   0.624337 0.392953 0.169277 -0.583094
O21   O     O_2   0.646874 0.852616 0.327391 -0.358724
O22   O     O_2   0.821742 0.972714 0.323430 -0.320374
O23   O     O_3   0.010249 0.707064 0.271539 -0.556659
O24   O     O_3   0.671734 0.900291 0.206396 -0.462082
O25   O     O_2   0.917876 0.762881 0.146466 -0.286467
O26   O     O_2   0.953710 0.904066 0.153436 -0.240190
O27   O     O_3   0.205533 0.837429 0.189898 -0.520098
O28   O     O_2   0.667110 0.315390 0.465830 -0.449055
O29   O     O_3   0.927950 0.409760 0.464380 -0.495489
O30   O     O_3   0.437660 0.360670 0.591630 -0.478888
O31   O     O_3   0.806375 0.294219 0.355532 -0.671535
O32   O     O_3   0.379150 0.537830 0.583060 -0.482586
O33   O     O_3   0.857920 0.398470 0.626650 -0.491917
P1    P     P_3+3 0.970290 0.672580 0.555000 0.993718
P2    P     P_3+3 0.347000 0.441860 0.341200 1.008834
P3    P     P_3+3 0.929933 0.612113 0.283734 1.038008
P4    P     P_3+3 0.840010 0.327410 0.444950 0.986891
P5    P     P_3+3 0.867344 0.397670 0.718164 0.962801
P6    P     P_3+3 0.394190 0.739128 0.412246 1.023658
P7    P     P_3+3 0.456351 0.560914 0.671924 0.950171
P8    P     P_3+3 0.399810 0.260297 0.591572 0.953607
S1    S     S_3+6 0.818381 0.372391 0.170452 -0.115451
S2    S     S_3+6 0.768823 0.893237 0.285988 -0.077838
S3    S     S_3+6 0.000698 0.835847 0.188299 0.004646

loop_
_geom_bond_atom_site_label_1
_geom_bond_atom_site_label_2
_ccdc_geom_bond_type
C18   H43   S    
C36   H33   S    
O26   S3    D    
C34   H14   S    
O12   P2    S    
C8    H28   S    
C5    C6    A    
C25   C31   A    
O18   S1    D    
C9    C17   A    
Ba2   O28   S    
O13   P1    S    
C10   P8    S    
C26   C27   A    
C22   C24   A    
O8    P8    D    
C32   C33   A    
C35   C38   A    
C8    C13   A    
C36   C37   A    
C40   O13   S    
C13   C14   S    
O9    P8    S    
C10   C17   A    
O11   P6    D    
Ba1   Ba2   S    
C41   H55   S    
O1    P1    D    
C41   H54   S    
C45   H19   S    
C28   H46   S    
O28   P4    D    
Ba1   O16   S    
C30   H39   S    
C43   H6    S    
C47   H27   S    
C14   C15   T    
C5    C15   S    
C6    H29   S    
C21   C22   A    
C47   H25   S    
C28   C39   S    
Ba1   O10   S    
C35   P7    S    
C34   H13   S    
C33   P5    S    
C42   H2    S    
O29   P4    S    
O31   P4    S    
O14   P6    S    
C28   O31   S    
C19   C20   A    
Ba2   P4    S    
C27   C37   S    
C1    H15   S    
C39   H12   S    
C46   H22   S    
C4    O23   S    
C42   H56   S    
Ba1   O15   S    
C4    C16   S    
Ba2   O5    S    
C20   H50   S    
O27   S3    S    
C40   H45   S    
Ba2   O32   S    
O15   P2    D    
C40   H34   S    
C3    C5    A    
O20   S1    S    
C6    C7    A    
O23   P3    S    
C21   C31   S    
Ba2   O30   S    
C4    H37   S    
C32   C37   A    
C2    C48   A    
O7    P7    S    
C11   H49   S    
C25   H36   S    
C32   H40   S    
C45   H20   S    
C35   C36   A    
C23   O7    S    
Ba1   O4    S    
C2    P1    S    
O33   P5    S    
C12   H1    S    
C42   O12   S    
Ba2   O6    S    
H48   O24   S    
O24   S2    S    
C38   H42   S    
C3    H30   S    
Ba1   P1    S    
C1    C12   S    
C28   H52   S    
Ba1   O1    S    
C46   O9    S    
C46   C47   S    
C23   H10   S    
C43   H4    S    
C12   O14   S    
C11   C13   A    
C16   H44   S    
C40   C41   S    
Ba2   O33   S    
C46   H21   S    
C34   H11   S    
C17   H32   S    
C22   H41   S    
C45   H18   S    
O2    P5    D    
C42   C43   S    
C12   H7    S    
C44   C45   S    
Ba2   O4    S    
C29   H38   S    
C18   C19   A    
C47   H24   S    
C29   C30   A    
C7    C48   A    
H47   O20   S    
O19   S1    D    
C44   H16   S    
C4    H26   S    
H51   O27   S    
Ba2   O29   S    
C30   C31   A    
C16   S2    S    
O4    P1    S    
C33   C38   A    
C19   P2    S    
C44   H17   S    
C27   C29   A    
C16   S3    S    
O21   S2    D    
C1    H3    S    
O10   P6    S    
C39   S1    S    
C18   C24   A    
O32   P7    S    
O17   P3    D    
C7    P6    S    
O6    P7    D    
O3    P5    S    
C41   H53   S    
O30   P8    S    
Ba1   P2    S    
C8    C9    A    
O5    P2    S    
C23   C34   S    
C39   H23   S    
C1    H8    S    
O22   S2    D    
C2    C3    A    
C10   C11   A    
C43   H5    S    
C44   O3    S    
Ba1   O29   S    
C26   H35   S    
O16   P3    S    
C20   C21   A    
O25   S3    D    
C23   H9    S    
C24   P3    S    
C9    P4    S    
Ba1   O5    S    
Ba1   O32   S    
C48   H31   S    
C25   C26   A    
