data_mof_unit_56669.cif
_audit_creation_date              2012-12-11T17:43:18-0500
_audit_creation_method            fapswitch 2.2
_symmetry_space_group_name_H-M    P1
_symmetry_Int_Tables_number       1
_space_group_crystal_system       triclinic
_cell_length_a                    15.142521
_cell_length_b                    14.993083
_cell_length_c                    17.226491
_cell_angle_alpha                 108.400881
_cell_angle_beta                  106.109178
_cell_angle_gamma                 108.995075
_cell_volume                      3178.28284208

loop_
_atom_site_label
_atom_site_type_symbol
_atom_type_description
_atom_site_fract_x
_atom_site_fract_y
_atom_site_fract_z
_atom_type_partial_charge
C1    C     C_R   0.085076 0.288088 0.078192 -0.096086
C2    C     C_R   0.910252 0.723938 0.978776 -0.080709
C3    C     C_R   0.030133 0.512603 0.729110 -0.026280
C4    C     C_R   0.968625 0.514529 0.271154 -0.014844
C5    C     C_R   0.683573 0.209382 0.738750 -0.027626
C6    C     C_R   0.330897 0.779769 0.250754 -0.035173
C7    C     C_R   0.300968 0.474782 0.981798 0.052102
C8    C     C_R   0.646490 0.445066 0.951735 0.052107
C9    C     C_R   0.904767 0.932879 0.056671 -0.203197
C10   C     C_R   0.088956 0.109694 0.116632 -0.181052
C11   C     C_R   0.997961 0.926210 0.080011 0.066193
C12   C     C_R   0.995601 0.110877 0.077852 0.059531
C13   C     C_R   0.091267 0.021328 0.124699 0.027504
C14   C     C_R   0.903250 0.027520 0.061424 0.040527
C15   C     C_R   0.710255 0.959360 0.998488 -0.115681
C16   C     C_R   0.198741 0.036725 0.271591 -0.079895
C17   C     C_R   0.633823 0.061647 0.067541 -0.055505
C18   C     C_R   0.384390 0.107842 0.325667 -0.111961
C19   C     C_R   0.488580 0.631445 0.276248 -0.107628
C20   C     C_R   0.482457 0.309567 0.653100 -0.124016
C21   C     C_R   0.482940 0.601246 0.188845 -0.143390
C22   C     C_R   0.479051 0.325318 0.736454 -0.138534
C23   C     C_R   0.938176 0.479765 0.736847 0.806032
C24   C     C_R   0.061076 0.537591 0.263422 0.827028
C25   C     C_R   0.468411 0.499434 0.138048 0.032403
C26   C     C_R   0.480108 0.418364 0.790461 0.035178
C27   C     C_R   0.460701 0.428424 0.176574 0.187318
C28   C     C_R   0.485702 0.496464 0.760075 0.195215
C29   C     C_R   0.465686 0.459372 0.263940 -0.148476
C30   C     C_R   0.489433 0.479866 0.676631 -0.108004
C31   C     C_R   0.479532 0.560532 0.313586 -0.089211
C32   C     C_R   0.487558 0.386644 0.623239 -0.097409
C33   C     C_R   0.545241 0.457684 0.033481 -0.161335
C34   C     C_R   0.389162 0.439247 0.888460 -0.157471
C35   C     C_R   0.551246 0.440122 0.951099 0.059775
C36   C     C_R   0.384957 0.458924 0.971720 0.057129
C37   C     C_R   0.474109 0.432365 0.877641 0.049747
C38   C     C_R   0.463533 0.468852 0.045549 0.058141
C39   C     C_R   0.622940 0.969839 0.002541 -0.018458
C40   C     C_R   0.295692 0.072837 0.340043 -0.089365
C41   C     C_R   0.959956 0.518971 0.352257 -0.154829
C42   C     C_R   0.038147 0.510804 0.648472 -0.159440
C43   C     C_R   0.054436 0.423954 0.514146 -0.136612
C44   C     C_R   0.942319 0.605535 0.486011 -0.135747
C45   C     C_R   0.727702 0.209998 0.819875 0.232417
C46   C     C_R   0.279272 0.783184 0.173740 0.205426
C47   C     C_R   0.068032 0.440327 0.601120 0.176967
C48   C     C_R   0.930420 0.589995 0.399251 0.183059
C49   C     C_R   0.999598 0.568417 0.612262 0.802658
C50   C     C_R   0.995742 0.459661 0.388076 0.758537
C51   C     C_R   0.984671 0.551402 0.525003 -0.174433
C52   C     C_R   0.011206 0.477487 0.475334 -0.148114
C53   C     C_R   0.607931 0.119817 0.657302 0.066962
C54   C     C_R   0.406164 0.869345 0.332309 0.073227
C55   C     C_R   0.584538 0.983480 0.428042 -0.157590
C56   C     C_R   0.429591 0.006440 0.561552 -0.159959
C57   C     C_R   0.507802 0.910372 0.343771 -0.210985
C58   C     C_R   0.506315 0.078881 0.645783 -0.190446
C59   C     C_R   0.376982 0.904068 0.402298 0.141370
C60   C     C_R   0.636949 0.084840 0.587606 0.156780
C61   C     C_R   0.454461 0.975339 0.488148 0.043757
C62   C     C_R   0.559548 0.014560 0.501390 0.050219
C63   C     C_R   0.732064 0.143057 0.128904 -0.095599
C64   C     C_R   0.376653 0.109213 0.243447 -0.033736
C65   C     C_R   0.819559 0.132374 0.125955 -0.131616
C66   C     C_R   0.280199 0.075587 0.175577 -0.130283
C67   C     C_R   0.270397 0.544870 0.961032 -0.085533
C68   C     C_R   0.701602 0.408103 0.999064 -0.109546
C69   C     C_R   0.809670 0.040562 0.060317 0.064733
C70   C     C_R   0.190361 0.038638 0.189012 0.045699
C71   C     C_R   0.735817 0.305546 0.743190 -0.098660
C72   C     C_R   0.273166 0.687487 0.249519 -0.060743
C73   C     C_R   0.254796 0.441874 0.032267 -0.098868
C74   C     C_R   0.707816 0.505883 0.924451 -0.121920
C75   C     C_R   0.110465 0.566093 0.813766 -0.169290
C76   C     C_R   0.888596 0.452053 0.186195 -0.214371
C77   C     C_R   0.915344 0.201847 0.998198 -0.079527
C78   C     C_R   0.082099 0.804927 0.053866 -0.076585
C79   C     C_R   0.998361 0.195580 0.050762 0.042599
C80   C     C_R   0.995854 0.821511 0.042804 0.042661
H1    H     H_    0.161118 0.317295 0.129811 0.104277
H2    H     H_    0.830431 0.708129 0.952400 0.106299
H3    H     H_    0.700138 0.888083 0.947008 0.148982
H4    H     H_    0.130900 0.012104 0.284486 0.144444
H5    H     H_    0.483432 0.584061 0.381150 0.140459
H6    H     H_    0.490327 0.374225 0.558728 0.131786
H7    H     H_    0.499965 0.709847 0.315196 0.132487
H8    H     H_    0.480866 0.237610 0.611221 0.128446
H9    H     H_    0.489781 0.657021 0.160648 0.141798
H10   H     H_    0.474746 0.264944 0.758904 0.132955
H11   H     H_    0.458664 0.404843 0.293386 0.146012
H12   H     H_    0.494311 0.539616 0.653252 0.155327
H13   H     H_    0.608045 0.469687 0.091350 0.152430
H14   H     H_    0.327556 0.432305 0.832901 0.174362
H15   H     H_    0.075902 0.368144 0.476760 0.211979
H16   H     H_    0.920722 0.661329 0.523197 0.215618
H17   H     H_    0.546742 0.906997 0.954852 0.162620
H18   H     H_    0.302381 0.075233 0.404904 0.140546
H19   H     H_    0.485993 0.106364 0.701141 0.165443
H20   H     H_    0.527996 0.882105 0.288351 0.168265
H21   H     H_    0.662800 0.012912 0.434635 0.182856
H22   H     H_    0.351551 0.977661 0.555373 0.187315
H23   H     H_    0.566128 0.069768 0.070230 0.153495
H24   H     H_    0.459124 0.134894 0.378582 0.126710
H25   H     H_    0.740495 0.214141 0.179323 0.133317
H26   H     H_    0.445487 0.137266 0.232596 0.152943
H27   H     H_    0.895037 0.195403 0.175344 0.176334
H28   H     H_    0.275277 0.079369 0.112911 0.168189
H29   H     H_    0.300005 0.591203 0.929039 0.139000
H30   H     H_    0.673320 0.350831 0.022938 0.135053
H31   H     H_    0.712607 0.333427 0.694228 0.193264
H32   H     H_    0.296449 0.656972 0.296442 0.184031
H33   H     H_    0.263969 0.389441 0.061172 0.123458
H34   H     H_    0.686592 0.541090 0.881077 0.121086
H35   H     H_    0.190625 0.612633 0.831224 0.165992
H36   H     H_    0.807110 0.413946 0.168994 0.154049
H37   H     H_    0.836244 0.147779 0.972651 0.150169
H38   H     H_    0.160954 0.860600 0.096173 0.144314
H39   H     H_    0.833609 0.864686 0.035696 0.131693
H40   H     H_    0.161601 0.177940 0.141802 0.133398
N1    N     N_R   0.055660 0.348550 0.045620 -0.050002
N2    N     N_R   0.944340 0.651450 0.954380 -0.048499
N3    N     N_R   0.960830 0.507850 0.823700 -0.122066
N4    N     N_R   0.039170 0.492150 0.176300 -0.125454
N5    N     N_R   0.811290 0.303410 0.871650 -0.067531
N6    N     N_R   0.188710 0.696590 0.128350 -0.068618
N7    N     N_R   0.205200 0.552990 0.997670 -0.041298
N8    N     N_R   0.794800 0.447010 0.002330 -0.040323
N9    N     N_R   0.814800 0.361830 0.823700 -0.061673
N10   N     N_R   0.185200 0.638170 0.176300 -0.062976
N11   N     N_R   0.201680 0.494570 0.045620 -0.054461
N12   N     N_R   0.798320 0.505430 0.954380 -0.048537
N13   N     N_R   0.068420 0.560530 0.871650 -0.080281
N14   N     N_R   0.931580 0.439470 0.128350 -0.082135
N15   N     N_R   0.948070 0.295860 0.997670 -0.043607
N16   N     N_R   0.051930 0.704140 0.002330 -0.042524
Ni1   Ni    Ni4+2 0.119340 0.493420 0.109960 0.244274
Ni2   Ni    Ni4+2 0.880660 0.506580 0.890040 0.262974
Ni3   Ni    Ni4+2 0.872590 0.372590 0.000000 0.232791
Ni4   Ni    Ni4+2 0.127410 0.627410 0.000000 0.255059
I1    I     I_    0.437326 0.272653 0.104977 -0.499123
I2    I     I_    0.495171 0.643364 0.838710 -0.479897
F1    F     F_    0.020142 0.388324 0.338893 -0.718819
F2    F     F_    0.972854 0.637447 0.661081 -0.679046
I3    I     I_    0.873258 0.678722 0.344359 -0.339890
I4    I     I_    0.125998 0.350834 0.654363 -0.359642
F3    F     F_    0.843473 0.443642 0.671417 -0.709447
F4    F     F_    0.155710 0.581790 0.331854 -0.698577
I5    I     I_    0.798143 0.137396 0.615663 -0.334807
I6    I     I_    0.215632 0.846779 0.377516 -0.389871
I7    I     I_    0.644210 0.111417 0.865357 -0.462476
I8    I     I_    0.355368 0.860475 0.110518 -0.491982

loop_
_geom_bond_atom_site_label_1
_geom_bond_atom_site_label_2
_ccdc_geom_bond_type
C46   I8    S    
C63   C65   A    
C3    C42   S    
C31   H5    S    
C74   N12   A    
C27   C29   A    
C34   C37   A    
C7    C36   S    
C3    C23   A    
C16   H4    S    
N16   Ni4   S    
C19   C31   A    
C73   N11   A    
C7    C73   A    
C21   H9    S    
C15   H3    S    
N5    Ni3   S    
N15   Ni3   S    
N3    Ni2   S    
N6    Ni4   S    
N3    N13   A    
C44   H16   S    
C5    C53   S    
C78   H38   S    
N8    Ni3   S    
C77   H37   S    
C40   H18   S    
C4    C24   A    
C78   C80   A    
C43   C52   A    
C39   H17   S    
C13   C70   S    
N6    N10   A    
N12   Ni2   S    
C74   H34   S    
C49   F2    S    
C24   N4    A    
C73   H33   S    
C60   C62   A    
C17   C39   A    
N1    Ni1   S    
C18   C40   A    
C33   C35   A    
C67   H29   S    
N9    Ni2   S    
C45   N5    A    
C49   C51   A    
C71   H31   S    
C50   C52   A    
C63   H25   S    
C3    C75   A    
C68   N8    A    
C60   I5    S    
C77   C79   A    
C47   I4    S    
C4    C41   S    
C6    C54   S    
N8    N12   A    
C53   C60   A    
N7    N11   A    
C54   C59   A    
C2    N2    A    
C15   C69   A    
C59   C61   A    
C51   C52   A    
N4    Ni1   S    
C16   C70   A    
N2    Ni2   S    
C30   H12   S    
C24   F4    S    
C66   H28   S    
N14   Ni3   S    
C76   N14   A    
C18   H24   S    
C57   H20   S    
C5    C45   A    
C45   I7    S    
C8    C35   S    
C64   C66   A    
C6    C72   A    
C9    C14   A    
N11   Ni1   S    
C67   N7    A    
C25   C38   S    
C71   N9    A    
C43   H15   S    
C32   H6    S    
C48   I3    S    
C8    C74   A    
C22   H10   S    
C1    H1    S    
C68   H30   S    
N1    N15   A    
C64   H26   S    
C9    C11   A    
C15   C39   A    
C10   C12   A    
C16   C40   A    
C44   C51   A    
C12   C14   A    
C8    C68   A    
C55   C57   A    
C9    H39   S    
C14   C69   S    
C2    H2    S    
C28   I2    S    
N7    Ni4   S    
N2    N16   A    
C41   C50   A    
C29   H11   S    
C50   F1    S    
C76   H36   S    
C20   C32   A    
C59   I6    S    
C65   C69   A    
C21   C25   A    
C6    C46   A    
C35   C37   A    
C46   N6    A    
C58   H19   S    
C34   H14   S    
C20   C22   A    
C43   C47   A    
C10   C13   A    
C33   H13   S    
C23   N3    A    
C53   C58   A    
C75   N13   A    
C26   C37   S    
C72   N10   A    
C25   C27   A    
C55   H21   S    
C26   C28   A    
C33   C38   A    
N4    N14   A    
C72   H32   S    
C28   C30   A    
C17   H23   S    
C19   H7    S    
C56   H22   S    
C29   C31   A    
C17   C63   A    
C30   C32   A    
C11   C13   A    
C18   C64   A    
C66   C70   A    
C23   F3    S    
C1    C79   A    
C20   H8    S    
C36   C38   A    
C27   I1    S    
C41   C48   A    
C56   C58   A    
C34   C36   A    
C42   C47   A    
C61   C62   A    
C1    N1    A    
C4    C76   A    
C2    C80   A    
C11   C80   S    
C42   C49   A    
C7    C67   A    
N5    N9    A    
C75   H35   S    
C55   C62   A    
N13   Ni4   S    
C5    C71   A    
C22   C26   A    
C56   C61   A    
C77   N15   A    
N10   Ni1   S    
C78   N16   A    
C65   H27   S    
C10   H40   S    
C44   C48   A    
C12   C79   S    
C19   C21   A    
C54   C57   A    
