data_mof_unit_56776.cif
_audit_creation_date              2012-12-11T15:22:20-0500
_audit_creation_method            fapswitch 2.2
_symmetry_space_group_name_H-M    P1
_symmetry_Int_Tables_number       1
_space_group_crystal_system       triclinic
_cell_length_a                    22.46098
_cell_length_b                    12.938484
_cell_length_c                    26.872422
_cell_angle_alpha                 89.782049
_cell_angle_beta                  90.991794
_cell_angle_gamma                 89.723975
_cell_volume                      7808.10264761

loop_
_atom_site_label
_atom_site_type_symbol
_atom_type_description
_atom_site_fract_x
_atom_site_fract_y
_atom_site_fract_z
_atom_type_partial_charge
C1    C     C_R   0.706091 0.308975 0.172719 0.551513
C2    C     C_R   0.293053 0.310165 0.827377 0.553412
C3    C     C_R   0.206091 0.808975 0.172719 0.551511
C4    C     C_R   0.793053 0.810165 0.827377 0.553411
C5    C     C_R   0.481978 0.157311 0.869413 0.001816
C6    C     C_R   0.524091 0.165195 0.128116 0.009612
C7    C     C_R   0.981978 0.657311 0.869413 0.001817
C8    C     C_R   0.024091 0.665195 0.128116 0.009612
C9    C     C_R   0.533188 0.255307 0.099877 -0.145683
C10   C     C_R   0.494123 0.251161 0.893459 -0.144933
C11   C     C_R   0.033188 0.755307 0.099877 -0.145683
C12   C     C_R   0.994123 0.751161 0.893459 -0.144933
C13   C     C_R   0.524439 0.254835 0.048365 0.010548
C14   C     C_R   0.508902 0.251802 0.944323 0.007807
C15   C     C_R   0.024439 0.754834 0.048365 0.010548
C16   C     C_R   0.008901 0.751802 0.944323 0.007807
C17   C     C_R   0.508959 0.161983 0.024438 0.044562
C18   C     C_R   0.504187 0.159512 0.972149 0.042936
C19   C     C_R   0.008959 0.661983 0.024438 0.044563
C20   C     C_R   0.004187 0.659512 0.972149 0.042936
C21   C     C_R   0.533536 0.344560 0.020140 -0.088105
C22   C     C_R   0.524702 0.343639 0.968513 -0.094988
C23   C     C_R   0.033536 0.844560 0.020140 -0.088105
C24   C     C_R   0.024703 0.843639 0.968513 -0.094988
C25   C     C_R   0.737986 0.959324 0.130678 0.051994
C26   C     C_R   0.259709 0.948422 0.867541 0.038439
C27   C     C_R   0.237986 0.459324 0.130678 0.051994
C28   C     C_R   0.759709 0.448421 0.867541 0.038440
C29   C     C_R   0.768342 0.866764 0.120857 0.087673
C30   C     C_R   0.205078 0.903679 0.880612 0.096601
C31   C     C_R   0.268341 0.366763 0.120857 0.087672
C32   C     C_R   0.705078 0.403678 0.880611 0.096601
C33   C     C_R   0.772813 0.833564 0.071643 -0.027347
C34   C     C_R   0.197488 0.868307 0.929225 -0.041276
C35   C     C_R   0.272813 0.333564 0.071643 -0.027347
C36   C     C_R   0.697488 0.368307 0.929225 -0.041276
C37   C     C_R   0.748391 0.893760 0.032709 0.077646
C38   C     C_R   0.243282 0.879828 0.964859 0.068174
C39   C     C_R   0.248391 0.393760 0.032709 0.077645
C40   C     C_R   0.743282 0.379828 0.964859 0.068174
C41   C     C_R   0.717665 0.985125 0.042950 -0.050569
C42   C     C_R   0.298205 0.920258 0.951226 -0.077445
C43   C     C_R   0.217666 0.485126 0.042950 -0.050569
C44   C     C_R   0.798204 0.420257 0.951226 -0.077445
C45   C     C_R   0.552602 0.157680 0.177791 0.557479
C46   C     C_R   0.448523 0.156230 0.821562 0.559672
C47   C     C_R   0.052602 0.657680 0.177791 0.557479
C48   C     C_R   0.948524 0.656230 0.821562 0.559683
C49   C     C_R   0.711526 0.016574 0.091800 -0.122385
C50   C     C_R   0.306563 0.953341 0.902749 -0.132233
C51   C     C_R   0.211526 0.516574 0.091800 -0.122385
C52   C     C_R   0.806562 0.453341 0.902749 -0.132233
C53   C     C_R   0.710985 0.833131 0.949090 0.037675
C54   C     C_R   0.265614 0.779758 0.043079 0.029216
C55   C     C_R   0.210985 0.333131 0.949090 0.037675
C56   C     C_R   0.765613 0.279758 0.043078 0.029216
C57   C     C_R   0.723100 0.815578 0.898733 -0.113906
C58   C     C_R   0.258152 0.767884 0.094410 -0.143188
C59   C     C_R   0.223100 0.315578 0.898733 -0.113905
C60   C     C_R   0.758152 0.267884 0.094410 -0.143189
C61   C     C_R   0.826108 0.864549 0.911507 -0.113051
C62   C     C_R   0.185059 0.905990 0.094066 -0.103041
C63   C     C_R   0.326108 0.364549 0.911507 -0.113051
C64   C     C_R   0.685059 0.405990 0.094066 -0.103041
C65   C     C_R   0.815562 0.881534 0.961600 0.072124
C66   C     C_R   0.193540 0.921905 0.043572 0.058266
C67   C     C_R   0.315562 0.381534 0.961600 0.072124
C68   C     C_R   0.693540 0.421905 0.043572 0.058267
C69   C     C_R   0.758334 0.865974 0.980815 0.006442
C70   C     C_R   0.232668 0.857394 0.017400 0.004907
C71   C     C_R   0.258334 0.365974 0.980815 0.006441
C72   C     C_R   0.732668 0.357393 0.017400 0.004907
C73   C     C_R   0.780121 0.832290 0.879688 -0.026766
C74   C     C_R   0.217402 0.829444 0.119936 -0.026608
C75   C     C_R   0.280121 0.332290 0.879688 -0.026766
C76   C     C_R   0.717402 0.329444 0.119935 -0.026609
C77   C     C_R   0.519870 0.168192 0.367924 0.023339
C78   C     C_R   0.432883 0.164256 0.620094 0.029220
C79   C     C_R   0.019855 0.668167 0.367916 0.023352
C80   C     C_R   0.932882 0.664257 0.620089 0.029156
C81   C     C_R   0.517077 0.262906 0.393256 -0.121587
C82   C     C_R   0.479512 0.226749 0.603675 -0.099128
C83   C     C_R   0.016917 0.762925 0.393197 -0.121553
C84   C     C_R   0.979332 0.727112 0.603632 -0.099205
C85   C     C_R   0.494268 0.267463 0.441276 -0.117322
C86   C     C_R   0.491745 0.233382 0.552945 -0.113960
C87   C     C_R   0.994089 0.767485 0.441211 -0.117273
C88   C     C_R   0.991545 0.733736 0.552898 -0.113943
C89   C     C_R   0.731680 0.999856 0.180492 0.554760
C90   C     C_R   0.268452 0.999589 0.819759 0.558383
C91   C     C_R   0.231680 0.499856 0.180492 0.554760
C92   C     C_R   0.768452 0.499588 0.819759 0.558378
C93   C     C_R   0.473686 0.177511 0.464740 0.032608
C94   C     C_R   0.457147 0.178431 0.517891 0.029878
C95   C     C_R   0.973645 0.677487 0.464724 0.032659
C96   C     C_R   0.957096 0.678431 0.517875 0.029932
C97   C     C_R   0.473216 0.084208 0.438181 -0.111621
C98   C     C_R   0.409272 0.118758 0.534543 -0.110971
C99   C     C_R   0.973327 0.584123 0.438215 -0.111630
C100  C     C_R   0.909382 0.618412 0.534564 -0.110996
C101  C     C_R   0.496056 0.079594 0.390319 -0.113552
C102  C     C_R   0.397427 0.111831 0.585216 -0.136722
C103  C     C_R   0.996171 0.579512 0.390358 -0.113557
C104  C     C_R   0.897571 0.611471 0.585241 -0.136651
C105  C     C_R   0.745199 0.945635 0.368812 0.023435
C106  C     C_R   0.255131 0.947638 0.630780 0.016828
C107  C     C_R   0.245202 0.445629 0.368810 0.023443
C108  C     C_R   0.755104 0.447595 0.630795 0.016838
C109  C     C_R   0.699200 0.893219 0.392699 -0.090544
C110  C     C_R   0.300037 0.889225 0.608464 -0.107021
C111  C     C_R   0.199208 0.393199 0.392696 -0.090564
C112  C     C_R   0.799978 0.389088 0.608491 -0.107122
C113  C     C_R   0.705123 0.868408 0.442734 -0.091855
C114  C     C_R   0.296830 0.869628 0.557777 -0.102439
C115  C     C_R   0.205136 0.368376 0.442730 -0.091884
C116  C     C_R   0.796758 0.369452 0.557806 -0.102458
C117  C     C_R   0.757282 0.894862 0.468957 0.028500
C118  C     C_R   0.247833 0.905561 0.529492 0.026496
C119  C     C_R   0.257295 0.394836 0.468952 0.028478
C120  C     C_R   0.747777 0.405436 0.529515 0.026505
C121  C     C_R   0.805839 0.935815 0.443725 -0.123392
C122  C     C_R   0.199460 0.951575 0.553166 -0.127902
C123  C     C_R   0.305847 0.435805 0.443721 -0.123390
C124  C     C_R   0.699424 0.451521 0.553185 -0.127918
C125  C     C_R   0.799894 0.960966 0.393693 -0.124356
C126  C     C_R   0.203030 0.972498 0.603643 -0.126660
C127  C     C_R   0.299898 0.460965 0.393690 -0.124337
C128  C     C_R   0.703009 0.472486 0.603657 -0.126626
C129  C     C_R   0.779889 0.971715 0.551508 -0.120904
C130  C     C_R   0.226770 0.981380 0.445716 -0.128113
C131  C     C_R   0.279885 0.471700 0.551503 -0.120872
C132  C     C_R   0.726753 0.481297 0.445741 -0.128090
C133  C     C_R   0.721530 0.347276 0.321818 0.600798
C134  C     C_R   0.278868 0.346575 0.677814 0.589195
C135  C     C_R   0.221534 0.847286 0.321813 0.600784
C136  C     C_R   0.778866 0.846579 0.677816 0.589188
C137  C     C_R   0.781615 0.966189 0.603591 0.049022
C138  C     C_R   0.222566 0.972260 0.393801 0.044740
C139  C     C_R   0.281608 0.466178 0.603586 0.049024
C140  C     C_R   0.722563 0.472205 0.393824 0.044712
C141  C     C_R   0.737971 0.793898 0.597557 -0.152827
C142  C     C_R   0.265803 0.799267 0.401865 -0.152243
C143  C     C_R   0.238001 0.293858 0.597552 -0.152851
C144  C     C_R   0.765742 0.299168 0.401879 -0.152238
C145  C     C_R   0.736645 0.800609 0.546375 -0.129967
C146  C     C_R   0.269275 0.809237 0.452857 -0.131854
C147  C     C_R   0.236677 0.300567 0.546369 -0.129995
C148  C     C_R   0.769200 0.309111 0.452874 -0.131869
C149  C     C_R   0.758889 0.888187 0.523091 0.005862
C150  C     C_R   0.247994 0.898678 0.475228 0.000686
C151  C     C_R   0.258903 0.388159 0.523086 0.005865
C152  C     C_R   0.747942 0.398562 0.475250 0.000682
C153  C     C_R   0.762546 0.873951 0.626611 0.011567
C154  C     C_R   0.239812 0.877661 0.372085 0.009154
C155  C     C_R   0.262554 0.373930 0.626606 0.011578
C156  C     C_R   0.739791 0.377604 0.372101 0.009145
C157  C     C_R   0.553616 0.158863 0.321412 0.549147
C158  C     C_R   0.418564 0.155816 0.673015 0.546289
C159  C     C_R   0.053613 0.658860 0.321411 0.549165
C160  C     C_R   0.918574 0.655819 0.673014 0.546337
C161  C     C_R   0.732541 0.000207 0.322274 0.545705
C162  C     C_R   0.267444 0.000110 0.677766 0.532909
C163  C     C_R   0.232541 0.500206 0.322274 0.545724
C164  C     C_R   0.767440 0.500103 0.677769 0.532924
C165  C     C_R   0.500082 0.076371 0.104920 0.090613
C166  C     C_R   0.491857 0.062919 0.895645 0.083438
C167  C     C_R   0.000082 0.576371 0.104920 0.090613
C168  C     C_R   0.991857 0.562919 0.895645 0.083438
C169  C     C_R   0.497665 0.071881 0.052632 0.019586
C170  C     C_R   0.494814 0.064736 0.947740 0.012768
C171  C     C_R   0.997665 0.571882 0.052632 0.019585
C172  C     C_R   0.994814 0.564736 0.947740 0.012768
C173  C     C_R   0.486499 0.974707 0.976055 -0.113628
C174  C     C_R   0.486211 0.978796 0.027685 -0.119498
C175  C     C_R   0.986498 0.474707 0.976055 -0.113629
C176  C     C_R   0.986211 0.478796 0.027685 -0.119498
Cr1   Cr    Cr6+3 0.756570 0.170940 0.251190 1.060853
Cr2   Cr    Cr6+3 0.243430 0.170940 0.748810 1.061608
Cr3   Cr    Cr6+3 0.256570 0.670940 0.251190 1.060845
Cr4   Cr    Cr6+3 0.743430 0.670940 0.748810 1.061606
Cr5   Cr    Cr6+3 0.623740 0.299110 0.249580 1.055218
Cr6   Cr    Cr6+3 0.376260 0.299110 0.750420 1.063534
Cr7   Cr    Cr6+3 0.123740 0.799110 0.249580 1.055224
Cr8   Cr    Cr6+3 0.876260 0.799110 0.750420 1.063513
Cr9   Cr    Cr6+3 0.625990 0.036240 0.250480 1.063617
Cr10  Cr    Cr6+3 0.374010 0.036240 0.749520 1.056830
Cr11  Cr    Cr6+3 0.125990 0.536240 0.250480 1.063616
Cr12  Cr    Cr6+3 0.874010 0.536240 0.749520 1.056825
H1    H     H_    0.870498 0.876282 0.897440 0.150382
H2    H     H_    0.153799 0.955236 0.113137 0.170112
H3    H     H_    0.370498 0.376282 0.897440 0.150382
H4    H     H_    0.653799 0.455235 0.113137 0.170112
H5    H     H_    0.698807 0.032052 0.013076 0.141420
H6    H     H_    0.333801 0.929505 0.978571 0.131596
H7    H     H_    0.198807 0.532053 0.013076 0.141420
H8    H     H_    0.833801 0.429505 0.978571 0.131596
H9    H     H_    0.686885 0.086854 0.099349 0.092330
H10   H     H_    0.348775 0.988153 0.893466 0.136524
H11   H     H_    0.186885 0.586854 0.099349 0.092330
H12   H     H_    0.848775 0.488153 0.893466 0.136523
H13   H     H_    0.534993 0.332575 0.376956 0.138956
H14   H     H_    0.507105 0.268657 0.630096 0.141029
H15   H     H_    0.034727 0.832638 0.376858 0.138925
H16   H     H_    0.006812 0.769306 0.630027 0.141051
H17   H     H_    0.381111 0.077176 0.508412 0.116411
H18   H     H_    0.458089 0.013408 0.455350 0.111746
H19   H     H_    0.881324 0.576556 0.508460 0.116360
H20   H     H_    0.958318 0.513281 0.455418 0.111711
H21   H     H_    0.360071 0.066614 0.597274 0.106903
H22   H     H_    0.497434 0.005493 0.371752 0.141259
H23   H     H_    0.860350 0.565959 0.597325 0.107060
H24   H     H_    0.997661 0.505371 0.371833 0.141265
H25   H     H_    0.494202 0.340779 0.460582 0.109413
H26   H     H_    0.529393 0.278941 0.541323 0.112620
H27   H     H_    0.993900 0.840848 0.460474 0.109353
H28   H     H_    0.029072 0.779568 0.541254 0.112562
H29   H     H_    0.656882 0.879197 0.374048 0.151481
H30   H     H_    0.340207 0.867646 0.628920 0.155906
H31   H     H_    0.156890 0.379174 0.374046 0.151475
H32   H     H_    0.840139 0.367473 0.628951 0.155876
H33   H     H_    0.794097 0.041660 0.532911 0.135656
H34   H     H_    0.213502 0.052926 0.463319 0.134488
H35   H     H_    0.294080 0.541653 0.532906 0.135690
H36   H     H_    0.713502 0.552848 0.463348 0.134518
H37   H     H_    0.477282 0.901028 0.958844 0.176397
H38   H     H_    0.478913 0.907315 0.047502 0.169018
H39   H     H_    0.977282 0.401028 0.958844 0.176396
H40   H     H_    0.978913 0.407315 0.047502 0.169017
H41   H     H_    0.667334 0.835843 0.461658 0.125391
H42   H     H_    0.334438 0.832820 0.540300 0.126805
H43   H     H_    0.167351 0.335798 0.461654 0.125396
H44   H     H_    0.834350 0.332583 0.540335 0.126848
H45   H     H_    0.720107 0.735708 0.524922 0.117746
H46   H     H_    0.285800 0.744583 0.474896 0.120896
H47   H     H_    0.220153 0.235655 0.524915 0.117715
H48   H     H_    0.785698 0.244431 0.474910 0.120864
H49   H     H_    0.723556 0.721935 0.614091 0.144174
H50   H     H_    0.279258 0.725825 0.386271 0.145650
H51   H     H_    0.223601 0.221886 0.614086 0.144158
H52   H     H_    0.779180 0.225722 0.386280 0.145650
H53   H     H_    0.847056 0.953558 0.463355 0.115902
H54   H     H_    0.160166 0.975824 0.532200 0.112899
H55   H     H_    0.347063 0.453554 0.463350 0.115942
H56   H     H_    0.660139 0.475805 0.532217 0.112874
H57   H     H_    0.836484 0.999367 0.375650 0.138609
H58   H     H_    0.167012 0.015296 0.620367 0.141120
H59   H     H_    0.336485 0.499376 0.375648 0.138621
H60   H     H_    0.667009 0.515345 0.620373 0.141119
H61   H     H_    0.490005 0.323470 0.873149 0.152029
H62   H     H_    0.550260 0.324558 0.117558 0.139705
H63   H     H_    0.990005 0.823470 0.873149 0.152028
H64   H     H_    0.050260 0.824558 0.117558 0.139704
H65   H     H_    0.529353 0.414914 0.947670 0.167361
H66   H     H_    0.545151 0.416337 0.038317 0.164982
H67   H     H_    0.029353 0.914914 0.947670 0.167361
H68   H     H_    0.045151 0.916337 0.038317 0.164982
H69   H     H_    0.687723 0.789070 0.874113 0.195271
H70   H     H_    0.282735 0.707897 0.114271 0.177008
H71   H     H_    0.187723 0.289070 0.874113 0.195272
H72   H     H_    0.782735 0.207897 0.114270 0.177007
H73   H     H_    0.796695 0.762838 0.063520 0.154042
H74   H     H_    0.155238 0.835560 0.939822 0.141370
H75   H     H_    0.296694 0.262838 0.063520 0.154041
H76   H     H_    0.655237 0.335559 0.939821 0.141370
O1    O     O_R   0.769900 0.064540 0.196060 -0.504208
O2    O     O_R   0.230100 0.064540 0.803940 -0.481149
O3    O     O_R   0.269900 0.564540 0.196060 -0.504208
O4    O     O_R   0.730100 0.564540 0.803940 -0.481151
O5    O     O_R   0.574760 0.239320 0.300850 -0.502510
O6    O     O_R   0.425240 0.239320 0.699150 -0.494695
O7    O     O_R   0.074760 0.739320 0.300850 -0.502499
O8    O     O_R   0.925240 0.739320 0.699150 -0.494742
O9    O     O_R   0.566290 0.069580 0.305400 -0.509514
O10   O     O_R   0.433710 0.069580 0.694600 -0.485774
O11   O     O_R   0.066290 0.569580 0.305400 -0.509538
O12   O     O_R   0.933710 0.569580 0.694600 -0.485757
O13   O     O_R   0.680760 0.993330 0.302620 -0.501786
O14   O     O_R   0.319240 0.993330 0.697380 -0.522174
O15   O     O_R   0.180760 0.493330 0.302620 -0.501789
O16   O     O_R   0.819240 0.493330 0.697380 -0.522193
O17   O     O_3   0.668770 0.168760 0.250420 -0.287245
O18   O     O_3   0.331230 0.168760 0.749580 -0.305213
O19   O     O_3   0.168770 0.668760 0.250420 -0.287235
O20   O     O_3   0.831230 0.668760 0.749580 -0.305189
O21   O     O_R   0.750800 0.274080 0.199250 -0.473183
O22   O     O_R   0.249200 0.274080 0.800750 -0.486361
O23   O     O_R   0.250800 0.774080 0.199250 -0.473191
O24   O     O_R   0.749200 0.774080 0.800750 -0.486365
O25   O     O_R   0.669990 0.371670 0.194150 -0.495022
O26   O     O_R   0.330010 0.371670 0.805850 -0.484644
O27   O     O_R   0.169990 0.871670 0.194150 -0.495024
O28   O     O_R   0.830010 0.871670 0.805850 -0.484647
O29   O     O_R   0.574600 0.238480 0.197800 -0.523585
O30   O     O_R   0.425400 0.238480 0.802200 -0.513738
O31   O     O_R   0.074600 0.738480 0.197800 -0.523592
O32   O     O_R   0.925400 0.738480 0.802200 -0.513735
O33   O     O_R   0.566130 0.068680 0.194240 -0.472187
O34   O     O_R   0.433870 0.068680 0.805760 -0.476853
O35   O     O_R   0.066130 0.568680 0.194240 -0.472184
O36   O     O_R   0.933870 0.568680 0.805760 -0.476849
O37   O     O_R   0.680610 0.992490 0.199570 -0.488673
O38   O     O_R   0.319390 0.992490 0.800430 -0.499520
O39   O     O_R   0.180610 0.492490 0.199570 -0.488675
O40   O     O_R   0.819390 0.492490 0.800430 -0.499525
O41   O     O_R   0.770060 0.065440 0.307230 -0.520811
O42   O     O_R   0.229940 0.065440 0.692770 -0.515363
O43   O     O_R   0.270060 0.565440 0.307230 -0.520803
O44   O     O_R   0.729940 0.565440 0.692770 -0.515362
O45   O     O_R   0.750960 0.274920 0.302300 -0.502095
O46   O     O_R   0.249040 0.274920 0.697700 -0.504797
O47   O     O_R   0.250960 0.774920 0.302300 -0.502115
O48   O     O_R   0.749040 0.774920 0.697700 -0.504800
O49   O     O_R   0.670160 0.372580 0.305320 -0.476430
O50   O     O_R   0.329840 0.372580 0.694680 -0.478095
O51   O     O_R   0.170160 0.872580 0.305320 -0.476400
O52   O     O_R   0.829840 0.872580 0.694680 -0.478107
I1    I     I_    0.508781 0.918618 0.858250 -0.243708
I2    I     I_    0.463104 0.953343 0.148543 -0.274707
I3    I     I_    0.008781 0.418618 0.858250 -0.243700
I4    I     I_    0.963104 0.453343 0.148543 -0.274688
C177  C     C_2   0.802096 0.057426 0.632595 0.585488
O53   O     O_2   0.834354 0.121622 0.613384 -0.544606
O54   O     O_R   0.783137 0.071974 0.681384 -0.665458
H77   H     H_    0.799630 0.137444 0.696864 0.347208
C178  C     C_2   0.201217 0.062011 0.363579 0.581334
O55   O     O_2   0.170436 0.128932 0.382527 -0.547302
O56   O     O_R   0.217705 0.072035 0.313846 -0.659705
H78   H     H_    0.200899 0.136949 0.297547 0.351978
C179  C     C_2   0.302067 0.557430 0.632590 0.585509
O57   O     O_2   0.334307 0.621653 0.613379 -0.544540
O58   O     O_R   0.283109 0.571960 0.681382 -0.665450
H79   H     H_    0.299587 0.637441 0.696860 0.347223
C180  C     C_2   0.701246 0.561988 0.363608 0.581326
O59   O     O_2   0.670482 0.628929 0.382559 -0.547292
O60   O     O_R   0.717746 0.572016 0.313878 -0.659708
H80   H     H_    0.700962 0.636951 0.297584 0.351986
I5    I     I_    0.808094 0.775980 0.178303 -0.285828
I6    I     I_    0.132865 0.886699 0.829421 -0.325657
I7    I     I_    0.308092 0.275979 0.178303 -0.285820
I8    I     I_    0.632865 0.386699 0.829421 -0.325680
C181  C     C_2   0.648868 0.816390 0.966747 0.603280
O61   O     O_2   0.608800 0.798971 0.936591 -0.480307
O62   O     O_R   0.635655 0.818317 0.017400 -0.676229
H81   H     H_    0.591903 0.806201 0.023920 0.357214
C182  C     C_2   0.307907 0.710318 0.017434 0.570150
O63   O     O_2   0.351850 0.677235 0.039892 -0.470375
O64   O     O_R   0.297408 0.681695 0.967925 -0.693377
H82   H     H_    0.329926 0.635649 0.954436 0.364244
C183  C     C_2   0.148868 0.316391 0.966747 0.603281
O65   O     O_2   0.108800 0.298970 0.936591 -0.480307
O66   O     O_R   0.135655 0.318317 0.017400 -0.676230
H83   H     H_    0.091902 0.306202 0.023920 0.357214
C184  C     C_2   0.807907 0.210318 0.017434 0.570150
O67   O     O_2   0.851849 0.177235 0.039892 -0.470375
O68   O     O_R   0.797408 0.181695 0.967925 -0.693377
H84   H     H_    0.829926 0.135648 0.954435 0.364243
I9    I     I_    0.887471 0.937200 0.005870 -0.350966
I10   I     I_    0.150268 0.052061 0.010563 -0.367189
I11   I     I_    0.387471 0.437200 0.005870 -0.350964
I12   I     I_    0.650268 0.552061 0.010563 -0.367186

loop_
_geom_bond_atom_site_label_1
_geom_bond_atom_site_label_2
_ccdc_geom_bond_type
C99   C103  A    
C7    C168  A    
C146  H46   S    
C55   C59   A    
C126  H58   S    
C142  C146  A    
C77   C101  A    
C19   C20   A    
C53   C69   A    
C88   C96   A    
C50   H10   S    
C62   H2    S    
C180  O59   D    
C108  C164  S    
Cr9   O37   S    
Cr10  O34   S    
Cr11  O39   S    
C26   C50   A    
C95   C99   A    
C138  C178  S    
C29   C33   A    
C100  C104  A    
C3    C74   S    
C9    C13   A    
C41   H5    S    
C21   H66   S    
C146  C150  A    
C131  C151  A    
C12   C16   A    
C56   C72   A    
C169  C174  A    
Cr7   O31   S    
C124  H56   S    
Cr8   O28   S    
C172  C175  A    
C141  C145  A    
C122  C126  A    
C84   H16   S    
C6    C165  A    
C21   C22   A    
C92   O40   A    
C61   H1    S    
C91   O3    A    
C41   C49   A    
C184  O68   S    
C18   C170  A    
C25   C29   A    
C160  O8    A    
C27   C31   A    
O54   H77   S    
C143  H51   S    
C28   C32   A    
C82   H14   S    
C62   C66   A    
C167  C171  A    
C98   C102  A    
C60   C76   A    
C15   C19   A    
Cr1   O1    S    
C78   C82   A    
O68   H84   S    
C54   C70   A    
C16   C20   A    
C1    O25   A    
C140  C156  A    
C135  O51   A    
C20   C172  A    
C119  C123  A    
C132  C152  A    
C130  C138  A    
C123  C127  A    
Cr12  O16   S    
C137  C153  A    
C84   C88   A    
Cr9   O13   S    
Cr6   O18   S    
Cr10  O10   S    
Cr11  O15   S    
C26   C90   S    
C5    C46   S    
C105  C125  A    
C140  C180  S    
C60   H72   S    
C8    C47   S    
Cr7   O27   S    
C173  H37   S    
C7    C48   S    
C157  O9    A    
C136  C153  S    
Cr1   O21   S    
C66   C70   A    
C163  O15   A    
Cr2   O18   S    
Cr3   O23   S    
C32   I8    S    
C107  C127  A    
O60   H80   S    
C92   O4    A    
C61   C65   A    
C129  C137  A    
C159  O7    A    
C177  O53   D    
C39   C71   S    
C117  C149  S    
C48   O36   A    
C55   C71   A    
C2    C75   S    
Cr12  O20   S    
C29   I5    S    
C183  O65   D    
O66   H83   S    
C6    C9    A    
C123  H55   S    
C49   H9    S    
C121  C125  A    
C12   H63   S    
C58   H70   S    
Cr1   O45   S    
C64   C68   A    
Cr5   O29   S    
Cr2   O42   S    
Cr3   O47   S    
C137  C177  S    
C144  H52   S    
C43   H7    S    
C118  C122  A    
C57   H69   S    
C178  O56   S    
C85   C93   A    
C78   C158  S    
C87   C95   A    
C130  C150  A    
C23   C24   A    
C27   C91   S    
C52   H12   S    
C97   H18   S    
C47   O31   A    
C110  C114  A    
Cr9   O33   S    
C48   O32   A    
C89   O37   A    
C44   C52   A    
C165  I2    S    
C91   O39   A    
C116  H44   S    
C179  O58   S    
C79   C103  A    
Cr10  O38   S    
C111  H31   S    
Cr11  O35   S    
Cr4   O4    S    
C27   C51   A    
Cr5   O5    S    
C181  O62   S    
C7    C12   A    
C176  H40   S    
Cr7   O7    S    
C30   C34   A    
C68   I12   S    
C10   C14   A    
C108  C128  A    
C116  C120  A    
C144  C156  A    
C147  C151  A    
C86   H26   S    
C129  C149  A    
C37   C69   S    
C66   I10   S    
C143  C155  A    
C139  C155  A    
C157  O5    A    
C54   C58   A    
C17   C18   A    
C112  H32   S    
C5    C166  A    
C142  C154  A    
C4    C73   S    
C42   C50   A    
C113  C117  A    
C107  C163  S    
C26   C30   A    
C115  C119  A    
C14   C22   A    
C105  C161  S    
Cr7   O19   S    
C182  O64   S    
C93   C97   A    
C112  C116  A    
C31   I7    S    
C58   C74   A    
C139  C179  S    
C105  C109  A    
C40   C72   S    
C1    C76   S    
C107  C111  A    
C148  C152  A    
C23   H68   S    
Cr2   O2    S    
C102  H21   S    
C113  H41   S    
C135  O47   A    
C134  O50   A    
C171  C176  A    
C11   H64   S    
C13   C17   A    
C2    O26   A    
C9    H62   S    
C161  O13   A    
C136  O48   A    
C63   C75   A    
C96   C100  A    
C89   O1    A    
C37   C41   A    
C109  H29   S    
Cr12  O36   S    
C40   C44   A    
C54   C182  S    
C131  H35   S    
C46   O30   A    
C138  C154  A    
C63   H3    S    
Cr9   O17   S    
C46   O34   A    
C81   C85   A    
Cr10  O14   S    
C147  H47   S    
Cr11  O11   S    
C83   C87   A    
Cr4   O44   S    
C6    C45   S    
C145  H45   S    
C78   C102  A    
C133  C156  S    
C125  H57   S    
C133  O49   A    
C80   C84   A    
Cr5   O25   S    
C1    O21   A    
C184  O67   D    
Cr2   O22   S    
C3    O23   A    
Cr3   O19   S    
C135  C154  S    
C80   C104  A    
C79   C159  S    
C80   C160  S    
C94   C98   A    
C33   H73   S    
C175  H39   S    
C35   H75   S    
C118  C150  S    
C22   H65   S    
Cr5   O49   S    
C64   H4    S    
C160  O12   A    
Cr4   O20   S    
C124  C128  A    
C165  C169  A    
C167  I4    S    
C59   H71   S    
Cr2   O46   S    
C168  I3    S    
Cr6   O30   S    
Cr3   O43   S    
C133  O45   A    
C100  H19   S    
C180  O60   S    
C44   H8    S    
C161  O41   A    
Cr8   O8    S    
C130  H34   S    
C83   H15   S    
O64   H82   S    
C53   C57   A    
C81   H13   S    
C61   C73   A    
C82   C86   A    
C33   C37   A    
C108  C112  A    
C68   C72   A    
C45   O33   A    
C35   C39   A    
O58   H79   S    
C4    O28   A    
C8    C167  A    
C90   O38   A    
C77   C81   A    
C55   C183  S    
C166  I1    S    
C67   I11   S    
C38   C70   S    
Cr6   O6    S    
C31   C35   A    
C127  H59   S    
C32   C36   A    
C121  H53   S    
C142  H50   S    
Cr11  O19   S    
C132  H36   S    
Cr8   O52   S    
C53   C181  S    
C132  C140  A    
C106  C126  A    
C25   C89   S    
C158  O6    A    
C99   H20   S    
C174  H38   S    
O56   H78   S    
C79   C83   A    
C43   C51   A    
C65   C69   A    
C67   C71   A    
C106  C162  S    
C178  O55   D    
C25   C49   A    
C56   C60   A    
C168  C172  A    
Cr6   O50   S    
C87   H27   S    
C62   C74   A    
C145  C149  A    
C170  C173  A    
Cr3   O3    S    
C30   I6    S    
O62   H81   S    
C93   C94   S    
C179  O57   D    
C14   C18   A    
C47   O35   A    
C95   C96   S    
C3    O27   A    
C144  C148  A    
C141  C153  A    
Cr8   O32   S    
C162  O14   A    
C122  H54   S    
C173  C174  A    
C136  O52   A    
C143  C147  A    
C4    O24   A    
C36   H76   S    
C90   O2    A    
C19   C171  A    
C38   C42   A    
Cr12  O40   S    
C17   C169  A    
C57   C73   A    
C42   H6    S    
C117  C121  A    
Cr10  O18   S    
C175  C176  A    
C177  O54   S    
C164  O44   A    
C98   H17   S    
Cr7   O51   S    
C86   C94   A    
C115  H43   S    
Cr8   O20   S    
C2    O22   A    
C15   C23   A    
C16   C24   A    
C158  O10   A    
C119  C151  S    
Cr9   O9    S    
C63   C67   A    
C120  C152  S    
C34   H74   S    
C13   C21   A    
C128  H60   S    
Cr4   O48   S    
C36   C40   A    
C131  C139  A    
C129  H33   S    
C39   C43   A    
Cr12  O12   S    
C148  H48   S    
Cr4   O24   S    
C24   H67   S    
Cr5   O17   S    
C85   H25   S    
C65   I9    S    
C64   C76   A    
C28   C92   S    
Cr6   O26   S    
C114  C118  A    
C51   H11   S    
Cr1   O17   S    
C134  O46   A    
C11   C15   A    
C162  O42   A    
C59   C75   A    
C106  C110  A    
C134  C155  S    
C141  H49   S    
C88   H28   S    
C34   C38   A    
C45   O29   A    
C103  H24   S    
C114  H42   S    
C109  C113  A    
C101  H22   S    
C10   H61   S    
C159  O11   A    
C5    C10   A    
C28   C52   A    
C56   C184  S    
C8    C11   A    
C166  C170  A    
Cr1   O41   S    
C163  O43   A    
C110  H30   S    
C183  O66   S    
C181  O61   D    
C164  O16   A    
C111  C115  A    
C104  H23   S    
C182  O63   D    
C97   C101  A    
C120  C124  A    
C77   C157  S    
