data_mof_unit_59662.cif
_audit_creation_date              2012-12-10T20:33:32-0500
_audit_creation_method            fapswitch 2.2
_symmetry_space_group_name_H-M    P1
_symmetry_Int_Tables_number       1
_space_group_crystal_system       triclinic
_cell_length_a                    14.127573
_cell_length_b                    10.772686
_cell_length_c                    9.883236
_cell_angle_alpha                 89.116441
_cell_angle_beta                  90.836004
_cell_angle_gamma                 89.730591
_cell_volume                      1503.79134269

loop_
_atom_site_label
_atom_site_type_symbol
_atom_type_description
_atom_site_fract_x
_atom_site_fract_y
_atom_site_fract_z
_atom_type_partial_charge
C1    C     C_R   0.500192 0.259481 0.501064 0.890386
C2    C     C_3   0.452719 0.051618 0.744672 0.674421
C3    C     C_R   0.424076 0.542360 0.068632 0.125505
C4    C     C_R   0.329214 0.500199 0.499365 0.907261
C5    C     C_R   0.578626 0.465431 0.075283 -0.225208
C6    C     C_R   0.580326 0.465851 0.929520 0.691039
C7    C     C_R   0.425661 0.549279 0.926714 0.078473
C8    C     C_3   0.323728 0.513078 0.916424 0.099729
C9    C     C_3   0.325240 0.493122 0.070173 0.212598
C10   C     C_R   0.505431 0.739760 0.499609 0.886769
C11   C     C_R   0.670809 0.499827 0.500815 0.877218
C12   C     C_1   0.772276 0.500014 0.502359 -0.182810
C13   C     C_1   0.227773 0.501470 0.499069 -0.166835
C14   C     C_1   0.142514 0.502191 0.500682 -0.010682
C15   C     C_1   0.042686 0.502008 0.502097 0.021619
C16   C     C_1   0.957425 0.501363 0.502692 0.008178
C17   C     C_1   0.857561 0.500496 0.502753 -0.023733
C18   C     C_3   0.234790 0.313299 0.092815 0.119165
C19   C     C_3   0.174910 0.330815 0.218695 -0.356868
C20   C     C_3   0.081501 0.260871 0.207586 -0.935322
C21   C     C_3   0.291404 0.052408 0.801082 0.111746
C22   C     C_3   0.195998 0.023881 0.734215 -0.332834
C23   C     C_R   0.518062 0.060030 0.624963 0.066360
C24   C     C_3   0.118178 0.010590 0.838930 -0.864081
C25   C     C_3   0.746165 0.418807 0.927263 0.064034
C26   C     C_3   0.787645 0.545231 0.966946 -0.421743
C27   C     C_3   0.821412 0.618988 0.843823 -0.652063
C28   C     C_R   0.510880 0.126998 0.502555 -0.118035
C29   C     C_R   0.525456 0.065652 0.379906 -0.170521
C30   C     C_R   0.530581 0.937319 0.378788 -0.154851
C31   C     C_R   0.523040 0.870603 0.500591 -0.140927
C32   C     C_R   0.529329 0.933238 0.623316 0.002970
C33   C     C_3   0.476278 0.911796 0.750704 0.040890
H1    H     H_    0.527378 0.115660 0.284104 0.223846
H2    H     H_    0.159048 0.430966 0.230586 0.224007
H3    H     H_    0.039695 0.295271 0.118477 0.264391
H4    H     H_    0.039586 0.275783 0.300157 0.270951
H5    H     H_    0.094855 0.159754 0.197453 0.270526
H6    H     H_    0.432910 0.817402 0.001870 0.360397
H7    H     H_    0.283069 0.136770 0.862700 0.184403
H8    H     H_    0.311895 0.973197 0.869246 0.174874
H9    H     H_    0.176446 0.100244 0.661997 0.223113
H10   H     H_    0.201775 0.936351 0.676775 0.269372
H11   H     H_    0.135460 0.934167 0.911878 0.317204
H12   H     H_    0.311079 0.428804 0.855832 0.140924
H13   H     H_    0.050087 0.989020 0.787142 0.270922
H14   H     H_    0.109662 0.098500 0.894949 0.233731
H15   H     H_    0.627405 0.186419 0.969932 0.372292
H16   H     H_    0.797219 0.372971 0.859431 0.187323
H17   H     H_    0.741978 0.353584 0.014834 0.084020
H18   H     H_    0.734933 0.601495 0.021586 0.246181
H19   H     H_    0.849052 0.529006 0.036652 0.196733
H20   H     H_    0.879906 0.568691 0.794164 0.231595
H21   H     H_    0.848042 0.710794 0.876355 0.254279
H22   H     H_    0.762486 0.634103 0.769906 0.292444
H23   H     H_    0.277074 0.552517 0.129660 0.143535
H24   H     H_    0.135966 0.517708 0.805169 0.335076
H25   H     H_    0.533642 0.890970 0.282630 0.238633
H26   H     H_    0.413521 0.851675 0.736208 0.143852
H27   H     H_    0.638773 0.437000 0.136327 0.137015
H28   H     H_    0.245071 0.212171 0.078410 0.178823
H29   H     H_    0.195879 0.349147 0.001367 0.111813
H30   H     H_    0.214957 0.296208 0.309381 0.237155
N1    N     N_R   0.499420 0.499140 0.142800 -0.080656
N2    N     N_R   0.499420 0.499180 0.857150 -0.100183
O1    O     O_R   0.500010 0.316790 0.614690 -0.541144
O2    O     O_2   0.596265 0.730511 0.840139 -0.313288
O3    O     O_2   0.638624 0.939029 0.903019 -0.221338
O4    O     O_3   0.499568 0.833015 0.028089 -0.526700
O5    O     O_3   0.358490 0.076270 0.699085 -0.696800
O6    O     O_2   0.433745 0.265120 0.876547 -0.338960
O7    O     O_2   0.468841 0.083867 0.017052 -0.310885
O8    O     O_3   0.605328 0.180022 0.874738 -0.515868
O9    O     O_3   0.659031 0.430258 0.855114 -0.575017
O10   O     O_2   0.256587 0.743321 0.968203 -0.350484
O11   O     O_2   0.274479 0.691528 0.730278 -0.321717
O12   O     O_R   0.500000 0.316760 0.385350 -0.604851
O13   O     O_3   0.135191 0.592779 0.861735 -0.533484
O14   O     O_R   0.373720 0.500020 0.614700 -0.577935
O15   O     O_R   0.373710 0.499980 0.385350 -0.597826
O16   O     O_R   0.500000 0.683240 0.614650 -0.569345
O17   O     O_R   0.499990 0.683210 0.385310 -0.609964
O18   O     O_R   0.626290 0.500020 0.614650 -0.534200
O19   O     O_R   0.626280 0.499980 0.385300 -0.622984
O20   O     O_3   0.325689 0.366215 0.109830 -0.585028
S1    S     S_3+6 0.556650 0.853157 0.881470 0.061358
S2    S     S_3+6 0.489472 0.147019 0.884218 0.048576
S3    S     S_3+6 0.248124 0.641161 0.866982 -0.029105
Zn1   Zn    Zn3+2 0.500010 0.500020 0.653130 1.103391
Zn2   Zn    Zn3+2 0.499990 0.499980 0.346870 1.003156

loop_
_geom_bond_atom_site_label_1
_geom_bond_atom_site_label_2
_ccdc_geom_bond_type
C8    C9    S    
O3    S1    D    
C19   C20   S    
N1    Zn2   S    
C27   H21   S    
C7    C8    S    
C3    N1    A    
N2    Zn1   S    
C26   C27   S    
C21   C22   S    
C28   C29   A    
C4    O15   A    
C3    C7    A    
C5    C6    A    
C27   H22   S    
C15   C16   T    
C1    O12   A    
C25   O9    S    
C4    C13   S    
C25   H17   S    
O8    S2    S    
C9    O20   S    
C8    H12   S    
C10   C31   S    
C6    N2    A    
C22   H10   S    
C19   H30   S    
C16   C17   S    
C12   C17   T    
C1    C28   S    
O11   S3    D    
O16   Zn1   S    
C33   H26   S    
C13   C14   T    
O19   Zn2   S    
H15   O8    S    
C6    O9    S    
O1    Zn1   S    
O18   Zn1   S    
O12   Zn2   S    
C18   O20   S    
C4    O14   A    
C18   H29   S    
C11   O18   A    
C25   C26   S    
C29   H1    S    
C10   O17   A    
C5    N1    A    
C8    S3    S    
C33   S1    S    
C29   C30   A    
C3    C9    S    
C26   H19   S    
C7    N2    A    
C20   H5    S    
C31   C32   A    
C30   C31   A    
C1    O1    A    
H6    O4    S    
C2    S2    S    
C9    H23   S    
C23   C28   A    
O6    S2    D    
C2    C33   S    
C24   H11   S    
C21   H8    S    
O7    S2    D    
O13   S3    S    
O2    S1    D    
C5    H27   S    
C24   H14   S    
H24   O13   S    
C11   C12   S    
C27   H20   S    
C18   H28   S    
C11   O19   A    
C10   O16   A    
O17   Zn2   S    
C21   O5    S    
C24   H13   S    
C32   C33   S    
C19   H2    S    
C26   H18   S    
C23   C32   A    
C20   H4    S    
C22   H9    S    
C21   H7    S    
C30   H25   S    
C22   C24   S    
O15   Zn2   S    
C25   H16   S    
O14   Zn1   S    
C20   H3    S    
O10   S3    D    
C2    C23   S    
C18   C19   S    
C14   C15   S    
C2    O5    S    
O4    S1    S    
