data_mof_unit_24327.cif
_audit_creation_date              2012-12-10T18:14:41-0500
_audit_creation_method            fapswitch 2.2
_symmetry_space_group_name_H-M    P1
_symmetry_Int_Tables_number       1
_space_group_crystal_system       triclinic
_cell_length_a                    10.72899
_cell_length_b                    9.40498
_cell_length_c                    27.823532
_cell_angle_alpha                 90.113807
_cell_angle_beta                  90.056929
_cell_angle_gamma                 89.984597
_cell_volume                      2807.55252526

loop_
_atom_site_label
_atom_site_type_symbol
_atom_type_description
_atom_site_fract_x
_atom_site_fract_y
_atom_site_fract_z
_atom_type_partial_charge
C1    C     C_R   0.259622 0.499810 0.500080 0.765777
C2    C     C_R   0.491292 0.370442 0.278922 -0.100549
C3    C     C_R   0.499238 0.498790 0.253643 0.355426
C4    C     C_R   0.502073 0.501507 0.101838 -0.045943
C5    C     C_R   0.402433 0.563257 0.127297 -0.019076
C6    C     C_R   0.305009 0.627122 0.102003 -0.146897
C7    C     C_R   0.599998 0.437215 0.127587 -0.019099
C8    C     C_R   0.499577 0.499495 0.354548 -0.042748
C9    C     C_R   0.501668 0.501168 0.645465 -0.041371
C10   C     C_R   0.402473 0.562562 0.974154 0.045318
C11   C     C_R   0.612518 0.456347 0.974832 0.027722
C12   C     C_R   0.499814 0.499862 0.407465 0.806128
C13   C     C_R   0.508613 0.509932 0.949160 0.065683
C14   C     C_R   0.299363 0.610328 0.946938 -0.205572
C15   C     C_R   0.301858 0.610427 0.897144 -0.160907
C16   C     C_R   0.406292 0.561172 0.872300 -0.008812
C17   C     C_R   0.510721 0.511069 0.898012 -0.056254
C18   C     C_R   0.616895 0.462916 0.872508 -0.066883
C19   C     C_R   0.610055 0.455161 0.821701 0.519748
C20   C     C_R   0.408019 0.560451 0.821982 0.512626
C21   C     C_R   0.497633 0.374773 0.721482 -0.110921
C22   C     C_R   0.495635 0.373119 0.671346 -0.233296
C23   C     C_R   0.740136 0.499788 0.500066 0.765806
C24   C     C_R   0.509830 0.630634 0.670617 -0.232861
C25   C     C_R   0.512197 0.631927 0.720684 -0.110863
C26   C     C_R   0.506093 0.504158 0.746300 0.363823
C27   C     C_R   0.402605 0.565604 0.025273 0.040319
C28   C     C_R   0.503902 0.504225 0.050748 0.067282
C29   C     C_R   0.607232 0.445845 0.025734 0.048948
C30   C     C_R   0.304926 0.628647 0.052083 -0.209053
C31   C     C_R   0.698164 0.373798 0.102565 -0.147321
C32   C     C_R   0.720707 0.419645 0.948847 -0.253629
C33   C     C_R   0.724987 0.424248 0.898714 0.007043
C34   C     C_R   0.500166 0.500194 0.592558 0.801744
C35   C     C_R   0.701511 0.377032 0.052681 -0.210664
C36   C     C_3   0.071912 0.577682 0.545248 -0.377295
C37   C     C_3   0.071247 0.344197 0.500649 -0.377179
C38   C     C_3   0.928017 0.577696 0.545238 -0.378009
C39   C     C_3   0.928584 0.344181 0.500666 -0.376721
C40   C     C_3   0.071682 0.574591 0.454526 -0.375719
C41   C     C_3   0.121686 0.499103 0.500129 0.159167
C42   C     C_3   0.878068 0.499072 0.500123 0.159685
C43   C     C_3   0.927813 0.574534 0.454515 -0.376644
C44   C     C_3   0.610180 0.083946 0.526826 -0.188249
C45   C     C_3   0.610159 0.916249 0.526846 -0.188398
C46   C     C_3   0.387837 0.083961 0.525067 -0.188596
C47   C     C_3   0.387844 0.916334 0.525076 -0.188597
C48   C     C_3   0.502757 0.083372 0.451602 -0.186072
C49   C     C_3   0.502796 0.916137 0.451602 -0.185637
C50   C     C_R   0.402864 0.560370 0.177751 0.532427
C51   C     C_R   0.597170 0.437251 0.178036 0.532865
C52   C     C_R   0.507266 0.627482 0.278905 -0.101839
C53   C     C_R   0.507225 0.628004 0.329013 -0.229614
C54   C     C_R   0.491664 0.370627 0.329035 -0.229917
Cu1   Cu    Cu3+1 0.499860 0.642410 0.500020 0.894647
Cu2   Cu    Cu3+1 0.499860 0.357590 0.500020 0.894643
H1    H     H_    0.485421 0.269996 0.347729 0.144015
H2    H     H_    0.514000 0.727106 0.259636 0.142016
H3    H     H_    0.773171 0.320670 0.121469 0.187153
H4    H     H_    0.806797 0.394143 0.966914 0.139398
H5    H     H_    0.514857 0.730953 0.651668 0.145905
H6    H     H_    0.519006 0.732260 0.739667 0.137086
H7    H     H_    0.778137 0.321162 0.036234 0.140129
H8    H     H_    0.106221 0.689369 0.545845 0.160022
H9    H     H_    0.105257 0.284942 0.468540 0.162290
H10   H     H_    0.106846 0.524823 0.578392 0.155626
H11   H     H_    0.105488 0.287255 0.533145 0.159107
H12   H     H_    0.893241 0.524893 0.578387 0.156137
H13   H     H_    0.894604 0.287325 0.533189 0.159420
H14   H     H_    0.484598 0.270551 0.259670 0.142406
H15   H     H_    0.893682 0.689392 0.545816 0.159574
H16   H     H_    0.894381 0.284839 0.468584 0.162834
H17   H     H_    0.105959 0.686225 0.453233 0.162435
H18   H     H_    0.106484 0.519533 0.421726 0.158147
H19   H     H_    0.893415 0.686141 0.453196 0.162153
H20   H     H_    0.892933 0.519401 0.421719 0.158202
H21   H     H_    0.612231 0.123954 0.564460 0.139796
H22   H     H_    0.612080 0.876762 0.564492 0.137316
H23   H     H_    0.697681 0.120947 0.509599 0.138065
H24   H     H_    0.697727 0.878842 0.509680 0.138764
H25   H     H_    0.381945 0.124066 0.562630 0.137788
H26   H     H_    0.382050 0.876722 0.562649 0.139108
H27   H     H_    0.420459 0.121851 0.431023 0.138570
H28   H     H_    0.420550 0.877460 0.430994 0.140969
H29   H     H_    0.586874 0.122140 0.432285 0.140699
H30   H     H_    0.586987 0.877210 0.432305 0.138708
H31   H     H_    0.302151 0.120865 0.506435 0.138368
H32   H     H_    0.302105 0.879115 0.506487 0.138938
H33   H     H_    0.227956 0.676905 0.120737 0.186903
H34   H     H_    0.489142 0.271840 0.652917 0.145567
H35   H     H_    0.492367 0.275635 0.741099 0.137468
H36   H     H_    0.220498 0.648973 0.878142 0.174479
H37   H     H_    0.213615 0.646366 0.962880 0.136756
H38   H     H_    0.227483 0.682925 0.035725 0.138560
H39   H     H_    0.513645 0.728888 0.347683 0.144048
N1    N     N_R   0.499636 0.498533 0.202040 -0.467074
N2    N     N_R   0.508011 0.506259 0.797869 -0.462204
N3    N     N_3   0.500250 0.143650 0.501060 -0.111804
N4    N     N_3   0.500250 0.856350 0.501060 -0.112012
O1    O     O_R   0.317570 0.620260 0.500030 -0.595579
O2    O     O_R   0.317570 0.379740 0.500030 -0.596651
O3    O     O_R   0.499900 0.620250 0.430280 -0.592940
O4    O     O_R   0.499900 0.379750 0.430280 -0.592830
O5    O     O_R   0.682190 0.620260 0.500010 -0.595984
O6    O     O_R   0.682190 0.379740 0.500010 -0.595749
O7    O     O_R   0.499860 0.620280 0.569750 -0.589993
O8    O     O_R   0.499860 0.379720 0.569750 -0.590004
O9    O     O_2   0.306903 0.617966 0.202360 -0.543021
O10   O     O_2   0.309766 0.611896 0.797187 -0.581701
O11   O     O_2   0.691843 0.377987 0.202927 -0.543344
O12   O     O_2   0.702995 0.395235 0.796120 -0.538606
C55   C     C_R   0.847994 0.399673 0.875888 0.180109
C56   C     C_R   0.909153 0.268504 0.881130 -0.139822
C57   C     C_R   0.026393 0.247109 0.860381 -0.143252
C58   C     C_R   0.083253 0.356333 0.834398 -0.082934
C59   C     C_R   0.023236 0.487384 0.829359 -0.125795
C60   C     C_R   0.906813 0.509801 0.850493 -0.102499
H40   H     H_    0.865861 0.183039 0.901103 0.125024
H41   H     H_    0.073086 0.145792 0.864389 0.133551
H42   H     H_    0.173828 0.339509 0.818253 0.147902
H43   H     H_    0.066843 0.571954 0.809184 0.176103
H44   H     H_    0.861855 0.612329 0.846743 0.120563

loop_
_geom_bond_atom_site_label_1
_geom_bond_atom_site_label_2
_ccdc_geom_bond_type
C10   C27   A    
C21   C26   A    
C24   H5    S    
C53   H39   S    
Cu2   N3    S    
Cu1   Cu2   S    
C57   C58   A    
C19   N2    A    
C52   C53   A    
Cu1   O3    S    
C23   C42   S    
C34   O8    A    
C49   H28   S    
C28   C29   A    
Cu2   O2    S    
C38   C42   S    
C5    C6    A    
C36   H10   S    
C9    C22   A    
C15   C16   A    
C23   O6    A    
C47   N4    S    
C59   C60   A    
C18   C19   A    
C47   H26   S    
C31   H3    S    
C15   H36   S    
C56   C57   A    
C44   N3    S    
C40   C43   S    
C20   N2    A    
C16   C17   A    
C37   H9    S    
Cu1   O1    S    
C39   H16   S    
C45   H22   S    
C14   H37   S    
C57   H41   S    
C16   C20   A    
C51   N1    A    
C46   N3    S    
C21   C22   A    
C27   C30   A    
C50   O9    S    
C36   C41   S    
C38   H15   S    
C4    C7    A    
C1    O1    A    
C55   C56   A    
C4    C28   A    
C39   C42   S    
C39   H13   S    
C7    C31   A    
C59   H43   S    
Cu1   O7    S    
C34   O7    A    
C24   C25   A    
C12   O4    A    
C2    C54   A    
C8    C54   A    
C25   C26   A    
Cu1   O5    S    
C20   O10   S    
C60   H44   S    
Cu2   O8    S    
C12   O3    A    
C49   N4    S    
C46   H25   S    
C23   O5    A    
C8    C12   S    
C17   C18   A    
C22   H34   S    
C33   C55   S    
C3    N1    S    
C52   H2    S    
C1    C41   S    
C48   C49   S    
C6    C30   A    
C38   H12   S    
C11   C32   A    
C51   O11   S    
C45   N4    S    
C9    C34   S    
C31   C35   A    
C5    C50   A    
C42   C43   S    
C32   H4    S    
C1    O2    A    
C44   C45   S    
C43   H19   S    
C46   H31   S    
C21   H35   S    
C43   H20   S    
C46   C47   S    
C40   C41   S    
C14   C15   A    
C49   H30   S    
C44   H23   S    
Cu2   O4    S    
C4    C5    A    
C10   C13   A    
C8    C53   A    
C3    C52   A    
C9    C24   A    
C19   O12   S    
C6    H33   S    
C48   N3    S    
C29   C35   A    
C48   H27   S    
C13   C17   A    
C32   C33   A    
C36   C38   S    
C2    C3    A    
C7    C51   A    
C37   C39   S    
C36   H8    S    
C47   H32   S    
C11   C13   A    
C50   N1    A    
C44   H21   S    
C55   C60   A    
C37   H11   S    
C40   H18   S    
C45   H24   S    
C25   H6    S    
C37   C41   S    
C18   C33   A    
Cu2   O6    S    
C26   N2    S    
C56   H40   S    
C11   C29   A    
C30   H38   S    
C58   H42   S    
Cu1   N4    S    
C27   C28   A    
C48   H29   S    
C35   H7    S    
C40   H17   S    
C2    H14   S    
C58   C59   A    
C10   C14   A    
C54   H1    S    
