data_mof_unit_21329.cif
_audit_creation_date              2012-12-11T17:34:25-0500
_audit_creation_method            fapswitch 2.2
_symmetry_space_group_name_H-M    P1
_symmetry_Int_Tables_number       1
_space_group_crystal_system       triclinic
_cell_length_a                    23.713837
_cell_length_b                    7.222369
_cell_length_c                    20.678425
_cell_angle_alpha                 89.995794
_cell_angle_beta                  105.509486
_cell_angle_gamma                 89.996068
_cell_volume                      3412.63253852

loop_
_atom_site_label
_atom_site_type_symbol
_atom_type_description
_atom_site_fract_x
_atom_site_fract_y
_atom_site_fract_z
_atom_type_partial_charge
O1    O     O_R   0.449110 0.494310 0.552140 -0.537614
O2    O     O_R   0.550890 0.994310 0.447860 -0.537561
O3    O     O_R   0.440010 0.824420 0.415850 -0.540932
O4    O     O_R   0.559990 0.324420 0.584150 -0.540917
C1    C     C_R   0.425548 0.655887 0.390758 0.729911
C2    C     C_R   0.574450 0.155862 0.609241 0.729980
O5    O     O_R   0.442260 0.824040 0.549660 -0.534326
O6    O     O_R   0.557740 0.324040 0.450340 -0.534390
O7    O     O_R   0.553160 0.993960 0.582620 -0.521762
O8    O     O_R   0.446840 0.493960 0.417380 -0.521809
C3    C     C_R   0.428816 0.655433 0.567850 0.688334
C4    C     C_R   0.571184 0.155433 0.432151 0.688320
O9    O     O_3   0.536380 0.660670 0.510660 -0.376040
O10   O     O_3   0.463620 0.160670 0.489340 -0.376043
V1    V     V_3+5 0.493250 0.935680 0.498020 1.472560
V2    V     V_3+5 0.506750 0.435680 0.501980 1.472413
C5    C     C_R   0.822545 0.910395 0.169676 -0.128106
C6    C     C_R   0.177453 0.410395 0.830321 -0.128096
H1    H     H_    0.805512 0.784354 0.185740 0.109075
H2    H     H_    0.194485 0.284354 0.814256 0.109062
C7    C     C_R   0.862154 0.898477 0.130043 -0.160994
C8    C     C_R   0.137844 0.398477 0.869954 -0.160951
H3    H     H_    0.874722 0.762707 0.116564 0.123449
H4    H     H_    0.125277 0.262707 0.883432 0.123434
C9    C     C_R   0.885414 0.059830 0.108618 -0.054812
C10   C     C_R   0.114585 0.559830 0.891381 -0.054786
C11   C     C_R   0.867471 0.233067 0.127733 -0.164777
C12   C     C_R   0.132529 0.733068 0.872267 -0.164819
H5    H     H_    0.884078 0.360716 0.112400 0.126465
H6    H     H_    0.115922 0.860718 0.887602 0.126461
C13   C     C_R   0.827917 0.244478 0.167258 -0.130805
C14   C     C_R   0.172083 0.744480 0.832742 -0.130843
H7    H     H_    0.815108 0.379410 0.181356 0.108486
H8    H     H_    0.184892 0.879411 0.818645 0.108483
C15   C     C_R   0.805336 0.083453 0.188624 0.129726
C16   C     C_R   0.194663 0.583453 0.811374 0.129731
C17   C     C_1   0.764982 0.096469 0.230297 -0.050448
C18   C     C_1   0.235017 0.596470 0.769702 -0.050470
C19   C     C_1   0.731434 0.108195 0.265306 -0.047219
C20   C     C_1   0.268566 0.608194 0.734693 -0.047244
C21   C     C_R   0.669418 0.960124 0.329455 -0.137709
C22   C     C_R   0.330613 0.460123 0.670581 -0.137883
H9    H     H_    0.682086 0.825196 0.315193 0.114795
H10   H     H_    0.317967 0.325196 0.684870 0.114797
C23   C     C_R   0.630810 0.971479 0.370128 -0.172189
C24   C     C_R   0.369221 0.471478 0.629909 -0.172319
H11   H     H_    0.614679 0.843800 0.386040 0.151952
H12   H     H_    0.385376 0.343799 0.614026 0.151891
C25   C     C_R   0.613210 0.144692 0.389666 -0.057894
C26   C     C_R   0.386791 0.644691 0.610336 -0.057621
C27   C     C_R   0.635602 0.306112 0.367193 -0.132616
C28   C     C_R   0.364370 0.806109 0.632774 -0.132441
H13   H     H_    0.623107 0.441868 0.380777 0.142450
H14   H     H_    0.376842 0.941864 0.619163 0.142428
C29   C     C_R   0.674316 0.294250 0.326467 -0.127580
C30   C     C_R   0.325656 0.794247 0.673500 -0.127597
H15   H     H_    0.690858 0.420323 0.309809 0.109879
H16   H     H_    0.309091 0.920320 0.690130 0.109826
C31   C     C_R   0.691398 0.121192 0.307363 0.126698
C32   C     C_R   0.308603 0.621191 0.692638 0.126793
C33   C     C_R   0.640211 0.211595 0.797435 -0.061680
C34   C     C_R   0.359707 0.712918 0.202629 -0.061720
H17   H     H_    0.729137 0.196212 0.912265 0.156416
H18   H     H_    0.270760 0.698074 0.087812 0.156373
C35   C     C_R   0.616371 0.150986 0.676868 -0.111613
C36   C     C_R   0.383623 0.651142 0.323130 -0.111540
C37   C     C_R   0.900288 0.013268 0.768303 -0.160074
C38   C     C_R   0.099765 0.512392 0.231670 -0.160026
C39   C     C_R   0.861171 0.010587 0.704877 -0.120256
C40   C     C_R   0.138900 0.509362 0.295082 -0.120274
C41   C     C_R   0.801907 0.046507 0.696572 -0.157832
C42   C     C_R   0.198143 0.545614 0.303399 -0.157825
C43   C     C_R   0.779763 0.086499 0.752216 0.091627
C44   C     C_R   0.220247 0.586318 0.247780 0.091647
C45   C     C_R   0.820600 0.091630 0.817262 0.068865
C46   C     C_R   0.179387 0.591848 0.182751 0.068883
C47   C     C_R   0.718665 0.121977 0.745323 0.078307
C48   C     C_R   0.281327 0.622118 0.254683 0.078300
C49   C     C_R   0.700082 0.169010 0.803304 0.052379
C50   C     C_R   0.299863 0.669926 0.196740 0.052471
C51   C     C_R   0.741525 0.168876 0.866537 -0.144930
C52   C     C_R   0.258402 0.670165 0.133520 -0.144855
C53   C     C_R   0.800205 0.131121 0.873311 -0.191945
C54   C     C_R   0.199743 0.632056 0.126730 -0.191982
C55   C     C_R   0.675450 0.111296 0.682803 -0.226358
C56   C     C_R   0.324567 0.611047 0.317176 -0.226343
C57   C     C_R   0.598438 0.202921 0.734059 -0.071654
C58   C     C_R   0.401503 0.703855 0.265982 -0.071665
C59   C     C_R   0.881059 0.054275 0.824912 -0.079252
C60   C     C_R   0.118950 0.554131 0.175088 -0.079317
H19   H     H_    0.686239 0.074472 0.637073 0.098375
H20   H     H_    0.313814 0.573655 0.362875 0.098433
H21   H     H_    0.946037 0.983226 0.773304 0.104770
H22   H     H_    0.054035 0.482028 0.226657 0.104808
H23   H     H_    0.774793 0.042842 0.645723 0.106708
H24   H     H_    0.225274 0.541629 0.354237 0.106698
H25   H     H_    0.876933 0.979795 0.661517 0.119651
H26   H     H_    0.123170 0.478008 0.338421 0.119652
H27   H     H_    0.829677 0.133570 0.923358 0.112611
H28   H     H_    0.170257 0.634813 0.076694 0.112727
O11   O     O_R   0.053190 0.709680 0.082610 -0.531671
O12   O     O_R   0.946810 0.209680 0.917390 -0.531649
O13   O     O_R   0.057740 0.380240 0.950340 -0.539215
O14   O     O_R   0.942260 0.880240 0.049660 -0.539224
C61   C     C_R   0.071555 0.548973 0.932621 0.674561
C62   C     C_R   0.928445 0.048974 0.067379 0.674533
O15   O     O_R   0.060000 0.379940 0.084150 -0.531735
O16   O     O_R   0.940000 0.879940 0.915850 -0.531745
O17   O     O_R   0.949110 0.210100 0.052140 -0.538214
O18   O     O_R   0.050890 0.710100 0.947860 -0.538232
C63   C     C_R   0.074880 0.548234 0.108972 0.676557
C64   C     C_R   0.925123 0.048259 0.891028 0.676574
O19   O     O_3   0.963630 0.543720 0.989330 -0.371194
O20   O     O_3   0.036370 0.043720 0.010670 -0.371207
V3    V     V_3+5 0.006750 0.268680 0.001980 1.418314
V4    V     V_3+5 0.993250 0.768680 0.998020 1.418242
C65   C     C_2   0.620406 0.262462 0.857485 0.809991
O21   O     O_2   0.641326 0.397470 0.891098 -0.543409
O22   O     O_R   0.576772 0.158031 0.874351 -0.640931
H29   H     H_    0.566523 0.207054 0.915728 0.314627
C66   C     C_2   0.379455 0.764726 0.142628 0.809930
O23   O     O_2   0.358434 0.899945 0.109192 -0.543470
O24   O     O_R   0.423148 0.660948 0.125607 -0.640935
H30   H     H_    0.433354 0.710615 0.084289 0.314626
C67   C     C_2   0.536075 0.253132 0.727060 0.782897
O25   O     O_2   0.496742 0.154272 0.694562 -0.567579
O26   O     O_R   0.522479 0.414196 0.757293 -0.643768
H31   H     H_    0.478754 0.433391 0.748828 0.308638
C68   C     C_2   0.463838 0.754472 0.273011 0.783113
O27   O     O_2   0.503225 0.655546 0.305377 -0.567570
O28   O     O_R   0.477345 0.915996 0.242967 -0.643835
H32   H     H_    0.521058 0.935435 0.251438 0.308639

loop_
_geom_bond_atom_site_label_1
_geom_bond_atom_site_label_2
_ccdc_geom_bond_type
C61   O18   A    
C20   C32   S    
C29   C31   A    
C11   H5    S    
C21   H9    S    
O12   C64   A    
O1    C3    A    
O2    C4    A    
C46   C54   A    
C2    O7    A    
O14   C62   A    
O20   V3    S    
C55   H19   S    
O24   H30   S    
O5    C3    A    
C59   C64   S    
C44   C46   A    
H17   C51   S    
C60   C63   S    
C34   C50   A    
C15   C17   S    
C65   O22   S    
C36   C58   A    
C48   C50   A    
C41   H23   S    
C37   C59   A    
C22   C24   A    
C39   C41   A    
O12   V3    S    
C33   C57   A    
O14   V4    S    
C2    C35   S    
C12   H6    S    
C25   C27   A    
H18   C52   S    
C38   C60   A    
C13   H7    S    
C35   C57   A    
C27   C29   A    
O19   V4    S    
C48   C56   A    
C23   H11   S    
C47   C55   A    
O6    V2    S    
C53   H27   S    
C43   C45   A    
C22   H10   S    
C58   C68   S    
C10   C61   S    
C51   C53   A    
C28   H14   S    
C9    C62   S    
C4    C25   S    
C47   C49   A    
C24   H12   S    
C11   C13   A    
C54   H28   S    
C12   C14   A    
C21   C31   A    
C50   C52   A    
C22   C32   A    
C49   C51   A    
O17   V3    S    
C37   H21   S    
C34   C58   A    
C5    C7    A    
O16   C64   A    
C37   C39   A    
C14   H8    S    
O4    V2    S    
O13   V3    S    
C26   C28   A    
C23   C25   A    
O6    C4    A    
C19   C31   S    
O13   C61   A    
O1    V2    S    
O2    V1    S    
O15   V3    S    
C66   O23   D    
C42   C44   A    
C52   C54   A    
C29   H15   S    
C8    C10   A    
C67   O25   D    
C8    H4    S    
O4    C2    A    
C9    C11   A    
O26   H31   S    
O18   V4    S    
C57   C67   S    
O3    V1    S    
C41   C43   A    
C68   O27   D    
C7    C9    A    
C43   C47   A    
C6    C8    A    
O15   C63   A    
C1    C36   S    
O3    C1    A    
C36   C56   A    
C40   C42   A    
O22   H29   S    
C14   C16   A    
C35   C55   A    
O11   C63   A    
C24   C26   A    
C10   C12   A    
O16   V4    S    
C7    H3    S    
O7    V1    S    
C1    O8    A    
C17   C19   T    
C33   C65   S    
C56   H20   S    
C65   O21   D    
C16   C18   S    
C18   C20   T    
C45   C53   A    
C28   C30   A    
C33   C49   A    
C13   C15   A    
O5    V1    S    
C5    H1    S    
C30   H16   S    
C3    C26   S    
C6    H2    S    
C38   H22   S    
C66   O24   S    
C45   C59   A    
C42   H24   S    
C40   H26   S    
C30   C32   A    
C38   C40   A    
C44   C48   A    
O9    V2    S    
C67   O26   S    
O11   V4    S    
C21   C23   A    
O10   V1    S    
O8    V2    S    
C5    C15   A    
C27   H13   S    
C6    C16   A    
C34   C66   S    
O28   H32   S    
C46   C60   A    
C68   O28   S    
C62   O17   A    
C39   H25   S    
