data_mof_unit_15739.cif
_audit_creation_date              2013-03-05T16:31:37-0500
_audit_creation_method            fapswitch 2.2
_symmetry_space_group_name_H-M    P1
_symmetry_Int_Tables_number       1
_space_group_crystal_system       triclinic
_cell_length_a                    9.561491
_cell_length_b                    10.896846
_cell_length_c                    15.439852
_cell_angle_alpha                 89.484853
_cell_angle_beta                  74.483729
_cell_angle_gamma                 90.423514
_cell_volume                      1549.9077743

loop_
_atom_site_label
_atom_site_type_symbol
_atom_site_description
_atom_site_fract_x
_atom_site_fract_y
_atom_site_fract_z
_atom_type_partial_charge
O1    O     O_R   0.118810 0.319640 0.500000 -0.586787
O2    O     O_R   0.881230 0.319680 0.499990 -0.573646
C1    C     C_R   0.999533 0.262579 0.497990 0.808453
O3    O     O_R   0.055580 0.499970 0.629840 -0.563334
O4    O     O_R   0.818000 0.500010 0.629830 -0.589603
C2    C     C_R   0.918392 0.499361 0.672228 0.810420
Cu1   Cu    Cu3+1 0.140670 0.499980 0.500000 0.992956
Cu2   Cu    Cu3+1 0.859330 0.500020 0.500000 1.007088
O5    O     O_R   0.118770 0.680320 0.500010 -0.568659
O6    O     O_R   0.881190 0.680360 0.500000 -0.569201
O7    O     O_R   0.182000 0.499990 0.370170 -0.594456
O8    O     O_R   0.944420 0.500030 0.370160 -0.574520
C3    C     C_R   0.000044 0.736998 0.500678 0.853214
C4    C     C_R   0.081899 0.500634 0.327598 0.814134
C5    C     C_R   0.873918 0.497764 0.770915 -0.056913
C6    C     C_R   0.128616 0.513328 0.228967 -0.050728
C7    C     C_R   0.924206 0.458904 0.914000 -0.159872
C8    C     C_R   0.971695 0.467252 0.820644 -0.090650
C9    C     C_R   0.729571 0.523179 0.815496 -0.226358
C10   C     C_R   0.679838 0.519039 0.909817 0.121941
C11   C     C_R   0.778884 0.482646 0.958753 0.152568
C12   C     C_R   0.533115 0.544633 0.956279 0.005750
C13   C     C_R   0.483277 0.519130 0.049912 0.073677
C14   C     C_R   0.586408 0.484558 0.096429 -0.167724
C15   C     C_R   0.731445 0.468317 0.051636 -0.209565
C16   C     C_R   0.436436 0.598365 0.912347 -0.263272
C17   C     C_R   0.290934 0.618108 0.956293 0.292991
C18   C     C_R   0.236321 0.579144 0.046358 0.025477
C19   C     C_R   0.332651 0.530916 0.093985 0.056608
C20   C     C_R   0.086864 0.585738 0.089791 -0.139310
C21   C     C_R   0.034053 0.553856 0.180146 -0.147919
C22   C     C_R   0.274515 0.495220 0.184459 -0.209958
H1    H     H_    0.806323 0.441375 0.089936 0.143413
H2    H     H_    0.340121 0.452111 0.222409 0.139897
H3    H     H_    0.919863 0.563823 0.211895 0.170040
H4    H     H_    0.000593 0.431612 0.951110 0.137926
H5    H     H_    0.083615 0.446322 0.787321 0.172234
H6    H     H_    0.656378 0.541269 0.774787 0.163096
H7    H     H_    0.559947 0.471811 0.168140 0.132967
H8    H     H_    0.473340 0.633214 0.844448 0.196167
H9    H     H_    0.009269 0.616177 0.054794 0.189138
C23   C     C_R   0.119503 0.063192 0.494357 0.067833
C24   C     C_R   0.996487 0.129476 0.493547 -0.154690
C25   C     C_R   0.869405 0.060171 0.492178 -0.031469
C26   C     C_R   0.871839 0.931554 0.496966 -0.140072
H10   H     H_    0.773242 0.880558 0.499564 0.226927
C27   C     C_R   0.999150 0.869117 0.498800 -0.119272
C28   C     C_R   0.120881 0.939405 0.497093 0.029429
C29   C     C_3   0.270986 0.935023 0.508175 0.181693
C30   C     C_3   0.268481 0.076536 0.505914 -0.491412
H11   H     H_    0.350510 0.893263 0.450272 0.142136
H12   H     H_    0.266819 0.120565 0.570829 0.214175
H13   H     H_    0.345586 0.117868 0.445526 0.197446
C31   C     C_R   0.592300 0.592916 0.458437 0.241940
N1    N     N_R   0.648210 0.500930 0.499430 -0.216355
C32   C     C_R   0.552148 0.417295 0.549982 -0.032985
H14   H     H_    0.590341 0.349299 0.589434 0.153864
C33   C     C_R   0.403352 0.417234 0.549982 -0.053893
H15   H     H_    0.330201 0.348849 0.589234 0.132979
N2    N     N_R   0.352300 0.500890 0.499430 -0.186368
C34   C     C_R   0.445367 0.591628 0.457383 0.282994
C35   C     C_3   0.481259 0.624373 0.359990 -0.560651
C36   C     C_3   0.639792 0.627926 0.361161 0.093424
H16   H     H_    0.457548 0.548073 0.319022 0.179273
H17   H     H_    0.435354 0.714090 0.347498 0.228493
H18   H     H_    0.706798 0.556805 0.318853 0.110489
C37   C     C_2   0.730642 0.115022 0.488370 0.907800
O9    O     O_2   0.723558 0.176352 0.422974 -0.570972
O10   O     O_R   0.606622 0.092226 0.558678 -0.737581
H19   H     H_    0.519410 0.137837 0.550318 0.315476
N3    N     N_R   0.275307 0.884805 0.595657 0.176875
O11   O     O_R   0.377064 0.808657 0.600520 -0.312905
O12   O     O_R   0.179574 0.916192 0.669060 -0.295312
N4    N     N_R   0.703925 0.751423 0.346967 0.153013
O13   O     O_R   0.631307 0.846355 0.384530 -0.378552
O14   O     O_R   0.835422 0.767183 0.296346 -0.357366
N5    N     N_R   0.202034 0.681564 0.908731 0.120105
O15   O     O_R   0.221647 0.664074 0.823048 -0.320835
O16   O     O_R   0.123432 0.773738 0.945880 -0.313356

loop_
_geom_bond_atom_site_label_1
_geom_bond_atom_site_label_2
_geom_bond_distance
_ccdc_geom_bond_type
C5    C8    1.399342 A    
N1    C32   1.369186 A    
C9    C10   1.406045 A    
Cu1   Cu2   2.690032 S    
N5    O15   1.301532 A    
C6    C21   1.394752 A    
Cu1   O7    1.936644 S    
C1    C24   1.453088 S    
C16   C17   1.394331 A    
N4    O14   1.299928 A    
C13   C19   1.426092 A    
C18   C19   1.424029 A    
C8    H5    1.083062 S    
C19   C22   1.408271 A    
C20   C21   1.390571 A    
O7    C4    1.297985 A    
C31   C36   1.493238 S    
C33   N2    1.369704 A    
C14   H7    1.075192 S    
C32   H14   1.080878 S    
O5    C3    1.294003 A    
C35   H16   1.107323 S    
C2    C5    1.468194 S    
C29   H11   1.110503 S    
C30   H12   1.111422 S    
C13   C14   1.417635 A    
C20   H9    1.080444 S    
C7    H4    1.083613 S    
C26   C27   1.405644 A    
C36   H18   1.109198 S    
O10   H19   1.010746 S    
O3    Cu1   1.951449 S    
Cu2   N1    2.021093 S    
N5    O16   1.301358 A    
C30   H13   1.111517 S    
N4    O13   1.301746 A    
C37   O9    1.223042 D    
C14   C15   1.387604 A    
O3    C2    1.299791 A    
N3    O12   1.302247 A    
C33   H15   1.081283 S    
C26   H10   1.082030 S    
C7    C11   1.403538 A    
N2    C34   1.362836 A    
O1    C1    1.302707 A    
C22   H2    1.074029 S    
C5    C9    1.398631 A    
C24   C25   1.430980 A    
C35   C36   1.520957 S    
C9    H6    1.076513 S    
C27   C28   1.382788 A    
Cu2   O8    1.951449 S    
C7    C8    1.392471 A    
C23   C28   1.349444 A    
C23   C30   1.488425 S    
C28   C29   1.491205 S    
C36   N4    1.464796 S    
C10   C12   1.425286 A    
C12   C16   1.412004 A    
C21   H3    1.077276 S    
C23   C24   1.387666 A    
Cu1   N2    2.021113 S    
C25   C26   1.403493 A    
C3    C27   1.439841 S    
Cu1   O5    1.977797 S    
C11   C15   1.390565 A    
C31   N1    1.366977 A    
C35   H17   1.110794 S    
O1    Cu1   1.974685 S    
O2    Cu2   1.977796 S    
O8    C4    1.302863 A    
C17   N5    1.439959 S    
O6    C3    1.291734 A    
O4    Cu2   1.936641 S    
C31   C34   1.409307 A    
C6    C22   1.396719 A    
C18   C20   1.409487 A    
O2    C1    1.288282 A    
N3    O11   1.300269 A    
C16   H8    1.077360 S    
O4    C2    1.298533 A    
C32   C33   1.422714 A    
C4    C6    1.472774 S    
C34   C35   1.489548 S    
C10   C11   1.417030 A    
Cu2   O6    1.974685 S    
C29   C30   1.542638 S    
C29   N3    1.463713 S    
C17   C18   1.408646 A    
C12   C13   1.420042 A    
C25   C37   1.474411 S    
C37   O10   1.395838 S    
C15   H1    1.083960 S    
