data_mof_unit_60963.cif
_audit_creation_date              2012-12-11T19:05:41-0500
_audit_creation_method            fapswitch 2.2
_symmetry_space_group_name_H-M    P1
_symmetry_Int_Tables_number       1
_space_group_crystal_system       triclinic
_cell_length_a                    8.335998
_cell_length_b                    15.070898
_cell_length_c                    23.04146
_cell_angle_alpha                 99.008222
_cell_angle_beta                  89.306952
_cell_angle_gamma                 99.122002
_cell_volume                      2822.61884078

loop_
_atom_site_label
_atom_site_type_symbol
_atom_type_description
_atom_site_fract_x
_atom_site_fract_y
_atom_site_fract_z
_atom_type_partial_charge
Ba1   Ba    Ba6+2 0.856840 0.543240 0.473380 1.680429
Ba2   Ba    Ba6+2 0.332990 0.456840 0.526630 1.672641
C1    C     C_3   0.715958 0.873269 0.328075 -0.367667
C2    C     C_R   0.185306 0.537836 0.932969 -0.027545
C3    C     C_R   0.144880 0.526181 0.872225 0.594225
C4    C     C_3   0.223244 0.774855 0.321952 0.435329
C5    C     C_R   0.870094 0.466531 0.892959 0.581142
C6    C     C_R   0.915816 0.461412 0.951238 -0.024468
C7    C     C_R   0.072348 0.500965 0.971923 -0.053212
C8    C     C_R   0.337227 0.584336 0.955706 -0.052614
C9    C     C_R   0.372869 0.595770 0.016046 -0.078348
C10   C     C_R   0.263006 0.554910 0.054819 -0.025768
C11   C     C_R   0.115600 0.504329 0.031983 -0.054851
C12   C     C_3   0.684380 0.780631 0.348057 0.399411
C13   C     C_R   0.807373 0.419085 0.989809 -0.078530
C14   C     C_R   0.856535 0.413924 0.047022 -0.078008
C15   C     C_R   0.010922 0.457410 0.069037 -0.025688
C16   C     C_3   0.167513 0.765578 0.258276 0.317032
C17   C     C_R   0.064152 0.453261 0.126689 0.579662
C18   C     C_R   0.295355 0.565559 0.116032 0.573356
C19   C     C_2   0.811725 0.424887 0.763332 -0.111607
C20   C     C_3   0.768456 0.417515 0.698865 -0.038963
C21   C     C_1   0.001138 0.534252 0.690616 -0.005821
C22   C     C_2   0.039449 0.544026 0.747601 -0.074160
C23   C     C_3   0.467338 0.331806 0.346604 0.294889
C24   C     C_2   0.941803 0.485664 0.788517 0.195933
C25   C     C_R   0.413019 0.544508 0.235112 -0.121128
C26   C     C_R   0.454557 0.556796 0.295029 -0.054013
C27   C     C_R   0.183773 0.488914 0.317319 0.054428
C28   C     C_3   0.232162 0.734764 0.599076 0.320460
C29   C     C_R   0.135881 0.486782 0.258357 -0.057332
C30   C     C_R   0.249533 0.514380 0.214913 0.211320
C31   C     C_2   0.854240 0.496317 0.673016 -0.212386
C32   C     C_R   0.350914 0.821928 0.458308 -0.041395
C33   C     C_R   0.581174 0.789520 0.510589 0.070544
C34   C     C_3   0.416188 0.304716 0.282184 -0.397884
C35   C     C_R   0.773236 0.226795 0.503923 0.204434
C36   C     C_R   0.861467 0.168754 0.527305 -0.000709
C37   C     C_R   0.798587 0.076369 0.523602 -0.219531
C38   C     C_R   0.645824 0.039755 0.496094 0.012894
C39   C     C_R   0.559267 0.100010 0.471466 -0.066064
C40   C     C_3   0.221386 0.836880 0.609506 0.294529
C41   C     C_R   0.576275 0.945392 0.491758 0.025283
C42   C     C_R   0.422867 0.914103 0.462656 -0.014197
C43   C     C_R   0.343726 0.975365 0.438554 -0.096869
C44   C     C_R   0.411207 0.065657 0.442369 -0.042683
C45   C     C_3   0.029658 0.257135 0.677279 0.318470
C46   C     C_R   0.651223 0.881434 0.516588 -0.147346
C47   C     C_R   0.434401 0.760030 0.479865 -0.291117
C48   C     C_R   0.622914 0.193637 0.476162 0.034979
C49   C     C_3   0.976954 0.246840 0.376689 0.685511
C50   C     C_3   0.073501 0.167847 0.373196 -0.355292
C51   C     C_3   0.715338 0.676013 0.654550 0.287881
C52   C     C_3   0.713008 0.705294 0.720773 -0.373756
C53   C     C_3   0.429086 0.887111 0.679153 0.217833
C54   C     C_3   0.776940 0.191381 0.302948 0.262573
C55   C     C_3   0.805086 0.367714 0.557658 0.638059
C56   C     C_3   0.022509 0.227213 0.737448 -0.364523
C57   C     C_3   0.973718 0.689081 0.190074 0.260563
C58   C     C_3   0.497590 0.221381 0.663762 0.314705
C59   C     C_3   0.432536 0.133189 0.686193 -0.354873
C60   C     C_R   0.339889 0.529477 0.335630 -0.286664
H1    H     H_    0.760180 0.783894 0.387910 0.091418
H2    H     H_    0.588461 0.715218 0.734942 0.127337
H3    H     H_    0.553906 0.765815 0.359206 -0.098662
H4    H     H_    0.684455 0.926144 0.363670 0.076810
H5    H     H_    0.366048 0.358911 0.371304 0.008857
H6    H     H_    0.576308 0.385394 0.350242 0.062604
H7    H     H_    0.307487 0.250917 0.277622 0.138248
H8    H     H_    0.386498 0.363936 0.264076 0.066988
H9    H     H_    0.515706 0.278577 0.255858 0.103586
H10   H     H_    0.272877 0.754375 0.229412 0.005086
H11   H     H_    0.122917 0.319125 0.679040 0.086374
H12   H     H_    0.295872 0.872714 0.577351 -0.064094
H13   H     H_    0.908850 0.272819 0.667216 -0.021662
H14   H     H_    0.142465 0.211835 0.749468 0.150558
H15   H     H_    0.990338 0.282337 0.771186 0.073665
H16   H     H_    0.929376 0.165629 0.737112 0.113783
H17   H     H_    0.632228 0.228667 0.664659 -0.026506
H18   H     H_    0.454143 0.215689 0.617671 0.077912
H19   H     H_    0.481525 0.076329 0.658974 0.070194
H20   H     H_    0.258219 0.708845 0.328690 -0.030933
H21   H     H_    0.471054 0.137357 0.732641 0.113436
H22   H     H_    0.771390 0.378104 0.074581 0.115809
H23   H     H_    0.093714 0.844305 0.600978 0.073476
H24   H     H_    0.685817 0.387225 0.975244 0.119608
H25   H     H_    0.488908 0.634469 0.031988 0.114220
H26   H     H_    0.511320 0.557655 0.205227 0.131811
H27   H     H_    0.427214 0.614400 0.927187 0.128421
H28   H     H_    0.121334 0.604926 0.765969 0.120707
H29   H     H_    0.009802 0.462401 0.247910 0.158752
H30   H     H_    0.330723 0.829386 0.329650 -0.154093
H31   H     H_    0.379182 0.689402 0.476408 0.069178
H32   H     H_    0.228203 0.954699 0.415828 0.093031
H33   H     H_    0.762334 0.900967 0.541949 0.087466
H34   H     H_    0.991853 0.281488 0.422364 0.063905
H35   H     H_    0.344282 0.108134 0.422048 0.084226
H36   H     H_    0.126626 0.830325 0.251734 -0.009813
H37   H     H_    0.360003 0.725216 0.593489 -0.048203
H38   H     H_    0.458817 0.821473 0.688195 0.084108
H39   H     H_    0.460881 0.937813 0.719293 0.053298
H40   H     H_    0.504930 0.911078 0.642834 0.003216
H41   H     H_    0.656356 0.147791 0.295785 0.056860
H42   H     H_    0.772333 0.254836 0.284636 0.070384
H43   H     H_    0.865665 0.153329 0.277906 0.001606
H44   H     H_    0.048437 0.118109 0.332375 0.085684
H45   H     H_    0.044271 0.131172 0.411172 0.067100
H46   H     H_    0.840554 0.665934 0.641899 0.027961
H47   H     H_    0.846272 0.890550 0.317279 0.136251
H48   H     H_    0.640423 0.872532 0.288574 0.106799
H49   H     H_    0.298138 0.119033 0.682951 0.168284
H50   H     H_    0.746415 0.373103 0.786186 0.128761
H51   H     H_    0.375775 0.534152 0.381117 0.072608
H52   H     H_    0.799475 0.516101 0.636080 -0.043404
H53   H     H_    0.765922 0.327062 0.593059 -0.466876
H54   H     H_    0.735362 0.420849 0.551925 0.079583
H55   H     H_    0.909361 0.415328 0.573460 0.063995
H56   H     H_    0.204283 0.194451 0.373836 0.111654
H57   H     H_    0.872229 0.035262 0.542399 0.099298
H58   H     H_    0.884667 0.625704 0.179121 0.072017
H59   H     H_    0.067773 0.688825 0.155403 -0.005064
H60   H     H_    0.907461 0.747586 0.190050 0.041898
H61   H     H_    0.162491 0.703861 0.558163 0.006710
H62   H     H_    0.625616 0.612871 0.643248 0.070991
H63   H     H_    0.798110 0.769863 0.733588 0.127342
H64   H     H_    0.750586 0.652088 0.743533 0.084693
N1    N     N_R   0.985976 0.492865 0.851787 -0.423955
N2    N     N_R   0.202495 0.510766 0.152149 -0.415951
O1    O     O_2   0.889550 0.449620 0.359410 -0.458696
O2    O     O_2   0.199226 0.177463 0.532415 -0.485571
O3    O     O_3   0.069834 0.186590 0.635127 -0.604007
O4    O     O_3   0.130120 0.450560 0.430480 -0.492878
O5    O     O_3   0.576410 0.610420 0.531990 -0.499728
O6    O     O_2   0.341630 0.276020 0.466390 -0.483851
O7    O     O_3   0.503391 0.254670 0.367484 -0.625648
O8    O     O_2   0.454446 0.471620 0.707587 -0.437305
O9    O     O_3   0.442966 0.295128 0.699467 -0.586751
O10   O     O_2   0.253038 0.544392 0.837843 -0.575041
O11   O     O_2   0.725866 0.449717 0.879842 -0.588384
O12   O     O_3   0.672698 0.744466 0.626710 -0.654300
O13   O     O_2   0.988622 0.396151 0.152954 -0.616413
O14   O     O_2   0.403401 0.626110 0.136899 -0.619753
O15   O     O_3   0.674100 0.616440 0.398760 -0.492378
O16   O     O_2   0.787116 0.548654 0.295063 -0.453677
O17   O     O_3   0.041129 0.306235 0.337975 -0.685203
O18   O     O_3   0.725989 0.714412 0.302885 -0.559871
O19   O     O_2   0.848070 0.724010 0.533650 -0.472571
O20   O     O_3   0.092910 0.663610 0.428710 -0.463446
O21   O     O_2   0.015473 0.824583 0.469790 -0.501013
O22   O     O_3   0.260831 0.878747 0.668055 -0.622518
O23   O     O_3   0.097450 0.799080 0.359358 -0.590112
O24   O     O_3   0.810724 0.212160 0.364198 -0.679445
O25   O     O_3   0.840671 0.316513 0.504263 -0.689812
O26   O     O_3   0.041282 0.690633 0.246076 -0.603608
O27   O     O_2   0.300150 0.550410 0.640630 -0.451340
O28   O     O_3   0.059590 0.549510 0.569530 -0.521725
O29   O     O_3   0.515610 0.383640 0.601250 -0.496432
O30   O     O_3   0.171343 0.696695 0.648042 -0.618678
O31   O     O_3   0.613300 0.389650 0.468010 -0.475307
O32   O     O_3   0.096810 0.336470 0.571300 -0.481408
P1    P     P_3+3 0.056010 0.422560 0.367570 1.000044
P2    P     P_3+3 0.670430 0.710550 0.550450 0.966682
P3    P     P_3+3 0.140817 0.779869 0.430007 0.948958
P4    P     P_3+3 0.133710 0.577520 0.632440 0.980464
P5    P     P_3+3 0.057493 0.217087 0.565233 0.994623
P6    P     P_3+3 0.660468 0.606889 0.322291 1.000654
P7    P     P_3+3 0.521372 0.276562 0.444052 1.008725
P8    P     P_3+3 0.545666 0.395043 0.677935 1.003867

loop_
_geom_bond_atom_site_label_1
_geom_bond_atom_site_label_2
_ccdc_geom_bond_type
C57   H59   S    
C36   P5    S    
C19   C24   D    
C58   H17   S    
Ba2   O27   S    
C4    H20   S    
C46   H33   S    
C51   O12   S    
C23   H5    S    
Ba1   O4    S    
O5    P2    S    
C56   H14   S    
C3    O10   D    
C55   H53   S    
C51   C52   S    
C42   C43   A    
C52   H64   S    
C53   H40   S    
C31   H52   S    
Ba2   O6    S    
O17   P1    S    
C22   C24   S    
C53   H39   S    
C18   N2    Am   
Ba1   O1    S    
C36   C37   A    
C4    H30   S    
C33   C46   A    
C1    H48   S    
O12   P2    S    
C13   C14   A    
C17   N2    Am   
C14   H22   S    
Ba1   Ba2   S    
C8    H27   S    
C7    C11   A    
O4    P1    S    
C56   H15   S    
C38   C41   A    
C50   H45   S    
C9    H25   S    
C6    C7    A    
C21   C31   D    
C53   H38   S    
C33   C47   A    
Ba2   O4    S    
C21   C22   D    
O21   P3    D    
C54   O24   S    
C41   C46   A    
C16   O26   S    
C34   H9    S    
C26   P6    S    
C58   O9    S    
C20   P8    S    
C57   H60   S    
O18   P6    S    
C50   H44   S    
C17   O13   D    
C19   C20   S    
C10   C18   A    
C23   H6    S    
Ba1   O5    S    
C43   H32   S    
O29   P8    S    
C57   O26   S    
C34   H8    S    
O7    P7    S    
C55   H54   S    
C57   H58   S    
C16   H10   S    
C4    C16   S    
C52   H63   S    
C40   H12   S    
C33   P2    S    
C49   C50   S    
Ba2   O5    S    
C27   P1    S    
C5    C6    A    
C32   C42   A    
C45   H11   S    
C60   H51   S    
C32   P3    S    
C59   H21   S    
Ba2   P4    S    
C37   C38   A    
C14   C15   A    
O8    P8    D    
C43   C44   A    
C55   O25   S    
C28   H37   S    
O19   P2    D    
O16   P6    D    
C58   C59   S    
Ba1   O28   S    
C41   C42   A    
O15   P6    S    
C35   C36   A    
Ba1   O15   S    
C18   O14   D    
C29   C30   A    
Ba1   O31   S    
C39   C44   A    
C3    N1    Am   
O3    P5    S    
O1    P1    D    
C40   H23   S    
O32   P5    S    
C28   H61   S    
C54   H42   S    
C1    C12   S    
C13   H24   S    
C4    O23   S    
C38   C39   A    
C44   H35   S    
C49   O24   S    
C6    C13   A    
O23   P3    S    
Ba1   O19   S    
C1    H4    S    
Ba2   O31   S    
C2    C8    A    
C59   H49   S    
C39   C48   A    
C25   C26   A    
C19   H50   S    
C34   H7    S    
C53   O22   S    
C55   H55   S    
C21   P4    S    
C28   O30   S    
C20   C31   S    
C12   O18   S    
C27   C60   A    
C58   H18   S    
C32   C47   A    
Ba2   O28   S    
C25   C30   A    
O20   P3    S    
C54   H41   S    
C2    C3    A    
C51   H62   S    
C22   H28   S    
Ba1   P2    S    
C9    C10   A    
O30   P4    S    
O27   P4    D    
C49   H34   S    
C29   H29   S    
C11   C15   A    
C47   H31   S    
C30   N2    S    
C35   O25   S    
C45   H13   S    
C27   C29   A    
C59   H19   S    
C45   C56   S    
C5    O11   D    
C35   C48   A    
O2    P5    D    
C52   H2    S    
C1    H47   S    
Ba2   O29   S    
C37   H57   S    
C12   H1    S    
C15   C17   A    
C12   H3    S    
O31   P7    S    
C24   N1    S    
C25   H26   S    
C40   O22   S    
C54   H43   S    
C8    C9    A    
C56   H16   S    
C23   C34   S    
Ba1   P1    S    
C10   C11   A    
O28   P4    S    
Ba2   O32   S    
C23   O7    S    
C45   O3    S    
C48   P7    S    
C51   H46   S    
C49   O17   S    
O6    P7    D    
C28   C40   S    
Ba1   O20   S    
C16   H36   S    
C5    N1    Am   
C2    C7    A    
O9    P8    S    
C26   C60   A    
C50   H56   S    
