data_mof_unit_59492.cif
_audit_creation_date              2012-12-10T17:13:34-0500
_audit_creation_method            fapswitch 2.2
_symmetry_space_group_name_H-M    P1
_symmetry_Int_Tables_number       1
_space_group_crystal_system       triclinic
_cell_length_a                    27.680174
_cell_length_b                    10.702234
_cell_length_c                    9.998057
_cell_angle_alpha                 89.073956
_cell_angle_beta                  90.882856
_cell_angle_gamma                 89.91584
_cell_volume                      2961.07862365

loop_
_atom_site_label
_atom_site_type_symbol
_atom_type_description
_atom_site_fract_x
_atom_site_fract_y
_atom_site_fract_z
_atom_type_partial_charge
C1    C     C_R   0.503090 0.262880 0.501241 0.891065
C2    C     C_R   0.975320 0.383374 0.523708 -0.049441
C3    C     C_R   0.976062 0.603688 0.449802 -0.072682
C4    C     C_R   0.406044 0.497408 0.498884 0.959669
C5    C     C_R   0.950375 0.495350 0.490019 -0.042044
C6    C     C_R   0.950123 0.288950 0.595481 0.465544
C7    C     C_R   0.899577 0.288914 0.596451 0.401522
C8    C     C_R   0.873914 0.394377 0.547514 -0.184408
C9    C     C_R   0.899566 0.500545 0.501866 -0.207614
C10   C     C_R   0.874419 0.611978 0.467784 -0.187746
C11   C     C_R   0.823680 0.610770 0.468055 0.705230
C12   C     C_R   0.274383 0.537378 0.577517 0.547044
C13   C     C_R   0.823214 0.399183 0.547319 0.689136
C14   C     C_R   0.723773 0.536952 0.619823 0.546786
C15   C     C_R   0.673354 0.531388 0.622240 0.302811
C16   C     C_R   0.498572 0.737440 0.498528 0.849163
C17   C     C_R   0.672798 0.470707 0.387557 0.485162
C18   C     C_R   0.722977 0.472535 0.388493 0.555953
C19   C     C_R   0.748274 0.505883 0.504161 -0.125332
C20   C     C_R   0.025213 0.374078 0.496437 -0.080757
C21   C     C_R   0.050910 0.482068 0.456475 -0.054206
C22   C     C_R   0.026122 0.594425 0.422831 -0.104353
C23   C     C_R   0.252952 0.476638 0.468957 -0.086911
C24   C     C_R   0.049884 0.258468 0.498295 0.558261
C25   C     C_R   0.102405 0.688190 0.355408 0.591976
C26   C     C_R   0.951102 0.719582 0.448930 0.424847
C27   C     C_R   0.900615 0.722018 0.440563 0.414483
C28   C     C_R   0.594183 0.500217 0.501149 1.021437
C29   C     C_R   0.052087 0.689679 0.353814 0.452089
C30   C     C_2   0.518820 0.934186 0.402884 0.527630
C31   C     C_2   0.492093 0.870022 0.491841 0.216858
C32   C     C_2   0.515611 0.068173 0.393669 -0.192331
C33   C     C_2   0.513147 0.132748 0.505706 -0.310727
C34   C     C_R   0.101763 0.476745 0.447164 -0.216076
C35   C     C_2   0.527215 0.573467 0.925037 0.625792
C36   C     C_2   0.534169 0.547342 0.073729 -0.014535
C37   C     C_R   0.177433 0.366970 0.484634 0.688940
C38   C     C_R   0.178191 0.581054 0.413491 0.671087
C39   C     C_R   0.281292 0.418255 0.373398 0.404707
C40   C     C_R   0.331548 0.417731 0.388900 0.330449
C41   C     C_R   0.324659 0.540159 0.592402 0.304280
C42   C     C_3   0.343794 0.533910 0.814165 -0.104742
C43   C     C_3   0.258198 0.434487 0.155324 -0.188113
C44   C     C_3   0.986560 0.844519 0.603012 -0.180393
C45   C     C_R   0.126720 0.364642 0.479054 -0.199554
C46   C     C_3   0.880529 0.874001 0.288647 -0.183248
C47   C     C_3   0.014408 0.731013 0.154707 -0.259478
C48   C     C_3   0.414587 0.866105 0.576585 -0.217771
C49   C     C_3   0.560128 0.772131 0.940851 -0.217175
C50   C     C_3   0.120528 0.091726 0.640685 -0.092069
C51   C     C_3   0.651551 0.464960 0.829618 -0.027585
C52   C     C_3   0.874523 0.088206 0.576681 -0.036454
C53   C     C_3   0.987610 0.252548 0.795920 -0.297817
C54   C     C_3   0.368257 0.233316 0.347283 -0.126686
C55   C     C_R   0.100319 0.253851 0.500858 0.415270
C56   C     C_R   0.127648 0.583795 0.406550 -0.234792
C57   C     C_R   0.353425 0.485130 0.494171 -0.420129
C58   C     C_R   0.647336 0.500941 0.503899 -0.470395
F1    F     F_    0.125984 0.786509 0.298880 -0.561575
F2    F     F_    0.649390 0.437241 0.273273 -0.606727
F3    F     F_    0.747240 0.441716 0.276748 -0.589845
F4    F     F_    0.548794 0.875901 0.316705 -0.665837
F5    F     F_    0.246187 0.595898 0.667223 -0.628670
F6    F     F_    0.488839 0.390304 0.906147 -0.543722
F7    F     F_    0.455819 0.504919 0.094838 -0.525017
F8    F     F_    0.749113 0.572978 0.729980 -0.605311
F9    F     F_    0.025634 0.149223 0.483177 -0.609483
H1    H     H_    0.514603 0.112525 0.295129 0.203027
H2    H     H_    0.012916 0.771927 0.637695 0.125622
H3    H     H_    0.953601 0.841294 0.665477 0.135690
H4    H     H_    0.003741 0.936863 0.617691 0.249368
H5    H     H_    0.858587 0.959965 0.273183 0.192118
H6    H     H_    0.865761 0.801945 0.220079 0.169111
H7    H     H_    0.918373 0.897221 0.262120 0.191037
H8    H     H_    0.986758 0.656853 0.169085 0.133123
H9    H     H_    0.045702 0.693855 0.098960 0.161665
H10   H     H_    0.997570 0.806306 0.092226 0.189438
H11   H     H_    0.416775 0.783612 0.645179 0.218636
H12   H     H_    0.518670 0.088677 0.603553 0.206710
H13   H     H_    0.402220 0.838010 0.474845 0.138002
H14   H     H_    0.386825 0.929921 0.616189 0.208858
H15   H     H_    0.590686 0.755203 0.012171 0.192476
H16   H     H_    0.526803 0.798980 0.994592 0.167422
H17   H     H_    0.570190 0.852734 0.875976 0.215650
H18   H     H_    0.082750 0.067986 0.667283 0.156505
H19   H     H_    0.136060 0.158496 0.714001 0.127830
H20   H     H_    0.142057 0.004339 0.648515 0.207341
H21   H     H_    0.689216 0.444180 0.863321 0.203848
H22   H     H_    0.634471 0.379655 0.787709 0.120343
H23   H     H_    0.568239 0.571940 0.121179 0.119037
H24   H     H_    0.631002 0.490955 0.919365 0.178933
H25   H     H_    0.911355 0.051724 0.557438 0.198512
H26   H     H_    0.855587 0.111220 0.480324 0.158677
H27   H     H_    0.853959 0.012376 0.626764 0.212307
H28   H     H_    0.955455 0.285500 0.850962 0.188090
H29   H     H_    0.013748 0.330367 0.781726 0.139811
H30   H     H_    0.005785 0.179693 0.858869 0.194961
H31   H     H_    0.334093 0.179774 0.359047 0.180723
H32   H     H_    0.388765 0.234882 0.443919 0.118390
H33   H     H_    0.390808 0.183292 0.274556 0.190639
H34   H     H_    0.360915 0.440611 0.801881 0.168946
H35   H     H_    0.306052 0.522728 0.848802 0.170873
H36   H     H_    0.364348 0.582764 0.893763 0.203827
H37   H     H_    0.295202 0.459471 0.122225 0.183470
H38   H     H_    0.236849 0.520553 0.173617 0.168088
H39   H     H_    0.240160 0.384408 0.072158 0.189065
N1    N     N_R   0.201594 0.474851 0.455415 -0.310723
N2    N     N_R   0.799717 0.505077 0.505453 -0.299914
N3    N     N_2   0.500520 0.501330 0.852150 0.142978
N4    N     N_2   0.500540 0.501360 0.147810 0.179908
O1    O     O_R   0.499990 0.319060 0.613040 -0.585067
O2    O     O_R   0.571240 0.499960 0.613080 -0.581920
O3    O     O_R   0.571250 0.500000 0.386950 -0.582438
O4    O     O_2   0.202658 0.263711 0.521419 -0.491701
O5    O     O_3   0.345647 0.606777 0.695440 -0.586625
O6    O     O_3   0.259540 0.354977 0.269169 -0.554464
O7    O     O_3   0.974903 0.831979 0.466053 -0.527774
O8    O     O_3   0.877173 0.835551 0.423850 -0.586670
O9    O     O_3   0.029310 0.782104 0.277752 -0.498899
O10   O     O_3   0.459182 0.929961 0.573775 -0.652423
O11   O     O_3   0.552671 0.667469 0.859149 -0.611347
O12   O     O_2   0.797199 0.299216 0.587404 -0.497672
O13   O     O_3   0.123368 0.138996 0.508427 -0.500857
O14   O     O_3   0.649684 0.565798 0.736874 -0.525245
O15   O     O_3   0.875949 0.192194 0.661486 -0.567750
O16   O     O_3   0.974093 0.199336 0.672821 -0.569918
O17   O     O_3   0.359131 0.355121 0.297076 -0.538726
O18   O     O_2   0.204009 0.683450 0.379986 -0.460618
O19   O     O_2   0.798143 0.713538 0.431314 -0.478421
O20   O     O_R   0.500010 0.319100 0.386900 -0.604881
O21   O     O_R   0.428750 0.500000 0.613050 -0.598625
O22   O     O_R   0.428760 0.500040 0.386920 -0.536756
O23   O     O_R   0.499990 0.680900 0.613100 -0.587416
O24   O     O_R   0.500010 0.680940 0.386960 -0.605073
Zn1   Zn    Zn3+2 0.499990 0.499970 0.650990 1.101736
Zn2   Zn    Zn3+2 0.500010 0.500030 0.349010 1.113690

loop_
_geom_bond_atom_site_label_1
_geom_bond_atom_site_label_2
_ccdc_geom_bond_type
C10   C27   A    
C34   C56   A    
C8    C13   A    
C22   C29   A    
C53   H28   S    
N4    Zn2   S    
C35   C36   S    
C26   O7    S    
C16   O24   A    
C42   H36   S    
C1    C33   S    
C7    C8    A    
C48   O10   S    
C28   O2    A    
C24   C55   A    
C29   O9    S    
C12   C23   A    
C26   C27   A    
C49   H17   S    
C47   H9    S    
C37   N1    A    
O21   Zn1   S    
C30   C31   D    
N3    Zn1   S    
C42   H35   S    
C48   H14   S    
C46   O8    S    
C44   H4    S    
C18   C19   A    
C43   H38   S    
C48   H11   S    
C38   N1    A    
C43   H37   S    
C50   H18   S    
C51   H24   S    
O1    Zn1   S    
C20   C24   A    
C8    C9    A    
O3    Zn2   S    
C4    C57   S    
C25   C56   A    
C52   H27   S    
C9    C10   A    
C46   H5    S    
C35   N3    D    
C17   C58   A    
C32   H1    S    
C19   N2    S    
C47   O9    S    
C49   O11   S    
C21   C22   A    
C53   H29   S    
C51   O14   S    
C54   H33   S    
C2    C6    A    
C41   O5    S    
C13   N2    A    
C16   O23   A    
C11   O19   S    
C4    O21   A    
C25   C29   A    
F7    N4    S    
C55   O13   S    
C15   O14   S    
C2    C20   A    
C35   O11   S    
C6    O16   S    
C4    O22   A    
C1    O20   A    
C28   O3    A    
C39   C40   A    
C12   F5    S    
C33   H12   S    
O24   Zn2   S    
C21   C34   A    
C53   H30   S    
C40   O17   S    
C16   C31   S    
C43   H39   S    
C49   H15   S    
C5    C9    A    
C12   C41   A    
C43   O6    S    
O22   Zn2   S    
C23   N1    S    
C17   C18   A    
C14   F8    S    
C52   H26   S    
C34   C45   A    
C7    O15   S    
C44   H3    S    
C50   H20   S    
C30   F4    S    
C36   N4    D    
C15   C58   A    
C54   H32   S    
C52   H25   S    
C2    C5    A    
C47   H10   S    
O2    Zn1   S    
C37   C45   A    
C42   H34   S    
C3    C5    A    
C46   H7    S    
C27   O8    S    
C36   H23   S    
C40   C57   A    
C14   C19   A    
C3    C26   A    
O20   Zn2   S    
C50   O13   S    
C24   F9    S    
C51   H21   S    
C38   O18   S    
C52   O15   S    
C18   F3    S    
C6    C7    A    
C37   O4    S    
C28   C58   S    
C54   O17   S    
C32   C33   D    
C49   H16   S    
C41   C57   A    
C1    O1    A    
C30   C32   S    
C13   O12   S    
C48   H13   S    
F6    N3    S    
C44   O7    S    
C23   C39   A    
C31   O10   S    
C10   C11   A    
C50   H19   S    
C17   F2    S    
C47   H8    S    
C42   O5    S    
C38   C56   A    
C20   C21   A    
C45   C55   A    
C39   O6    S    
C11   N2    A    
O23   Zn1   S    
C44   H2    S    
C14   C15   A    
C54   H31   S    
C3    C22   A    
C25   F1    S    
C53   O16   S    
C46   H6    S    
C51   H22   S    
