data_mof_unit_41531.cif
_audit_creation_date              2012-12-10T17:35:45-0500
_audit_creation_method            fapswitch 2.2
_symmetry_space_group_name_H-M    P1
_symmetry_Int_Tables_number       1
_space_group_crystal_system       triclinic
_cell_length_a                    10.573952
_cell_length_b                    12.136281
_cell_length_c                    13.01714
_cell_angle_alpha                 92.202811
_cell_angle_beta                  92.543439
_cell_angle_gamma                 88.442915
_cell_volume                      1667.04784963

loop_
_atom_site_label
_atom_site_type_symbol
_atom_type_description
_atom_site_fract_x
_atom_site_fract_y
_atom_site_fract_z
_atom_type_partial_charge
C1    C     C_R   0.495749 0.519743 0.699602 0.865124
C2    C     C_R   0.497395 0.479996 0.299996 0.866001
C3    C     C_R   0.471142 0.433684 0.869404 0.098017
C4    C     C_R   0.471085 0.565550 0.127310 0.110861
C5    C     C_R   0.492205 0.445379 0.975998 0.109835
C6    C     C_R   0.493047 0.552387 0.022560 0.111654
C7    C     C_R   0.376598 0.949643 0.405152 -0.319350
C8    C     C_R   0.621439 0.050674 0.597004 -0.318275
C9    C     C_R   0.386916 0.836113 0.416170 0.024057
C10   C     C_R   0.610198 0.164454 0.586839 0.029337
C11   C     C_R   0.557648 0.860193 0.539409 0.278830
C12   C     C_R   0.442672 0.139816 0.460489 0.274899
C13   C     C_R   0.545487 0.977463 0.534729 0.050568
C14   C     C_R   0.454423 0.022676 0.465774 0.047216
C15   C     C_R   0.741915 0.501244 0.500098 0.915474
C16   C     C_R   0.257570 0.498395 0.498284 0.893234
C17   C     C_3   0.963451 0.535676 0.591496 0.104496
C18   C     C_3   0.034323 0.462547 0.405543 0.098936
C19   C     C_3   0.039567 0.601509 0.518097 0.448264
C20   C     C_3   0.958362 0.397222 0.479141 0.451959
C21   C     C_3   0.122180 0.497325 0.497126 -0.185439
C22   C     C_3   0.876427 0.501308 0.499833 -0.188630
C23   C     C_3   0.047029 0.431420 0.571247 -0.330147
C24   C     C_3   0.950918 0.567177 0.425652 -0.316507
C25   C     C_R   0.493294 0.471444 0.188730 -0.071622
C26   C     C_R   0.492404 0.527624 0.810303 -0.065264
C27   C     C_R   0.515255 0.643053 0.963133 -0.232187
C28   C     C_R   0.512892 0.353794 0.037407 -0.238388
C29   C     C_R   0.518869 0.629815 0.858166 -0.242744
C30   C     C_R   0.518177 0.367576 0.142768 -0.246605
H1    H     H_    0.085048 0.373785 0.629435 0.180128
H2    H     H_    0.908466 0.622730 0.366942 0.177788
H3    H     H_    0.538451 0.295665 0.188119 0.183172
H4    H     H_    0.539902 0.700718 0.814348 0.168251
H5    H     H_    0.536049 0.723595 0.997206 0.141148
H6    H     H_    0.532307 0.271905 0.005342 0.142101
H7    H     H_    0.670465 0.218750 0.633773 0.151621
H8    H     H_    0.322782 0.782609 0.373115 0.171200
H9    H     H_    0.305157 0.977941 0.349811 0.174167
H10   H     H_    0.691145 0.022341 0.653721 0.171373
N1    N     N_R   0.523490 0.207800 0.519350 -0.115861
N2    N     N_R   0.476510 0.792200 0.480650 -0.118878
O1    O     O_R   0.506270 0.421700 0.658830 -0.628872
O2    O     O_R   0.493730 0.578300 0.341170 -0.627302
O3    O     O_R   0.491200 0.609310 0.646410 -0.639746
O4    O     O_R   0.508800 0.390690 0.353590 -0.643411
O5    O     O_R   0.693580 0.406210 0.506230 -0.567286
O6    O     O_R   0.306420 0.593790 0.493770 -0.569867
O7    O     O_R   0.678510 0.593830 0.493810 -0.647632
O8    O     O_R   0.321490 0.406170 0.506190 -0.646425
Zn1   Zn    Zn3+2 0.510060 0.374730 0.508290 0.948885
Zn2   Zn    Zn3+2 0.489940 0.625270 0.491710 0.948579
Cl1   Cl    Cl    0.093613 0.739055 0.539501 -0.662576
Cl2   Cl    Cl    0.904383 0.259423 0.459030 -0.663516
C31   C     C_3   0.916210 0.569266 0.697936 -0.403502
C32   C     C_3   0.023705 0.606251 0.772184 -0.802484
H11   H     H_    0.099456 0.541456 0.776869 0.253818
H12   H     H_    0.064254 0.683543 0.746988 0.296009
H13   H     H_    0.986787 0.621999 0.850056 0.238203
H14   H     H_    0.843843 0.636426 0.691312 0.206393
H15   H     H_    0.870342 0.497360 0.729547 0.202412
C33   C     C_3   0.074377 0.424080 0.298307 -0.406467
C34   C     C_3   0.961200 0.393678 0.226961 -0.798885
H16   H     H_    0.913692 0.320723 0.254387 0.296355
H17   H     H_    0.891891 0.463930 0.222239 0.251070
H18   H     H_    0.994265 0.373220 0.148562 0.237599
H19   H     H_    0.123137 0.491819 0.264136 0.202206
H20   H     H_    0.141801 0.353096 0.303701 0.212216
C35   C     C_3   0.406969 0.673633 0.166052 -0.388627
C36   C     C_3   0.273273 0.654655 0.200188 -0.872476
H21   H     H_    0.220190 0.603948 0.140820 0.258788
H22   H     H_    0.275970 0.613511 0.274561 0.264113
H23   H     H_    0.221449 0.734923 0.210184 0.244749
H24   H     H_    0.465785 0.717544 0.226182 0.224085
H25   H     H_    0.392272 0.734333 0.105213 0.198552
C37   C     C_3   0.413005 0.326853 0.823436 -0.376956
C38   C     C_3   0.281248 0.347755 0.774224 -0.827451
H26   H     H_    0.281283 0.411894 0.716155 0.262025
H27   H     H_    0.246556 0.270200 0.736087 0.246777
H28   H     H_    0.214729 0.374741 0.834468 0.243277
H29   H     H_    0.476730 0.282786 0.769487 0.222735
H30   H     H_    0.397138 0.265580 0.881853 0.191977
C39   C     C_3   0.337505 0.187574 0.391809 -0.452041
C40   C     C_3   0.207828 0.173381 0.436955 -0.782188
H31   H     H_    0.193490 0.233910 0.501510 0.285327
H32   H     H_    0.132830 0.185459 0.376046 0.277447
H33   H     H_    0.196553 0.090222 0.467075 0.272824
H34   H     H_    0.348725 0.274498 0.378223 0.263855
H35   H     H_    0.340222 0.148349 0.313462 0.173288
C41   C     C_3   0.661828 0.812336 0.608955 -0.460522
C42   C     C_3   0.792335 0.826537 0.565570 -0.776048
H36   H     H_    0.866254 0.809173 0.626172 0.277191
H37   H     H_    0.805548 0.769274 0.498301 0.285456
H38   H     H_    0.806213 0.911273 0.540140 0.273656
H39   H     H_    0.657851 0.850970 0.687459 0.171443
H40   H     H_    0.650356 0.725357 0.621644 0.263160

loop_
_geom_bond_atom_site_label_1
_geom_bond_atom_site_label_2
_ccdc_geom_bond_type
C31   C32   S    
C34   H17   S    
C16   C21   S    
C27   C29   A    
C18   C21   S    
C40   H33   S    
C15   O5    A    
C1    O3    A    
C16   O6    A    
C4    C25   A    
C41   H39   S    
C15   C22   S    
C38   H26   S    
C2    O4    A    
C9    N2    A    
C33   C34   S    
C33   H19   S    
C10   H7    S    
C18   C24   S    
C19   C21   S    
C16   O8    A    
C5    C6    A    
C31   H15   S    
C32   H11   S    
C11   N2    A    
C1    O1    A    
C7    C14   A    
C6    C27   A    
C2    O2    A    
C36   H21   S    
C17   C31   S    
O2    Zn2   S    
C39   H34   S    
C34   H18   S    
C31   H14   S    
C10   N1    A    
C4    C35   S    
C38   H27   S    
C39   H35   S    
C37   C38   S    
C20   Cl2   S    
C37   H30   S    
C42   H36   S    
C18   C33   S    
O5    Zn1   S    
O3    Zn2   S    
C27   H5    S    
C29   H4    S    
C12   C39   S    
C23   H1    S    
C24   H2    S    
C12   N1    A    
C42   H37   S    
C5    C28   A    
C39   C40   S    
C20   C23   S    
O7    Zn2   S    
C36   H23   S    
O8    Zn1   S    
C35   H24   S    
C17   C23   S    
C40   H31   S    
C3    C37   S    
C4    C6    A    
C12   C14   A    
C21   C23   S    
C1    C26   S    
C22   C24   S    
C38   H28   S    
C25   C30   A    
C7    C9    A    
C30   H3    S    
C3    C26   A    
C20   C22   S    
C3    C5    A    
C37   H29   S    
C41   H40   S    
C17   C22   S    
C32   H13   S    
C33   H20   S    
C28   C30   A    
C19   C24   S    
C42   H38   S    
C11   C13   A    
C11   C41   S    
C19   Cl1   S    
C41   C42   S    
O1    Zn1   S    
O4    Zn1   S    
C9    H8    S    
C17   C19   S    
C32   H12   S    
C35   H25   S    
C2    C25   S    
C18   C20   S    
C15   O7    A    
C35   C36   S    
C34   H16   S    
C8    C13   A    
O6    Zn2   S    
C28   H6    S    
C26   C29   A    
C8    C10   A    
C7    H9    S    
C40   H32   S    
C36   H22   S    
C8    H10   S    
C13   C14   A    
N1    Zn1   S    
N2    Zn2   S    
