data_mof_unit_35786.cif
_audit_creation_date              2012-12-10T18:42:32-0500
_audit_creation_method            fapswitch 2.2
_symmetry_space_group_name_H-M    P1
_symmetry_Int_Tables_number       1
_space_group_crystal_system       triclinic
_cell_length_a                    8.581684
_cell_length_b                    10.643073
_cell_length_c                    9.923543
_cell_angle_alpha                 89.479674
_cell_angle_beta                  98.227395
_cell_angle_gamma                 91.031964
_cell_volume                      896.878336903

loop_
_atom_site_label
_atom_site_type_symbol
_atom_type_description
_atom_site_fract_x
_atom_site_fract_y
_atom_site_fract_z
_atom_type_partial_charge
C1    C     C_R   0.503567 0.260545 0.500730 0.884118
C2    C     C_R   0.496427 0.739455 0.499270 0.884105
C3    C     C_R   0.201520 0.499802 0.464464 0.954191
C4    C     C_R   0.798480 0.500197 0.535536 0.954197
C5    C     C_2   0.036462 0.499280 0.445354 -0.334148
C6    C     C_2   0.963538 0.500720 0.554646 -0.334156
C7    C     C_R   0.398271 0.066931 0.403911 -0.203161
C8    C     C_R   0.601708 0.933070 0.596092 -0.203164
C9    C     C_R   0.388074 0.938047 0.403203 0.445489
C10   C     C_R   0.611903 0.061954 0.596799 0.445473
C11   C     C_R   0.493173 0.871897 0.499246 -0.223306
C12   C     C_R   0.506811 0.128103 0.500753 -0.223299
C13   C     C_R   0.568990 0.597162 0.077144 0.056175
C14   C     C_R   0.431010 0.402838 0.922856 0.056182
C15   C     C_R   0.566770 0.596887 0.934005 -0.157129
C16   C     C_R   0.433229 0.403112 0.065995 -0.157131
H1    H     H_    0.975386 0.497488 0.341447 0.206474
H2    H     H_    0.024614 0.502512 0.658553 0.206475
H3    H     H_    0.317227 0.119800 0.331713 0.181537
H4    H     H_    0.682752 0.880202 0.668292 0.181538
H5    H     H_    0.621335 0.673589 0.884396 0.138139
H6    H     H_    0.378665 0.326411 0.115604 0.138139
N1    N     N_R   0.499960 0.499970 0.857200 -0.088311
N2    N     N_R   0.500040 0.500030 0.142800 -0.088312
O1    O     O_R   0.499990 0.316750 0.614620 -0.587491
O2    O     O_R   0.500010 0.683250 0.385380 -0.587526
O3    O     O_R   0.499990 0.316780 0.385290 -0.632474
O4    O     O_R   0.500010 0.683220 0.614710 -0.632464
O5    O     O_R   0.271750 0.499990 0.587840 -0.561751
O6    O     O_R   0.728250 0.500010 0.412160 -0.561748
O7    O     O_R   0.271750 0.500010 0.358510 -0.633364
O8    O     O_R   0.728250 0.499990 0.641490 -0.633354
Zn1   Zn    Zn3+2 0.500000 0.499980 0.653120 0.997015
Zn2   Zn    Zn3+2 0.500000 0.500020 0.346880 0.997000
O9    O     O_3   0.272640 0.881838 0.310707 -0.747620
H7    H     H_    0.250154 0.795850 0.342266 0.338273
O10   O     O_3   0.727322 0.118167 0.689304 -0.747623
H8    H     H_    0.749873 0.204125 0.657703 0.338268
C17   C     C_2   0.649021 0.705189 0.150329 0.465366
H9    H     H_    0.626184 0.799464 0.110627 0.045046
O11   O     O_2   0.749996 0.690437 0.248374 -0.543040
C18   C     C_2   0.350980 0.294811 0.849671 0.465378
H10   H     H_    0.373820 0.200536 0.889371 0.045053
O12   O     O_2   0.250003 0.309563 0.751627 -0.543054

loop_
_geom_bond_atom_site_label_1
_geom_bond_atom_site_label_2
_ccdc_geom_bond_type
C14   N1    A    
C3    O7    A    
C7    C9    A    
O10   H8    S    
C2    O4    A    
C16   N2    A    
O9    H7    S    
C13   C15   A    
C14   C18   S    
O8    Zn1   S    
C15   N1    A    
O7    Zn2   S    
C2    O2    A    
C4    O8    A    
C1    O1    A    
C9    C11   A    
C8    H4    S    
C1    C12   S    
C18   O12   D    
C8    C11   A    
C5    C6    D    
C2    C11   S    
C10   C12   A    
C4    C6    S    
O4    Zn1   S    
C7    H3    S    
C10   O10   S    
O3    Zn2   S    
C7    C12   A    
C6    H2    S    
C14   C16   A    
C13   C17   S    
C5    H1    S    
C18   H10   S    
O6    Zn2   S    
C9    O9    S    
O5    Zn1   S    
C15   H5    S    
C17   O11   D    
C1    O3    A    
C17   H9    S    
C3    O5    A    
C16   H6    S    
C3    C5    S    
O2    Zn2   S    
C8    C10   A    
C4    O6    A    
C13   N2    A    
O1    Zn1   S    
N1    Zn1   S    
N2    Zn2   S    
