data_mof_unit_61349.cif
_audit_creation_date              2012-12-10T18:02:33-0500
_audit_creation_method            fapswitch 2.2
_symmetry_space_group_name_H-M    P1
_symmetry_Int_Tables_number       1
_space_group_crystal_system       triclinic
_cell_length_a                    21.61029
_cell_length_b                    21.610271
_cell_length_c                    38.773574
_cell_angle_alpha                 89.999878
_cell_angle_beta                  90.000023
_cell_angle_gamma                 90.000019
_cell_volume                      18107.4228099

loop_
_atom_site_label
_atom_site_type_symbol
_atom_type_description
_atom_site_fract_x
_atom_site_fract_y
_atom_site_fract_z
_atom_type_partial_charge
C1    C     C_R   0.500000 0.879624 1.000000 0.931083
C2    C     C_R   0.685854 0.500005 0.999999 -0.246052
C3    C     C_R   0.218707 0.553097 0.010516 -0.300959
C4    C     C_R   0.446909 0.781294 0.989473 -0.300951
C5    C     C_R   0.218707 0.446902 0.989485 -0.301009
C6    C     C_R   0.553089 0.218705 0.989471 -0.301128
C7    C     C_R   0.781295 0.553101 0.989488 -0.300848
C8    C     C_R   0.053087 0.281295 0.510533 -0.300860
C9    C     C_R   0.281293 0.946901 0.510515 -0.300908
C10   C     C_R   0.946913 0.718705 0.510532 -0.301068
C11   C     C_R   0.718708 0.053105 0.510505 -0.301106
C12   C     C_R   0.946914 0.281294 0.489467 -0.301075
C13   C     C_R   0.500001 0.314145 1.000000 -0.245976
C14   C     C_R   0.718708 0.946895 0.489496 -0.301120
C15   C     C_R   0.053088 0.718706 0.489469 -0.300938
C16   C     C_R   0.281293 0.053099 0.489485 -0.300848
C17   C     C_R   0.552681 0.717160 0.011624 0.401082
C18   C     C_R   0.717153 0.447309 0.011606 0.401239
C19   C     C_R   0.447320 0.282842 0.011625 0.401077
C20   C     C_R   0.282842 0.552689 0.011613 0.401087
C21   C     C_R   0.447318 0.717159 0.988377 0.401118
C22   C     C_R   0.282842 0.447311 0.988388 0.401109
C23   C     C_R   0.552680 0.282840 0.988374 0.401078
C24   C     C_R   0.314146 0.500000 0.000000 -0.246113
C25   C     C_R   0.717161 0.552695 0.988390 0.400954
C26   C     C_R   0.052678 0.217161 0.511629 0.401050
C27   C     C_R   0.217159 0.947310 0.511611 0.401108
C28   C     C_R   0.947322 0.782840 0.511629 0.401101
C29   C     C_R   0.782844 0.052698 0.511602 0.401090
C30   C     C_R   0.947324 0.217159 0.488370 0.401137
C31   C     C_R   0.782844 0.947303 0.488398 0.401106
C32   C     C_R   0.052679 0.782841 0.488373 0.401077
C33   C     C_R   0.217159 0.052690 0.488389 0.401089
C34   C     C_3   0.615411 0.689854 0.056400 0.128723
C35   C     C_R   0.000001 0.185855 0.500000 -0.246172
C36   C     C_3   0.667738 0.646625 0.066800 -0.770969
C37   C     C_3   0.690038 0.384358 0.056336 0.128957
C38   C     C_3   0.646571 0.332239 0.066754 -0.771307
C39   C     C_3   0.384553 0.310104 0.056397 0.128802
C40   C     C_3   0.332292 0.353405 0.066807 -0.771133
C41   C     C_3   0.310111 0.615476 0.056374 0.128776
C42   C     C_3   0.353394 0.667759 0.066773 -0.771081
C43   C     C_3   0.384580 0.689860 0.943602 0.128739
C44   C     C_3   0.332261 0.646621 0.933203 -0.771029
C45   C     C_3   0.310106 0.384516 0.943629 0.128772
C46   C     C_R   0.185854 0.000000 0.500000 -0.246245
C47   C     C_3   0.353391 0.332234 0.933231 -0.771112
C48   C     C_3   0.615425 0.310121 0.943597 0.128779
C49   C     C_3   0.667716 0.353388 0.933190 -0.771103
C50   C     C_3   0.689835 0.615434 0.943623 0.128712
C51   C     C_3   0.646629 0.667788 0.933236 -0.770989
C52   C     C_3   0.115377 0.189833 0.556414 0.128729
C53   C     C_3   0.167707 0.146610 0.566816 -0.771025
C54   C     C_3   0.189845 0.884555 0.556375 0.128717
C55   C     C_3   0.146628 0.832211 0.566762 -0.771012
C56   C     C_3   0.884600 0.810133 0.556412 0.128734
C57   C     C_R   1.000000 0.814145 0.500000 -0.246111
C58   C     C_3   0.832305 0.853392 0.566822 -0.771044
C59   C     C_3   0.810029 0.115590 0.556339 0.128866
C60   C     C_3   0.853402 0.167796 0.566741 -0.771204
C61   C     C_3   0.884588 0.189881 0.443589 0.128765
C62   C     C_3   0.832308 0.146605 0.433176 -0.771065
C63   C     C_3   0.810013 0.884400 0.443662 0.128889
C64   C     C_3   0.853417 0.832222 0.433254 -0.771238
C65   C     C_3   0.115427 0.810123 0.443598 0.128791
C66   C     C_3   0.167719 0.853391 0.433192 -0.771086
C67   C     C_3   0.189837 0.115438 0.443624 0.128706
C68   C     C_R   0.814146 0.000001 0.500000 -0.245932
C69   C     C_3   0.146629 0.167792 0.433239 -0.770997
C70   C     C_R   0.500000 0.813126 1.000000 -0.146376
C71   C     C_R   0.813125 0.500000 0.999999 -0.146273
C72   C     C_R   0.500000 0.186874 1.000000 -0.146267
C73   C     C_R   0.879624 0.500000 1.000000 0.931085
C74   C     C_R   0.186875 0.500000 0.000000 -0.146330
C75   C     C_R   0.000000 0.313126 0.500000 -0.146340
C76   C     C_R   0.313125 0.000000 0.500000 -0.146418
C77   C     C_R   0.000000 0.686874 0.500000 -0.146313
C78   C     C_R   0.686876 1.000000 0.500000 -0.146215
C79   C     C_R   0.379914 0.500000 0.000000 1.046151
C80   C     C_R   0.500000 0.620086 0.000000 1.046050
C81   C     C_R   0.620086 0.500008 1.000000 1.046186
C82   C     C_R   0.500001 0.379914 0.000000 1.046220
C83   C     C_R   0.879914 0.000001 0.500000 1.046259
C84   C     C_R   0.500000 0.120376 1.000000 0.931082
C85   C     C_R   0.000002 0.120086 0.500000 1.046114
C86   C     C_R   0.120086 0.000000 0.500000 1.046068
C87   C     C_R   0.999999 0.879914 0.500000 1.046147
C88   C     C_R   0.500000 0.000000 0.932550 0.861375
C89   C     C_R   1.000000 0.500000 0.932550 0.861379
C90   C     C_R   0.500000 1.000000 0.067450 0.861390
C91   C     C_R   0.000000 0.500000 0.067450 0.861388
C92   C     C_R   1.000000 0.500000 0.432550 0.861378
C93   C     C_R   0.500000 0.000000 0.432550 0.861383
C94   C     C_R   0.000000 0.500000 0.567450 0.861389
C95   C     C_R   0.120376 0.500000 0.000000 0.931084
C96   C     C_R   0.500000 1.000000 0.567450 0.861401
C97   C     C_R   0.552418 0.979929 0.876696 -0.196572
C98   C     C_R   0.979937 0.447578 0.876695 -0.196574
C99   C     C_R   0.447582 0.020071 0.876696 -0.196572
C100  C     C_R   0.020062 0.552422 0.876695 -0.196568
C101  C     C_R   0.447544 0.980027 0.123306 -0.196570
C102  C     C_R   0.020028 0.447565 0.123305 -0.196579
C103  C     C_R   0.552456 0.019973 0.123306 -0.196571
C104  C     C_R   0.979972 0.552435 0.123305 -0.196567
C105  C     C_R   0.052435 0.479972 0.376695 -0.196571
C106  C     C_R   0.000000 0.379624 0.500000 0.931084
C107  C     C_R   0.479939 0.947578 0.376696 -0.196576
C108  C     C_R   0.947565 0.520028 0.376695 -0.196576
C109  C     C_R   0.520061 0.052422 0.376696 -0.196566
C110  C     C_R   0.947544 0.480027 0.623306 -0.196574
C111  C     C_R   0.519959 0.947539 0.623307 -0.196563
C112  C     C_R   0.052456 0.519973 0.623306 -0.196567
C113  C     C_R   0.480040 0.052461 0.623306 -0.196571
C114  C     C_R   0.552223 0.979415 0.840810 -0.165542
C115  C     C_R   0.979424 0.447774 0.840810 -0.165542
C116  C     C_R   0.447777 0.020584 0.840810 -0.165542
C117  C     C_R   0.379624 0.000000 0.500000 0.931092
C118  C     C_R   0.020575 0.552227 0.840810 -0.165541
C119  C     C_R   0.447738 0.979515 0.159192 -0.165554
C120  C     C_R   0.020540 0.447759 0.159190 -0.165548
C121  C     C_R   0.552262 0.020486 0.159192 -0.165553
C122  C     C_R   0.979460 0.552240 0.159190 -0.165545
C123  C     C_R   0.052240 0.479459 0.340810 -0.165547
C124  C     C_R   0.479425 0.947773 0.340810 -0.165543
C125  C     C_R   0.947760 0.520540 0.340809 -0.165548
C126  C     C_R   0.520574 0.052227 0.340810 -0.165539
C127  C     C_R   0.947738 0.479515 0.659192 -0.165555
C128  C     C_R   0.000000 0.620376 0.500000 0.931084
C129  C     C_R   0.520471 0.947732 0.659192 -0.165553
C130  C     C_R   0.052262 0.520485 0.659192 -0.165555
C131  C     C_R   0.479529 0.052267 0.659192 -0.165556
C132  C     C_R   0.500000 1.000000 0.822639 0.088078
C133  C     C_R   1.000000 0.500000 0.822639 0.088077
C134  C     C_R   0.500000 0.000001 0.177363 0.088082
C135  C     C_R   1.000000 0.500000 0.177362 0.088077
C136  C     C_R   1.000000 0.500000 0.322638 0.088077
C137  C     C_R   0.500000 0.000000 0.322639 0.088077
C138  C     C_R   1.000000 0.500000 0.677363 0.088082
C139  C     C_R   0.620377 1.000000 0.500000 0.931091
C140  C     C_R   0.500000 1.000000 0.677363 0.088083
C141  C     C_R   0.500000 1.000000 0.894838 -0.031568
C142  C     C_R   1.000000 0.500000 0.894838 -0.031572
C143  C     C_R   0.500000 0.000000 0.105163 -0.031610
C144  C     C_R   0.000000 0.500000 0.105163 -0.031588
C145  C     C_R   0.000000 0.500000 0.394837 -0.031586
C146  C     C_R   0.500000 0.000000 0.394838 -0.031573
C147  C     C_R   1.000000 0.500000 0.605163 -0.031610
C148  C     C_R   0.500000 1.000000 0.605163 -0.031618
C149  C     C_R   0.500000 1.000000 0.715128 0.281231
C150  C     C_R   0.500000 0.685855 0.000000 -0.246239
C151  C     C_R   1.000000 0.500000 0.715128 0.281233
C152  C     C_R   0.500000 0.000000 0.284875 0.281229
C153  C     C_R   1.000000 0.499999 0.284874 0.281234
C154  C     C_R   1.000000 0.499999 0.215126 0.281234
C155  C     C_R   0.500000 0.000000 0.215128 0.281233
C156  C     C_R   1.000000 0.500001 0.784875 0.281229
C157  C     C_R   0.500000 1.000000 0.784875 0.281227
C158  C     C_R   0.553091 0.781294 0.010527 -0.300887
C159  C     C_R   0.781291 0.446899 0.010509 -0.301233
C160  C     C_R   0.446910 0.218706 0.010528 -0.301015
H1    H     H_    0.593276 0.964025 0.890235 0.153652
H2    H     H_    0.464042 0.906717 0.390235 0.153654
H3    H     H_    0.870937 0.762067 0.563342 0.125372
H4    H     H_    0.789429 0.841316 0.552524 0.264990
H5    H     H_    0.823365 0.849159 0.594923 0.185853
H6    H     H_    0.845067 0.902015 0.560913 0.259356
H7    H     H_    0.823166 0.073468 0.571266 0.130788
H8    H     H_    0.761977 0.129428 0.563186 0.125442
H9    H     H_    0.841533 0.210644 0.552365 0.265149
H10   H     H_    0.849059 0.176878 0.594823 0.185872
H11   H     H_    0.902013 0.154853 0.560924 0.259259
H12   H     H_    0.926732 0.176579 0.428728 0.130944
H13   H     H_    0.906694 0.535898 0.390234 0.153665
H14   H     H_    0.870902 0.237945 0.436669 0.125377
H15   H     H_    0.789431 0.158657 0.447479 0.264998
H16   H     H_    0.823360 0.150849 0.405077 0.185854
H17   H     H_    0.845091 0.097985 0.439077 0.259360
H18   H     H_    0.823108 0.926527 0.428728 0.130753
H19   H     H_    0.761965 0.870525 0.436827 0.125463
H20   H     H_    0.841598 0.789372 0.447641 0.265183
H21   H     H_    0.849051 0.823121 0.405175 0.185881
H22   H     H_    0.902023 0.845207 0.439053 0.259254
H23   H     H_    0.073290 0.823437 0.428734 0.130941
H24   H     H_    0.535957 0.093283 0.390235 0.153655
H25   H     H_    0.129106 0.762059 0.436676 0.125371
H26   H     H_    0.210590 0.841328 0.447498 0.265020
H27   H     H_    0.176675 0.849150 0.405093 0.185847
H28   H     H_    0.154944 0.902013 0.439094 0.259326
H29   H     H_    0.176435 0.073317 0.428770 0.131017
H30   H     H_    0.237910 0.129044 0.436676 0.125346
H31   H     H_    0.158783 0.210648 0.447535 0.264983
H32   H     H_    0.150833 0.176735 0.405137 0.185837
H33   H     H_    0.097999 0.155092 0.439168 0.259313
H34   H     H_    0.906655 0.464201 0.609768 0.153684
H35   H     H_    0.535775 0.906645 0.609768 0.153690
H36   H     H_    0.093345 0.535800 0.609768 0.153686
H37   H     H_    0.464225 0.093354 0.609768 0.153691
H38   H     H_    0.593148 0.963613 0.827304 0.146173
H39   H     H_    0.963629 0.406846 0.827303 0.146172
H40   H     H_    0.406851 0.036386 0.827304 0.146172
H41   H     H_    0.964040 0.406718 0.890235 0.153653
H42   H     H_    0.036370 0.593155 0.827303 0.146174
H43   H     H_    0.406782 0.963792 0.172698 0.146177
H44   H     H_    0.036307 0.406820 0.172697 0.146176
H45   H     H_    0.593218 0.036209 0.172698 0.146177
H46   H     H_    0.963692 0.593179 0.172697 0.146178
H47   H     H_    0.093179 0.463692 0.327303 0.146178
H48   H     H_    0.463632 0.906845 0.327303 0.146173
H49   H     H_    0.906821 0.536307 0.327303 0.146178
H50   H     H_    0.536368 0.093156 0.327303 0.146174
H51   H     H_    0.906781 0.463792 0.672698 0.146176
H52   H     H_    0.406724 0.035975 0.890235 0.153651
H53   H     H_    0.536183 0.906772 0.672698 0.146178
H54   H     H_    0.093218 0.536208 0.672698 0.146179
H55   H     H_    0.463817 0.093228 0.672698 0.146178
H56   H     H_    0.594519 0.805996 0.018139 0.174957
H57   H     H_    0.805996 0.405461 0.018101 0.174823
H58   H     H_    0.405483 0.194003 0.018141 0.174918
H59   H     H_    0.194004 0.594531 0.018119 0.174936
H60   H     H_    0.405480 0.805996 0.981861 0.174955
H61   H     H_    0.194004 0.405468 0.981882 0.174934
H62   H     H_    0.594517 0.194003 0.981858 0.174941
H63   H     H_    0.035960 0.593283 0.890235 0.153656
H64   H     H_    0.805996 0.594536 0.981886 0.174984
H65   H     H_    0.094513 0.305997 0.518151 0.174964
H66   H     H_    0.305994 0.905467 0.518118 0.174971
H67   H     H_    0.905487 0.694003 0.518148 0.174946
H68   H     H_    0.694004 0.094545 0.518095 0.174880
H69   H     H_    0.905488 0.305997 0.481850 0.174934
H70   H     H_    0.694004 0.905455 0.481906 0.174869
H71   H     H_    0.094515 0.694003 0.481854 0.174932
H72   H     H_    0.305994 0.094533 0.481882 0.174978
H73   H     H_    0.573278 0.676484 0.071253 0.130995
H74   H     H_    0.406655 0.964200 0.109768 0.153685
H75   H     H_    0.629040 0.737924 0.063340 0.125351
H76   H     H_    0.710607 0.658750 0.052508 0.264979
H77   H     H_    0.676670 0.650838 0.094902 0.185840
H78   H     H_    0.655017 0.597998 0.060876 0.259358
H79   H     H_    0.677046 0.426488 0.071296 0.130668
H80   H     H_    0.738077 0.370395 0.063131 0.125488
H81   H     H_    0.658287 0.289387 0.052342 0.265230
H82   H     H_    0.650984 0.323094 0.094827 0.185898
H83   H     H_    0.597974 0.345311 0.060993 0.259251
H84   H     H_    0.426694 0.323371 0.071271 0.130907
H85   H     H_    0.035898 0.406693 0.109766 0.153664
H86   H     H_    0.370833 0.262045 0.063303 0.125396
H87   H     H_    0.289422 0.341401 0.052486 0.265056
H88   H     H_    0.323310 0.349137 0.094902 0.185861
H89   H     H_    0.345116 0.402023 0.060927 0.259318
H90   H     H_    0.323402 0.573345 0.071252 0.130922
H91   H     H_    0.262049 0.629178 0.063284 0.125388
H92   H     H_    0.341357 0.710622 0.052454 0.265039
H93   H     H_    0.349141 0.676741 0.094869 0.185851
H94   H     H_    0.402014 0.654959 0.060883 0.259311
H95   H     H_    0.426713 0.676504 0.928746 0.130981
H96   H     H_    0.593345 0.035800 0.109768 0.153683
H97   H     H_    0.370937 0.737928 0.936667 0.125357
H98   H     H_    0.289393 0.658730 0.947498 0.264983
H99   H     H_    0.323321 0.650841 0.905101 0.185841
H100  H     H_    0.344997 0.597995 0.939121 0.259339
H101  H     H_    0.323389 0.426644 0.928748 0.130920
H102  H     H_    0.262043 0.370807 0.936723 0.125392
H103  H     H_    0.341368 0.289376 0.947559 0.265052
H104  H     H_    0.349124 0.323236 0.905137 0.185857
H105  H     H_    0.402012 0.345044 0.939110 0.259295
H106  H     H_    0.573286 0.323435 0.928734 0.130949
H107  H     H_    0.964102 0.593306 0.109766 0.153668
H108  H     H_    0.629102 0.262056 0.936676 0.125373
H109  H     H_    0.710588 0.341324 0.947494 0.264989
H110  H     H_    0.676669 0.349147 0.905090 0.185850
H111  H     H_    0.654943 0.402010 0.939092 0.259341
H112  H     H_    0.676429 0.573311 0.928772 0.131016
H113  H     H_    0.737908 0.629035 0.936671 0.125350
H114  H     H_    0.658788 0.710647 0.947527 0.264975
H115  H     H_    0.650826 0.676723 0.905133 0.185831
H116  H     H_    0.597999 0.655093 0.939170 0.259321
H117  H     H_    0.073236 0.176441 0.571253 0.131011
H118  H     H_    0.093306 0.464102 0.390234 0.153668
H119  H     H_    0.128987 0.237902 0.563368 0.125349
H120  H     H_    0.210582 0.158753 0.552535 0.264978
H121  H     H_    0.176620 0.150809 0.594921 0.185839
H122  H     H_    0.155000 0.097984 0.560881 0.259340
H123  H     H_    0.176459 0.926677 0.571233 0.131006
H124  H     H_    0.237917 0.870936 0.563318 0.125348
H125  H     H_    0.158764 0.789355 0.552462 0.264989
H126  H     H_    0.150841 0.823260 0.594863 0.185840
H127  H     H_    0.097998 0.844925 0.560840 0.259311
H128  H     H_    0.926744 0.823463 0.571266 0.130970
N1    N     N_R   0.461721 0.038224 0.767139 -0.180350
N2    N     N_R   0.538213 0.038291 0.267138 -0.180349
N3    N     N_R   0.038333 0.461829 0.267137 -0.180356
N4    N     N_R   0.461787 0.961710 0.267138 -0.180350
N5    N     N_R   0.038377 0.538127 0.732864 -0.180357
N6    N     N_R   0.461883 0.038386 0.732865 -0.180356
N7    N     N_R   0.961623 0.461874 0.732864 -0.180358
N8    N     N_R   0.538116 0.961613 0.732865 -0.180355
N9    N     N_R   0.038214 0.538289 0.767138 -0.180350
N10   N     N_R   0.538279 0.961775 0.767139 -0.180349
N11   N     N_R   0.961785 0.461712 0.767138 -0.180351
N12   N     N_R   0.538375 0.038128 0.232864 -0.180356
N13   N     N_R   0.961829 0.538332 0.232863 -0.180354
N14   N     N_R   0.461625 0.961873 0.232864 -0.180356
N15   N     N_R   0.038171 0.461667 0.232863 -0.180356
N16   N     N_R   0.961667 0.538170 0.267137 -0.180355
O1    O     O_R   0.448370 0.908480 0.999910 -0.627131
O2    O     O_R   0.408480 0.051630 0.499910 -0.627132
O3    O     O_R   0.051630 0.591520 0.499910 -0.627134
O4    O     O_R   0.591520 0.948370 0.499910 -0.627148
O5    O     O_R   0.051630 0.408480 0.500090 -0.627137
O6    O     O_R   0.591520 0.051630 0.500090 -0.627157
O7    O     O_R   0.948370 0.591520 0.500090 -0.627141
O8    O     O_R   0.408480 0.948370 0.500090 -0.627142
O9    O     O_R   0.448370 0.000090 0.948970 -0.625075
O10   O     O_R   0.000090 0.551630 0.948970 -0.625073
O11   O     O_R   0.551630 0.999910 0.948970 -0.625075
O12   O     O_R   0.908480 0.551630 0.999910 -0.627146
O13   O     O_R   0.999910 0.448370 0.948970 -0.625079
O14   O     O_R   0.551630 0.000090 0.051030 -0.625091
O15   O     O_R   0.999910 0.551630 0.051030 -0.625079
O16   O     O_R   0.448370 0.999910 0.051030 -0.625091
O17   O     O_R   0.000090 0.448370 0.051030 -0.625087
O18   O     O_R   0.948370 0.500090 0.448970 -0.625084
O19   O     O_R   0.500090 0.051630 0.448970 -0.625074
O20   O     O_R   0.051630 0.499910 0.448970 -0.625081
O21   O     O_R   0.499910 0.948370 0.448970 -0.625080
O22   O     O_R   0.051630 0.500090 0.551030 -0.625089
O23   O     O_R   0.551630 0.091520 0.999910 -0.627139
O24   O     O_R   0.499910 0.051630 0.551030 -0.625094
O25   O     O_R   0.948370 0.499910 0.551030 -0.625092
O26   O     O_R   0.500090 0.948370 0.551030 -0.625091
O27   O     O_R   0.408360 0.500090 0.028640 -0.638829
O28   O     O_R   0.500090 0.591640 0.028640 -0.638853
O29   O     O_R   0.591640 0.499910 0.028640 -0.638637
O30   O     O_R   0.499910 0.408360 0.028640 -0.638819
O31   O     O_R   0.591640 0.500090 0.971360 -0.638923
O32   O     O_R   0.499910 0.591640 0.971360 -0.638836
O33   O     O_R   0.408360 0.499910 0.971360 -0.638812
O34   O     O_R   0.091520 0.448370 0.999910 -0.627141
O35   O     O_R   0.500090 0.408360 0.971360 -0.638837
O36   O     O_R   0.908360 0.000090 0.528640 -0.638766
O37   O     O_R   0.000090 0.091640 0.528640 -0.638873
O38   O     O_R   0.091640 0.999910 0.528640 -0.638855
O39   O     O_R   0.999910 0.908360 0.528640 -0.638832
O40   O     O_R   0.091640 0.000090 0.471360 -0.638866
O41   O     O_R   0.999910 0.091640 0.471360 -0.638803
O42   O     O_R   0.908360 0.999910 0.471360 -0.638741
O43   O     O_R   0.000090 0.908360 0.471360 -0.638830
O44   O     O_3   0.605414 0.684536 0.020556 -0.565925
O45   O     O_R   0.551630 0.908480 0.000090 -0.627140
O46   O     O_3   0.684507 0.394577 0.020520 -0.565964
O47   O     O_3   0.394590 0.315471 0.020558 -0.565955
O48   O     O_3   0.315470 0.605425 0.020536 -0.565940
O49   O     O_3   0.394585 0.684535 0.979446 -0.565928
O50   O     O_3   0.315471 0.394575 0.979466 -0.565953
O51   O     O_3   0.605410 0.315467 0.979439 -0.565968
O52   O     O_3   0.684541 0.605435 0.979468 -0.565941
O53   O     O_3   0.105409 0.184539 0.520566 -0.565925
O54   O     O_3   0.184535 0.894571 0.520532 -0.565937
O55   O     O_3   0.894594 0.815465 0.520568 -0.565953
O56   O     O_R   0.091520 0.551630 0.000090 -0.627143
O57   O     O_3   0.815480 0.105436 0.520514 -0.565966
O58   O     O_3   0.894597 0.184532 0.479431 -0.565947
O59   O     O_3   0.815483 0.894567 0.479485 -0.565968
O60   O     O_3   0.105409 0.815468 0.479439 -0.565932
O61   O     O_3   0.184537 0.105430 0.479469 -0.565932
O62   O     O_R   0.448370 0.091520 0.000090 -0.627146
O63   O     O_R   0.908480 0.448370 0.000090 -0.627150
O64   O     O_R   0.948370 0.408480 0.499910 -0.627134
Zn1   Zn    Zn3+2 0.431020 0.000000 0.000000 0.942821
Zn2   Zn    Zn3+2 0.500000 0.500000 0.961710 0.948016
Zn3   Zn    Zn3+2 0.000000 0.000000 0.538290 0.948036
Zn4   Zn    Zn3+2 0.000000 1.000000 0.461710 0.948064
Zn5   Zn    Zn3+2 0.000000 0.568980 0.000000 0.942830
Zn6   Zn    Zn3+2 0.568980 0.000000 0.000000 0.942819
Zn7   Zn    Zn3+2 0.000000 0.431020 0.000000 0.942797
Zn8   Zn    Zn3+2 0.931020 0.500000 0.500000 0.942810
Zn9   Zn    Zn3+2 0.500000 0.068980 0.500000 0.942813
Zn10  Zn    Zn3+2 0.068980 0.500000 0.500000 0.942828
Zn11  Zn    Zn3+2 0.500000 0.931020 0.500000 0.942807
Zn12  Zn    Zn3+2 0.500000 0.500000 0.038290 0.948102

loop_
_geom_bond_atom_site_label_1
_geom_bond_atom_site_label_2
_ccdc_geom_bond_type
C96   O26   A    
C66   H28   S    
C8    C26   A    
C122  H46   S    
C83   O36   A    
C58   H4    S    
C69   H31   S    
C53   H122  S    
C118  H42   S    
C61   O58   S    
C39   O47   S    
C51   H116  S    
C151  N7    A    
C37   H79   S    
C42   H94   S    
C105  C123  A    
C5    C74   A    
C58   H5    S    
C18   C159  A    
C156  N11   A    
C11   H68   S    
C94   O22   A    
C9    H66   S    
C85   O37   A    
C90   C143  S    
C51   H114  S    
C99   H52   S    
O41   Zn4   S    
C59   C60   S    
O18   Zn8   S    
C124  H48   S    
C103  H96   S    
C28   O55   S    
C32   C57   A    
C67   O61   S    
C45   C47   S    
C34   O44   S    
C131  H55   S    
C124  C137  A    
C15   C32   A    
O20   Zn10  S    
C99   C116  A    
C71   C73   S    
N7    N11   A    
C13   C82   S    
C55   H126  S    
C149  N6    A    
C101  C119  A    
O40   Zn4   S    
C43   C44   S    
C37   C38   S    
C29   C68   A    
C134  C155  S    
C107  H2    S    
C82   O30   A    
C108  H13   S    
C41   H91   S    
C69   H33   S    
C135  C154  S    
C72   C84   S    
C49   H111  S    
C27   C46   A    
O32   Zn2   S    
C66   H26   S    
C26   O53   S    
C90   O14   A    
C130  C138  A    
C59   H7    S    
N13   N16   A    
C36   H77   S    
O16   Zn1   S    
O23   Zn6   S    
C151  N5    A    
C68   C83   S    
C99   C141  A    
C152  N2    A    
N1    N6    A    
C103  C143  A    
C106  O5    A    
C138  C151  S    
C1    C70   S    
C100  H63   S    
C120  C135  A    
C111  C148  A    
C136  C153  S    
C153  N16   A    
C17   O44   S    
C115  H39   S    
C154  N15   A    
C62   H15   S    
C88   O9    A    
C80   O32   A    
C130  H54   S    
C8    C75   A    
C14   H70   S    
C44   H98   S    
C26   C35   A    
C117  O2    A    
O31   Zn2   S    
C101  H74   S    
C96   O24   A    
O3    Zn10  S    
C2    C81   S    
C84   O62   A    
O37   Zn3   S    
C52   H117  S    
C6    H62   S    
C53   H120  S    
O1    Zn1   S    
O13   Zn7   S    
C14   C31   A    
C78   C139  S    
C12   H69   S    
C38   H83   S    
C139  O6    A    
C149  N8    A    
C19   C160  A    
C113  C148  A    
C18   O46   S    
O4    Zn11  S    
C104  C122  A    
C158  H56   S    
C95   O56   A    
C13   C23   A    
C3    C74   A    
C48   O51   S    
C89   O13   A    
C54   O54   S    
C160  H58   S    
C131  C140  A    
O42   Zn4   S    
O30   Zn12  S    
O39   Zn3   S    
C64   H22   S    
C47   H105  S    
O26   Zn11  S    
C94   O25   A    
C98   C142  A    
C105  H118  S    
O35   Zn2   S    
C152  N4    A    
C102  C144  A    
C34   H75   S    
C64   H20   S    
C119  C134  A    
O8    Zn11  S    
C156  N9    A    
N2    N12   A    
C82   O35   A    
C39   C40   S    
O64   Zn8   S    
C107  C146  A    
C125  H49   S    
C139  O4    A    
C154  N13   A    
C95   O34   A    
C1    O1    A    
C88   O11   A    
C57   C87   S    
C41   H90   S    
C23   O51   S    
C44   H100  S    
C39   H86   S    
C24   C79   S    
C45   H101  S    
C116  C132  A    
C55   H127  S    
C93   C146  S    
C56   H128  S    
C106  O64   A    
C77   C128  S    
O62   Zn1   S    
C93   O19   A    
C52   H119  S    
C3    H59   S    
C127  C138  A    
O36   Zn3   S    
C97   H1    S    
C10   H67   S    
C120  H44   S    
C86   O40   A    
C12   C75   A    
O45   Zn6   S    
C88   C141  S    
C40   H87   S    
C52   C53   S    
O56   Zn5   S    
C54   H123  S    
C38   H81   S    
C54   C55   S    
C15   H71   S    
C16   C76   A    
C60   H11   S    
C61   H14   S    
C53   H121  S    
C47   H104  S    
C36   H76   S    
C112  C147  A    
C51   H115  S    
C30   O58   S    
C35   C85   S    
C98   C115  A    
C15   C77   A    
C56   C58   S    
C73   O63   A    
C34   C36   S    
C129  H53   S    
C61   C62   S    
C58   H6    S    
C52   O53   S    
C117  O8    A    
C63   C64   S    
C109  C126  A    
C114  H38   S    
C79   O33   A    
C112  C130  A    
C97   C114  A    
C34   H73   S    
C140  C149  S    
C111  H35   S    
C126  C137  A    
C133  C156  S    
C41   C42   S    
C98   H41   S    
C17   C150  A    
C104  H107  S    
C121  H45   S    
N3    N15   A    
C62   H17   S    
C4    C70   A    
C67   H30   S    
C6    C72   A    
C102  H85   S    
C80   O28   A    
C63   H18   S    
C107  C124  A    
C39   H84   S    
O21   Zn11  S    
C63   O59   S    
C89   C142  S    
C55   H125  S    
O43   Zn4   S    
C83   O42   A    
C87   O39   A    
C112  H36   S    
C91   O15   A    
C111  C129  A    
C43   O49   S    
C4    H60   S    
O33   Zn2   S    
C86   O38   A    
C137  C152  S    
C9    C76   A    
C121  C134  A    
C50   O52   S    
C49   H110  S    
N8    N10   A    
C42   H92   S    
C66   H27   S    
C33   C46   A    
O2    Zn9   S    
C69   H32   S    
C37   O46   S    
C92   O18   A    
C36   H78   S    
C31   C68   A    
C96   C148  S    
C13   C19   A    
C73   O12   A    
C119  H43   S    
C1    O45   A    
C32   O60   S    
C37   H80   S    
O9    Zn1   S    
C115  C133  A    
C42   H93   S    
C70   C158  A    
C87   O43   A    
C48   H106  S    
C105  C145  A    
C50   C51   S    
O12   Zn5   S    
C97   C141  A    
C125  C136  A    
C48   C49   S    
O6    Zn9   S    
C25   O52   S    
C22   C24   A    
C100  C118  A    
C60   H9    S    
C102  C120  A    
C9    C27   A    
C108  C145  A    
C10   C28   A    
C12   C30   A    
C8    H65   S    
C65   O60   S    
C76   C117  S    
C7    C25   A    
C60   H10   S    
O29   Zn12  S    
C90   O16   A    
C7    H64   S    
C153  N3    A    
O15   Zn5   S    
C155  N12   A    
C50   H113  S    
C2    C25   A    
C79   O27   A    
N5    N9    A    
C91   O17   A    
C122  C135  A    
C33   O61   S    
C75   C106  S    
C81   O29   A    
C59   H8    S    
C92   O20   A    
C5    H61   S    
C40   H89   S    
O24   Zn9   S    
C2    C18   A    
C21   O49   S    
C109  C146  A    
C63   H19   S    
C28   C57   A    
C80   C150  S    
C56   H3    S    
C30   C35   A    
O5    Zn10  S    
C7    C71   A    
C116  H40   S    
C48   H108  S    
C19   O47   S    
O63   Zn7   S    
C31   O59   S    
C5    C22   A    
C20   C24   A    
C56   O55   S    
C159  H57   S    
C110  H34   S    
C104  C144  A    
N4    N14   A    
C157  N10   A    
C89   O10   A    
C27   O54   S    
C110  C127  A    
C62   H16   S    
O25   Zn8   S    
O34   Zn7   S    
O19   Zn9   S    
C40   H88   S    
C10   C77   A    
O7    Zn8   S    
C54   H124  S    
C38   H82   S    
C65   H25   S    
O27   Zn12  S    
O28   Zn12  S    
C157  N1    A    
C3    C20   A    
C126  H50   S    
C47   H103  S    
C16   H72   S    
O10   Zn5   S    
O38   Zn3   S    
C67   C69   S    
C128  O7    A    
C22   O50   S    
C11   C78   A    
C16   C33   A    
O22   Zn10  S    
C81   O31   A    
O17   Zn7   S    
C123  H47   S    
C61   H12   S    
C21   C150  A    
C17   C158  A    
C59   O57   S    
C118  C133  A    
C64   H21   S    
C127  H51   S    
C50   H112  S    
O11   Zn6   S    
C45   O50   S    
C84   O23   A    
C108  C125  A    
C41   O48   S    
C110  C147  A    
C43   H97   S    
C109  H24   S    
C91   C144  S    
C65   H23   S    
C43   H95   S    
C94   C147  S    
C132  C157  S    
C113  H37   S    
C113  C131  A    
C92   C145  S    
C114  C132  A    
C74   C95   S    
C93   O21   A    
C67   H29   S    
C71   C159  A    
C72   C160  A    
C123  C136  A    
C20   O48   S    
C100  C142  A    
C44   H99   S    
C4    C21   A    
C101  C143  A    
C29   O57   S    
C45   H102  S    
C129  C140  A    
C6    C23   A    
C155  N14   A    
C14   C78   A    
O14   Zn6   S    
C11   C29   A    
C65   C66   S    
C128  O3    A    
C85   O41   A    
C49   H109  S    
C46   C86   S    
C103  C121  A    
