data_mof_unit_17254.cif
_audit_creation_date              2012-12-10T17:00:48-0500
_audit_creation_method            fapswitch 2.2
_symmetry_space_group_name_H-M    P1
_symmetry_Int_Tables_number       1
_space_group_crystal_system       triclinic
_cell_length_a                    10.481148
_cell_length_b                    10.749363
_cell_length_c                    10.007795
_cell_angle_alpha                 89.984913
_cell_angle_beta                  101.874554
_cell_angle_gamma                 89.973058
_cell_volume                      1103.40595783

loop_
_atom_site_label
_atom_site_type_symbol
_atom_type_description
_atom_site_fract_x
_atom_site_fract_y
_atom_site_fract_z
_atom_type_partial_charge
C1    C     C_R   0.502950 0.262591 0.500498 0.945015
C2    C     C_2   0.485233 0.868830 0.496550 -0.335528
C3    C     C_2   0.497777 0.066827 0.386688 -0.160036
C4    C     C_2   0.515478 0.131083 0.503135 -0.338315
C5    C     C_2   0.546644 0.590708 0.935006 -0.132275
C6    C     C_2   0.537749 0.594346 0.083077 -0.157082
C7    C     C_R   0.257922 0.509051 0.445721 0.929145
C8    C     C_R   0.497232 0.737386 0.499315 0.898079
C9    C     C_R   0.742010 0.509424 0.554273 0.927990
C10   C     C_2   0.120006 0.539568 0.421996 -0.428613
C11   C     C_2   0.070776 0.614236 0.508331 0.108189
C12   C     C_2   0.879819 0.540388 0.578140 -0.429586
C13   C     C_2   0.929183 0.614579 0.491488 0.114725
C14   C     C_2   0.505178 0.932951 0.388499 -0.163631
H1    H     H_    0.450981 0.430747 0.887419 0.160941
H2    H     H_    0.566284 0.679846 0.138637 0.162304
H3    H     H_    0.482502 0.417882 0.098336 0.163571
H4    H     H_    0.943796 0.499056 0.666400 0.146080
H5    H     H_    0.055937 0.497564 0.334295 0.147602
H6    H     H_    0.525713 0.887077 0.298502 0.162327
H7    H     H_    0.456514 0.911521 0.583957 0.146560
H8    H     H_    0.478646 0.112527 0.287699 0.169685
H9    H     H_    0.542705 0.088384 0.603077 0.148556
H10   H     H_    0.591664 0.669481 0.895158 0.161557
N1    N     N_2   0.501330 0.501330 0.852460 -0.191317
N2    N     N_2   0.501370 0.501360 0.148130 -0.189202
O1    O     O_R   0.499980 0.319060 0.613030 -0.614638
O2    O     O_R   0.500020 0.319100 0.386910 -0.612985
O3    O     O_R   0.317800 0.500000 0.570840 -0.613442
O4    O     O_R   0.317840 0.500040 0.344720 -0.596693
O5    O     O_R   0.499980 0.680900 0.613090 -0.627022
O6    O     O_R   0.500020 0.680940 0.386970 -0.621116
O7    O     O_R   0.682160 0.499960 0.655280 -0.596454
O8    O     O_R   0.682200 0.500000 0.429160 -0.608375
Zn1   Zn    Zn3+2 0.499970 0.499970 0.650990 0.923818
Zn2   Zn    Zn3+2 0.500030 0.500030 0.349010 0.925131
C15   C     C_3   0.845628 0.682545 0.369973 -0.359562
C16   C     C_3   0.918584 0.782953 0.305627 -0.367115
C17   C     C_3   0.827464 0.848433 0.187984 -0.905581
H11   H     H_    0.786944 0.780631 0.106556 0.255114
H12   H     H_    0.746212 0.894251 0.224889 0.258640
H13   H     H_    0.882456 0.920566 0.143908 0.257894
H14   H     H_    0.959937 0.853548 0.383286 0.223549
H15   H     H_    0.999504 0.740338 0.265180 0.234947
H16   H     H_    0.806607 0.613473 0.289349 0.223069
H17   H     H_    0.763048 0.728455 0.404596 0.205671
C18   C     C_3   0.154802 0.683740 0.628247 -0.347001
C19   C     C_3   0.081831 0.783412 0.693510 -0.381515
C20   C     C_3   0.174626 0.851922 0.807371 -0.881959
H18   H     H_    0.220210 0.785632 0.888510 0.265131
H19   H     H_    0.252327 0.899543 0.766047 0.258490
H20   H     H_    0.119649 0.922893 0.853212 0.252137
H21   H     H_    0.036474 0.852309 0.615549 0.223168
H22   H     H_    0.003917 0.739549 0.737781 0.232940
H23   H     H_    0.196252 0.615705 0.709214 0.222699
H24   H     H_    0.235668 0.730486 0.591403 0.204318

loop_
_geom_bond_atom_site_label_1
_geom_bond_atom_site_label_2
_ccdc_geom_bond_type
C7    C10   S    
C9    O7    A    
C16   H15   S    
C15   C16   S    
C7    O3    A    
C3    C14   S    
C1    O2    A    
C6    H2    S    
O3    Zn1   S    
C11   C18   S    
C18   C19   S    
O4    Zn2   S    
C10   H5    S    
C1    C4    S    
C20   H20   S    
C2    H7    S    
C16   H14   S    
C17   H12   S    
C7    O4    A    
C19   H22   S    
C11   C13   S    
C6    N2    D    
C5    H10   S    
N1    Zn1   S    
C5    N1    D    
C5    C6    S    
O6    Zn2   S    
N2    Zn2   S    
C19   C20   S    
O7    Zn1   S    
C9    O8    A    
C17   H13   S    
O8    Zn2   S    
C19   H21   S    
C2    C14   D    
C9    C12   S    
O5    Zn1   S    
H1    N1    S    
C10   C11   D    
H3    N2    S    
C15   H16   S    
C3    C4    D    
C8    O6    A    
C14   H6    S    
C16   C17   S    
C12   C13   D    
O2    Zn2   S    
C18   H23   S    
C20   H18   S    
C12   H4    S    
C17   H11   S    
C1    O1    A    
C4    H9    S    
C3    H8    S    
O1    Zn1   S    
C15   H17   S    
C8    O5    A    
C13   C15   S    
C2    C8    S    
C18   H24   S    
C20   H19   S    
