data_mof_unit_62652.cif
_audit_creation_date              2012-12-10T17:49:49-0500
_audit_creation_method            fapswitch 2.2
_symmetry_space_group_name_H-M    P1
_symmetry_Int_Tables_number       1
_space_group_crystal_system       triclinic
_cell_length_a                    27.785544
_cell_length_b                    36.225211
_cell_length_c                    27.787781
_cell_angle_alpha                 89.881762
_cell_angle_beta                  89.970892
_cell_angle_gamma                 90.045905
_cell_volume                      27969.362954

loop_
_atom_site_label
_atom_site_type_symbol
_atom_type_description
_atom_site_fract_x
_atom_site_fract_y
_atom_site_fract_z
_atom_type_partial_charge
C1    C     C_R   0.499899 0.650354 0.250116 0.822711
C2    C     C_R   0.500103 0.650350 0.750231 0.821420
C3    C     C_R   0.499905 0.349650 0.749782 0.823295
C4    C     C_R   0.500109 0.349645 0.249871 0.824450
C5    C     C_R   0.499921 0.150355 0.750097 0.822752
C6    C     C_R   0.500089 0.150351 0.250206 0.821966
C7    C     C_R   0.499929 0.849650 0.249814 0.823770
C8    C     C_R   0.500090 0.849644 0.749886 0.824455
C9    C     C_R   0.999935 0.650355 0.750087 0.822830
C10   C     C_R   0.000083 0.650351 0.250194 0.821527
C11   C     C_R   0.999926 0.349651 0.249819 0.823252
C12   C     C_R   0.000078 0.349644 0.749895 0.824479
C13   C     C_R   0.999919 0.150354 0.250099 0.822879
C14   C     C_R   0.000093 0.150351 0.750206 0.821708
C15   C     C_R   0.999926 0.849650 0.749817 0.823465
C16   C     C_R   0.000094 0.849644 0.249883 0.824659
C17   C     C_3   0.476884 0.977163 0.302031 0.241936
C18   C     C_3   0.474838 0.977866 0.698272 0.239859
C19   C     C_3   0.481136 0.022505 0.695989 0.283125
C20   C     C_3   0.485150 0.021510 0.305370 0.288480
C21   C     C_3   0.480181 0.477098 0.803319 0.236901
C22   C     C_3   0.475108 0.477869 0.198104 0.240740
C23   C     C_3   0.480912 0.522557 0.196029 0.282668
C24   C     C_3   0.488655 0.521409 0.806352 0.287686
C25   C     C_3   0.978883 0.977212 0.802837 0.239585
C26   C     C_3   0.973884 0.977864 0.198756 0.239372
C27   C     C_3   0.980154 0.022503 0.196349 0.282913
C28   C     C_3   0.987451 0.021530 0.805927 0.288724
C29   C     C_3   0.979989 0.477242 0.303245 0.238575
C30   C     C_3   0.973868 0.477839 0.698763 0.241907
C31   C     C_3   0.980110 0.522481 0.696385 0.284098
C32   C     C_3   0.988641 0.521560 0.306164 0.289079
C33   C     C_1   0.999995 0.610823 0.250784 -0.139144
C34   C     C_1   0.999282 0.610828 0.750450 -0.142759
C35   C     C_1   0.000043 0.389168 0.749590 -0.130953
C36   C     C_1   0.999424 0.389178 0.249235 -0.131100
C37   C     C_1   0.000026 0.110823 0.750833 -0.139072
C38   C     C_1   0.999219 0.110827 0.250486 -0.142933
C39   C     C_1   0.000120 0.889169 0.249537 -0.131399
C40   C     C_1   0.999421 0.889177 0.749220 -0.131157
C41   C     C_1   0.500046 0.610822 0.750953 -0.138452
C42   C     C_1   0.499140 0.610827 0.250542 -0.142956
C43   C     C_1   0.500210 0.389170 0.249471 -0.131716
C44   C     C_1   0.499323 0.389176 0.749036 -0.132538
C45   C     C_1   0.499968 0.110824 0.250800 -0.139033
C46   C     C_1   0.499240 0.110827 0.750464 -0.142900
C47   C     C_1   0.500118 0.889169 0.749538 -0.131325
C48   C     C_1   0.499402 0.889176 0.249160 -0.131426
C49   C     C_3   0.496872 0.963313 0.250657 -0.126692
C50   C     C_3   0.497570 0.963288 0.748144 -0.120295
C51   C     C_3   0.496389 0.036736 0.748840 -0.124111
C52   C     C_3   0.497264 0.036742 0.252021 -0.127901
C53   C     C_3   0.496801 0.463321 0.750680 -0.128348
C54   C     C_3   0.497666 0.463290 0.248067 -0.120426
C55   C     C_3   0.496254 0.536731 0.248869 -0.124264
C56   C     C_3   0.497336 0.536742 0.752344 -0.126968
C57   C     C_3   0.996989 0.963314 0.750840 -0.125448
C58   C     C_3   0.997536 0.963288 0.248190 -0.119946
C59   C     C_3   0.996334 0.036735 0.248911 -0.123716
C60   C     C_3   0.997417 0.036740 0.752186 -0.126737
C61   C     C_3   0.997002 0.463314 0.250885 -0.125572
C62   C     C_3   0.997455 0.463284 0.748244 -0.120459
C63   C     C_3   0.996387 0.536737 0.748929 -0.124754
C64   C     C_3   0.997393 0.536739 0.252192 -0.126951
C65   C     C_3   0.957074 0.522019 0.216097 0.631279
C66   C     C_3   0.961507 0.521063 0.789709 0.631233
C67   C     C_3   0.968166 0.477593 0.793784 0.604073
C68   C     C_3   0.962031 0.478570 0.210222 0.608735
C69   C     C_3   0.957953 0.022079 0.715162 0.631697
C70   C     C_3   0.961424 0.020965 0.289606 0.630441
C71   C     C_3   0.968234 0.977529 0.293725 0.604556
C72   C     C_3   0.962912 0.978615 0.709444 0.609207
C73   C     C_3   0.456902 0.522223 0.716146 0.628402
C74   C     C_3   0.460688 0.520890 0.288946 0.631038
C75   C     C_3   0.467384 0.477462 0.293020 0.605117
C76   C     C_3   0.461251 0.478696 0.710415 0.607690
C77   C     C_3   0.459295 0.022141 0.213390 0.632398
C78   C     C_3   0.460752 0.020982 0.788924 0.630702
C79   C     C_3   0.467438 0.977540 0.793145 0.604738
C80   C     C_3   0.464260 0.978648 0.208014 0.610096
C81   C     C_1   0.999170 0.577578 0.251546 0.085846
C82   C     C_1   0.998119 0.577583 0.750180 0.083001
C83   C     C_1   0.999355 0.422415 0.749012 0.134841
C84   C     C_1   0.998569 0.422426 0.249368 0.126506
C85   C     C_1   0.999209 0.077578 0.751603 0.086029
C86   C     C_1   0.998026 0.077582 0.250211 0.082913
C87   C     C_1   0.999472 0.922417 0.248942 0.134189
C88   C     C_1   0.998564 0.922426 0.749336 0.126260
C89   C     C_1   0.499187 0.577579 0.751809 0.087724
C90   C     C_1   0.497909 0.577581 0.250257 0.083492
C91   C     C_1   0.499618 0.422419 0.248841 0.133891
C92   C     C_1   0.498423 0.422425 0.749058 0.124049
C93   C     C_1   0.499096 0.077579 0.251529 0.086495
C94   C     C_1   0.498065 0.077582 0.750166 0.083158
C95   C     C_1   0.499479 0.922417 0.748932 0.134275
C96   C     C_1   0.498520 0.922424 0.249207 0.125203
C97   C     C_1   0.500015 0.749978 0.431106 -0.135665
C98   C     C_1   0.499942 0.750033 0.568894 -0.135642
C99   C     C_1   0.500037 0.250038 0.568889 -0.135375
C100  C     C_1   0.499920 0.249950 0.431111 -0.135374
C101  C     C_1   0.500015 0.249978 0.931106 -0.135797
C102  C     C_1   0.499942 0.250033 0.068894 -0.135800
C103  C     C_1   0.500038 0.750038 0.068889 -0.135442
C104  C     C_1   0.499920 0.749950 0.931111 -0.135357
C105  C     C_1   0.000015 0.749978 0.931106 -0.135710
C106  C     C_1   0.999942 0.750033 0.068894 -0.135675
C107  C     C_1   0.000038 0.250038 0.068889 -0.135352
C108  C     C_1   0.999920 0.249950 0.931111 -0.135340
C109  C     C_1   0.000015 0.249978 0.431106 -0.135745
C110  C     C_1   0.999942 0.250033 0.568894 -0.135718
C111  C     C_1   0.000038 0.750038 0.568889 -0.135394
C112  C     C_1   0.999920 0.749950 0.431111 -0.135367
C113  C     C_1   0.499993 0.749995 0.474548 0.010760
C114  C     C_1   0.499957 0.750022 0.525451 0.010797
C115  C     C_1   0.500005 0.250013 0.525449 0.011274
C116  C     C_1   0.499946 0.249969 0.474551 0.011246
C117  C     C_1   0.499993 0.249995 0.974548 0.010611
C118  C     C_1   0.499957 0.250022 0.025451 0.010632
C119  C     C_1   0.500005 0.750013 0.025449 0.011214
C120  C     C_1   0.499946 0.749968 0.974551 0.011200
C121  C     C_1   0.999993 0.749995 0.974548 0.010712
C122  C     C_1   0.999956 0.750022 0.025451 0.010761
C123  C     C_1   0.000005 0.250013 0.025449 0.011298
C124  C     C_1   0.999946 0.249969 0.974551 0.011257
C125  C     C_1   0.999993 0.249995 0.474548 0.010662
C126  C     C_1   0.999957 0.250022 0.525451 0.010713
C127  C     C_1   0.000005 0.750013 0.525449 0.011256
C128  C     C_1   0.999946 0.749968 0.474551 0.011228
C129  C     C_R   0.500012 0.750020 0.120625 0.823177
C130  C     C_R   0.499960 0.749983 0.879374 0.822933
C131  C     C_R   0.500002 0.249987 0.879365 0.821902
C132  C     C_R   0.499970 0.250010 0.120635 0.822171
C133  C     C_R   0.500012 0.250020 0.620625 0.823118
C134  C     C_R   0.499960 0.249983 0.379374 0.823050
C135  C     C_R   0.500002 0.749987 0.379365 0.822013
C136  C     C_R   0.499970 0.750010 0.620635 0.822243
C137  C     C_R   0.000012 0.750020 0.620625 0.823187
C138  C     C_R   0.999960 0.749983 0.379374 0.823007
C139  C     C_R   0.000002 0.249987 0.379365 0.821886
C140  C     C_R   0.999970 0.250010 0.620635 0.822248
C141  C     C_R   0.000012 0.250020 0.120625 0.823191
C142  C     C_R   0.999960 0.249983 0.879374 0.822997
C143  C     C_R   0.000002 0.749987 0.879365 0.821936
C144  C     C_R   0.999970 0.750010 0.120635 0.822254
C145  C     C_R   0.370639 0.749997 0.249998 0.827266
C146  C     C_R   0.370614 0.749990 0.750012 0.828964
C147  C     C_R   0.370639 0.249997 0.749998 0.827267
C148  C     C_R   0.370614 0.249990 0.250012 0.829041
C149  C     C_R   0.870639 0.749997 0.749998 0.827309
C150  C     C_R   0.870614 0.749990 0.250012 0.828934
C151  C     C_R   0.870639 0.249997 0.249998 0.827321
C152  C     C_R   0.870614 0.249990 0.750012 0.828931
C153  C     C_R   0.629379 0.750010 0.249988 0.822323
C154  C     C_R   0.629354 0.750003 0.750002 0.820632
C155  C     C_R   0.629379 0.250010 0.749988 0.822139
C156  C     C_R   0.629354 0.250003 0.250002 0.820755
C157  C     C_R   0.129379 0.750010 0.749988 0.822265
C158  C     C_R   0.129354 0.750003 0.250002 0.820701
C159  C     C_R   0.129379 0.250010 0.249988 0.822202
C160  C     C_R   0.129354 0.250003 0.750002 0.820754
C161  C     C_1   0.681111 0.750023 0.249970 -0.130271
C162  C     C_1   0.681098 0.750006 0.750007 -0.129747
C163  C     C_1   0.681111 0.250023 0.749970 -0.130538
C164  C     C_1   0.681098 0.250006 0.250007 -0.129557
C165  C     C_1   0.181111 0.750023 0.749970 -0.130292
C166  C     C_1   0.181098 0.750006 0.250007 -0.129768
C167  C     C_1   0.181111 0.250023 0.249970 -0.130433
C168  C     C_1   0.181098 0.250006 0.750007 -0.129613
C169  C     C_1   0.724549 0.750011 0.249985 0.015905
C170  C     C_1   0.724544 0.750003 0.750004 0.015594
C171  C     C_1   0.724549 0.250011 0.749985 0.015670
C172  C     C_1   0.724544 0.250003 0.250004 0.015787
C173  C     C_1   0.224550 0.750011 0.749985 0.015903
C174  C     C_1   0.224544 0.750003 0.250004 0.015574
C175  C     C_1   0.224549 0.250011 0.249985 0.015752
C176  C     C_1   0.224544 0.250003 0.750004 0.015744
C177  C     C_1   0.775444 0.749988 0.250014 0.015826
C178  C     C_1   0.775450 0.749997 0.749997 0.015517
C179  C     C_1   0.775444 0.249988 0.750014 0.015658
C180  C     C_1   0.775450 0.249997 0.249997 0.015682
C181  C     C_1   0.275444 0.749988 0.750014 0.015874
C182  C     C_1   0.275450 0.749997 0.249997 0.015457
C183  C     C_1   0.275444 0.249988 0.250014 0.015718
C184  C     C_1   0.275450 0.249997 0.749997 0.015642
C185  C     C_1   0.818882 0.749977 0.250029 -0.132494
C186  C     C_1   0.818895 0.749993 0.749993 -0.132035
C187  C     C_1   0.818882 0.249977 0.750029 -0.132597
C188  C     C_1   0.818895 0.249994 0.249993 -0.131892
C189  C     C_1   0.318882 0.749977 0.750029 -0.132403
C190  C     C_1   0.318895 0.749993 0.249993 -0.132126
C191  C     C_1   0.318882 0.249977 0.250029 -0.132575
C192  C     C_1   0.318895 0.249994 0.749993 -0.131937
C193  C     C_3   0.549135 0.978820 0.243516 0.329326
C194  C     C_3   0.549834 0.979215 0.752634 0.325263
C195  C     C_3   0.548229 0.021650 0.759802 0.290357
C196  C     C_3   0.548076 0.021421 0.237615 0.291376
C197  C     C_3   0.548522 0.478812 0.740059 0.331116
C198  C     C_3   0.549873 0.479283 0.252716 0.324894
C199  C     C_3   0.548148 0.521714 0.259751 0.290635
C200  C     C_3   0.547137 0.521434 0.734635 0.292610
C201  C     C_3   0.048901 0.978839 0.741823 0.329386
C202  C     C_3   0.049857 0.979233 0.251721 0.325220
C203  C     C_3   0.048359 0.021664 0.258944 0.290180
C204  C     C_3   0.047587 0.021433 0.735805 0.290961
C205  C     C_3   0.048699 0.478863 0.240737 0.329521
C206  C     C_3   0.049811 0.479163 0.751791 0.324814
C207  C     C_3   0.048396 0.521611 0.758943 0.290339
C208  C     C_3   0.047204 0.521450 0.234679 0.291070
H1    H     H_    0.077142 0.533934 0.255516 0.127637
H2    H     H_    0.074945 0.534747 0.734465 0.126644
H3    H     H_    0.070167 0.473163 0.718624 0.090523
H4    H     H_    0.073083 0.472088 0.270877 0.088374
H5    H     H_    0.077038 0.033878 0.757332 0.127638
H6    H     H_    0.074894 0.034847 0.234514 0.126751
H7    H     H_    0.070169 0.973306 0.218512 0.090079
H8    H     H_    0.072626 0.972017 0.772462 0.088605
H9    H     H_    0.577137 0.533654 0.755679 0.125800
H10   H     H_    0.575044 0.534865 0.235704 0.126082
H11   H     H_    0.570974 0.473319 0.220012 0.090894
H12   H     H_    0.573336 0.471662 0.769836 0.087756
H13   H     H_    0.576659 0.033795 0.260369 0.126808
H14   H     H_    0.575203 0.034815 0.735833 0.126727
H15   H     H_    0.570762 0.973265 0.719812 0.090240
H16   H     H_    0.571815 0.971911 0.274960 0.088517
O1    O     O_3   0.499990 0.750000 0.250000 -0.488937
O2    O     O_3   0.499990 0.750000 0.750000 -0.489095
O3    O     O_3   0.499990 0.250000 0.750000 -0.488934
O4    O     O_3   0.499990 0.250000 0.250000 -0.489025
O5    O     O_3   0.999990 0.750000 0.750000 -0.488963
O6    O     O_3   0.999990 0.750000 0.250000 -0.489034
O7    O     O_3   0.999990 0.250000 0.250000 -0.488974
O8    O     O_3   0.999990 0.250000 0.750000 -0.489050
O9    O     O_R   0.527870 0.668020 0.277880 -0.622047
O10   O     O_R   0.527870 0.668020 0.722120 -0.622678
O11   O     O_R   0.527870 0.331980 0.722120 -0.620348
O12   O     O_R   0.527870 0.331980 0.277880 -0.620160
O13   O     O_R   0.527870 0.168020 0.777880 -0.622231
O14   O     O_R   0.527870 0.168020 0.222120 -0.622623
O15   O     O_R   0.527870 0.831980 0.222120 -0.620403
O16   O     O_R   0.527870 0.831980 0.777880 -0.620146
O17   O     O_R   0.027870 0.668020 0.777880 -0.622213
O18   O     O_R   0.027870 0.668020 0.222120 -0.622739
O19   O     O_R   0.027870 0.331980 0.222120 -0.620385
O20   O     O_R   0.027870 0.331980 0.777880 -0.620139
O21   O     O_R   0.027870 0.168020 0.277880 -0.622230
O22   O     O_R   0.027870 0.168020 0.722120 -0.622714
O23   O     O_R   0.027870 0.831980 0.722120 -0.620383
O24   O     O_R   0.027870 0.831980 0.277880 -0.620167
O25   O     O_R   0.472130 0.728510 0.143730 -0.634368
O26   O     O_R   0.472130 0.728510 0.856270 -0.634944
O27   O     O_R   0.472130 0.271490 0.856270 -0.634563
O28   O     O_R   0.472130 0.271490 0.143730 -0.635172
O29   O     O_R   0.472130 0.228510 0.643730 -0.634471
O30   O     O_R   0.472130 0.228510 0.356270 -0.635071
O31   O     O_R   0.472130 0.771490 0.356270 -0.634613
O32   O     O_R   0.472130 0.771490 0.643730 -0.635235
O33   O     O_R   0.972130 0.728510 0.643730 -0.634417
O34   O     O_R   0.972130 0.728510 0.356270 -0.634925
O35   O     O_R   0.972130 0.271490 0.356270 -0.634539
O36   O     O_R   0.972130 0.271490 0.643730 -0.635138
O37   O     O_R   0.972130 0.228510 0.143730 -0.634451
O38   O     O_R   0.972130 0.228510 0.856270 -0.635008
O39   O     O_R   0.972130 0.771490 0.856270 -0.634581
O40   O     O_R   0.972130 0.771490 0.143730 -0.635217
O41   O     O_R   0.393720 0.728520 0.222140 -0.630731
O42   O     O_R   0.393720 0.728520 0.777860 -0.630007
O43   O     O_R   0.393720 0.271480 0.777860 -0.629779
O44   O     O_R   0.393720 0.271480 0.222140 -0.630169
O45   O     O_R   0.393720 0.228520 0.722140 -0.630792
O46   O     O_R   0.393720 0.228520 0.277860 -0.630269
O47   O     O_R   0.393720 0.771480 0.277860 -0.630023
O48   O     O_R   0.393720 0.771480 0.722140 -0.630268
O49   O     O_R   0.893720 0.728520 0.722140 -0.630799
O50   O     O_R   0.893720 0.728520 0.277860 -0.630069
O51   O     O_R   0.893720 0.271480 0.277860 -0.629728
O52   O     O_R   0.893720 0.271480 0.722140 -0.630282
O53   O     O_R   0.893720 0.228520 0.222140 -0.630820
O54   O     O_R   0.893720 0.228520 0.777860 -0.630149
O55   O     O_R   0.893720 0.771480 0.777860 -0.629844
O56   O     O_R   0.893720 0.771480 0.222140 -0.630301
O57   O     O_R   0.606280 0.728500 0.277860 -0.629974
O58   O     O_R   0.606280 0.728500 0.722140 -0.630729
O59   O     O_R   0.606280 0.271500 0.722140 -0.629710
O60   O     O_R   0.606280 0.271500 0.277860 -0.629107
O61   O     O_R   0.606280 0.228500 0.777860 -0.630028
O62   O     O_R   0.606280 0.228500 0.222140 -0.630591
O63   O     O_R   0.606280 0.771500 0.222140 -0.629594
O64   O     O_R   0.606280 0.771500 0.777860 -0.629123
O65   O     O_R   0.106280 0.728500 0.777860 -0.629945
O66   O     O_R   0.106280 0.728500 0.222140 -0.630720
O67   O     O_R   0.106280 0.271500 0.222140 -0.629662
O68   O     O_R   0.106280 0.271500 0.777860 -0.629025
O69   O     O_R   0.106280 0.228500 0.277860 -0.630035
O70   O     O_R   0.106280 0.228500 0.722140 -0.630714
O71   O     O_R   0.106280 0.771500 0.722140 -0.629665
O72   O     O_R   0.106280 0.771500 0.277860 -0.629136
O73   O     O_R   0.527850 0.771500 0.143710 -0.628575
O74   O     O_R   0.527850 0.771500 0.856290 -0.628107
O75   O     O_R   0.527850 0.228500 0.856290 -0.628646
O76   O     O_R   0.527850 0.228500 0.143710 -0.628033
O77   O     O_R   0.527850 0.271500 0.643710 -0.628331
O78   O     O_R   0.527850 0.271500 0.356290 -0.627969
O79   O     O_R   0.527850 0.728500 0.356290 -0.628529
O80   O     O_R   0.527850 0.728500 0.643710 -0.627772
O81   O     O_R   0.027850 0.771500 0.643710 -0.628452
O82   O     O_R   0.027850 0.771500 0.356290 -0.628138
O83   O     O_R   0.027850 0.228500 0.356290 -0.628706
O84   O     O_R   0.027850 0.228500 0.643710 -0.627935
O85   O     O_R   0.027850 0.271500 0.143710 -0.628342
O86   O     O_R   0.027850 0.271500 0.856290 -0.628060
O87   O     O_R   0.027850 0.728500 0.856290 -0.628624
O88   O     O_R   0.027850 0.728500 0.143710 -0.627825
O89   O     O_R   0.472140 0.668020 0.222150 -0.638347
O90   O     O_R   0.472140 0.668020 0.777850 -0.636408
O91   O     O_R   0.472140 0.331980 0.777850 -0.638019
O92   O     O_R   0.472140 0.331980 0.222150 -0.639004
O93   O     O_R   0.472140 0.168020 0.722150 -0.638196
O94   O     O_R   0.472140 0.168020 0.277850 -0.637000
O95   O     O_R   0.472140 0.831980 0.277850 -0.638288
O96   O     O_R   0.472140 0.831980 0.722150 -0.639016
O97   O     O_R   0.972140 0.668020 0.722150 -0.638332
O98   O     O_R   0.972140 0.668020 0.277850 -0.636558
O99   O     O_R   0.972140 0.331980 0.277850 -0.637835
O100  O     O_R   0.972140 0.331980 0.722150 -0.639067
O101  O     O_R   0.972140 0.168020 0.222150 -0.638319
O102  O     O_R   0.972140 0.168020 0.777850 -0.636696
O103  O     O_R   0.972140 0.831980 0.777850 -0.638000
O104  O     O_R   0.972140 0.831980 0.222150 -0.639180
Zn1   Zn    Zn3+2 0.539790 0.780710 0.210180 1.004566
Zn2   Zn    Zn3+2 0.539790 0.780710 0.789820 1.004450
Zn3   Zn    Zn3+2 0.539790 0.219290 0.789820 1.000933
Zn4   Zn    Zn3+2 0.539790 0.219290 0.210180 1.000394
Zn5   Zn    Zn3+2 0.539790 0.280710 0.710180 1.004446
Zn6   Zn    Zn3+2 0.539790 0.280710 0.289820 1.004625
Zn7   Zn    Zn3+2 0.539790 0.719290 0.289820 1.001273
Zn8   Zn    Zn3+2 0.539790 0.719290 0.710180 1.000372
Zn9   Zn    Zn3+2 0.039790 0.780710 0.710180 1.004578
Zn10  Zn    Zn3+2 0.039790 0.780710 0.289820 1.004473
Zn11  Zn    Zn3+2 0.039790 0.219290 0.289820 1.000929
Zn12  Zn    Zn3+2 0.039790 0.219290 0.710180 1.000319
Zn13  Zn    Zn3+2 0.039790 0.280710 0.210180 1.004593
Zn14  Zn    Zn3+2 0.039790 0.280710 0.789820 1.004646
Zn15  Zn    Zn3+2 0.039790 0.719290 0.789820 1.001113
Zn16  Zn    Zn3+2 0.039790 0.719290 0.210180 1.000297
Zn17  Zn    Zn3+2 0.460190 0.719300 0.210200 0.990055
Zn18  Zn    Zn3+2 0.460190 0.719300 0.789800 0.991960
Zn19  Zn    Zn3+2 0.460190 0.280700 0.789800 0.991686
Zn20  Zn    Zn3+2 0.460190 0.280700 0.210200 0.991641
Zn21  Zn    Zn3+2 0.460190 0.219300 0.710200 0.990046
Zn22  Zn    Zn3+2 0.460190 0.219300 0.289800 0.991479
Zn23  Zn    Zn3+2 0.460190 0.780700 0.289800 0.991528
Zn24  Zn    Zn3+2 0.460190 0.780700 0.710200 0.991630
Zn25  Zn    Zn3+2 0.960190 0.719300 0.710200 0.990033
Zn26  Zn    Zn3+2 0.960190 0.719300 0.289800 0.991800
Zn27  Zn    Zn3+2 0.960190 0.280700 0.289800 0.991949
Zn28  Zn    Zn3+2 0.960190 0.280700 0.710200 0.991637
Zn29  Zn    Zn3+2 0.960190 0.219300 0.210200 0.990052
Zn30  Zn    Zn3+2 0.960190 0.219300 0.789800 0.991645
Zn31  Zn    Zn3+2 0.960190 0.780700 0.789800 0.991797
Zn32  Zn    Zn3+2 0.960190 0.780700 0.210200 0.991544
C209  C     C_3   0.422651 0.965843 0.307981 -0.654523
H17   H     H_    0.411848 0.964049 0.346354 0.204522
H18   H     H_    0.397360 0.984465 0.289825 0.302342
H19   H     H_    0.416149 0.937791 0.292839 0.255997
C210  C     C_3   0.421030 0.965445 0.693893 -0.660075
H20   H     H_    0.417604 0.934813 0.697774 0.240391
H21   H     H_    0.396474 0.978730 0.720152 0.310291
H22   H     H_    0.406473 0.972381 0.657567 0.204386
C211  C     C_3   0.435001 0.042516 0.676545 -0.694754
H23   H     H_    0.439988 0.073187 0.675811 0.231354
H24   H     H_    0.427727 0.033870 0.638652 0.208069
H25   H     H_    0.401392 0.036929 0.696739 0.279971
C212  C     C_3   0.441522 0.042073 0.329163 -0.718134
H26   H     H_    0.432099 0.028628 0.364024 0.217130
H27   H     H_    0.451035 0.071222 0.337620 0.228371
H28   H     H_    0.408243 0.043612 0.307629 0.283223
C213  C     C_3   0.426440 0.465929 0.812559 -0.636362
H29   H     H_    0.417197 0.465822 0.852768 0.202257
H30   H     H_    0.400501 0.484741 0.793439 0.309504
H31   H     H_    0.419476 0.436683 0.798901 0.253496
C214  C     C_3   0.421482 0.465093 0.193253 -0.659094
H32   H     H_    0.418437 0.434322 0.196704 0.239704
H33   H     H_    0.396412 0.478118 0.219588 0.308709
H34   H     H_    0.407214 0.472239 0.156794 0.204399
C215  C     C_3   0.434443 0.542338 0.176940 -0.693507
H35   H     H_    0.438813 0.573013 0.176965 0.231907
H36   H     H_    0.427342 0.534169 0.138874 0.207519
H37   H     H_    0.400911 0.536079 0.196833 0.279388
C216  C     C_3   0.446573 0.541902 0.832890 -0.724064
H38   H     H_    0.438814 0.528246 0.867959 0.216180
H39   H     H_    0.456753 0.570877 0.841167 0.229004
H40   H     H_    0.412280 0.543829 0.813248 0.283825
C217  C     C_3   0.924863 0.966138 0.810606 -0.652560
H41   H     H_    0.915082 0.965043 0.849527 0.204467
H42   H     H_    0.899155 0.984719 0.792425 0.305774
H43   H     H_    0.917994 0.937814 0.796238 0.255756
C218  C     C_3   0.919995 0.965456 0.195390 -0.658104
H44   H     H_    0.916621 0.934778 0.199450 0.240388
H45   H     H_    0.895852 0.978862 0.222067 0.310191
H46   H     H_    0.904864 0.972351 0.159253 0.204467
C219  C     C_3   0.933694 0.042520 0.177711 -0.694420
H47   H     H_    0.938658 0.073200 0.176916 0.231425
H48   H     H_    0.925803 0.033885 0.139941 0.208199
H49   H     H_    0.900419 0.036918 0.198453 0.279713
C220  C     C_3   0.944900 0.042160 0.831480 -0.719121
H50   H     H_    0.936834 0.028725 0.866658 0.216578
H51   H     H_    0.954830 0.071275 0.839564 0.228237
H52   H     H_    0.910795 0.043747 0.811349 0.283234
C221  C     C_3   0.926125 0.466224 0.312122 -0.649653
H53   H     H_    0.917003 0.465370 0.351418 0.204047
H54   H     H_    0.900085 0.484853 0.294106 0.307097
H55   H     H_    0.919030 0.437745 0.298067 0.255545
C222  C     C_3   0.920049 0.465320 0.695238 -0.670470
H56   H     H_    0.916854 0.435036 0.698466 0.239707
H57   H     H_    0.896348 0.477716 0.721941 0.311055
H58   H     H_    0.904353 0.472446 0.659796 0.205148
C223  C     C_3   0.933645 0.542492 0.677826 -0.693396
H59   H     H_    0.938701 0.573129 0.676927 0.230894
H60   H     H_    0.925588 0.533797 0.640125 0.208514
H61   H     H_    0.900455 0.537017 0.698699 0.281163
C224  C     C_3   0.946668 0.542232 0.332663 -0.719636
H62   H     H_    0.939397 0.528881 0.368057 0.216239
H63   H     H_    0.956748 0.571358 0.340384 0.228181
H64   H     H_    0.912095 0.543768 0.313354 0.283077
C225  C     C_3   0.502165 0.955822 0.344274 -0.882292
H65   H     H_    0.541777 0.956976 0.343455 0.227073
H66   H     H_    0.490097 0.966555 0.379667 0.249611
H67   H     H_    0.492507 0.926148 0.343949 0.245009
C226  C     C_3   0.498924 0.958116 0.654140 -0.876376
H68   H     H_    0.538494 0.961386 0.652005 0.225130
H69   H     H_    0.491919 0.927784 0.654596 0.241983
H70   H     H_    0.483569 0.968702 0.619862 0.250102
C227  C     C_3   0.520590 0.034763 0.658520 -0.922738
H71   H     H_    0.555511 0.020479 0.662800 0.211176
H72   H     H_    0.508884 0.029469 0.620934 0.259514
H73   H     H_    0.527811 0.064918 0.660948 0.244932
C228  C     C_3   0.527715 0.031684 0.340358 -0.926864
H74   H     H_    0.561108 0.015982 0.333841 0.212792
H75   H     H_    0.537170 0.061399 0.337495 0.242559
H76   H     H_    0.517858 0.026693 0.378613 0.262473
C229  C     C_3   0.507959 0.455603 0.843722 -0.880498
H77   H     H_    0.547463 0.456539 0.840097 0.227020
H78   H     H_    0.498513 0.466385 0.879942 0.249030
H79   H     H_    0.497861 0.426036 0.843955 0.244040
C230  C     C_3   0.499727 0.458370 0.154041 -0.878412
H80   H     H_    0.539188 0.462189 0.151904 0.225146
H81   H     H_    0.493463 0.427962 0.154536 0.241881
H82   H     H_    0.484188 0.468673 0.119700 0.250083
C231  C     C_3   0.520023 0.535206 0.158447 -0.921899
H83   H     H_    0.555226 0.521349 0.162672 0.211216
H84   H     H_    0.508314 0.529721 0.120910 0.259157
H85   H     H_    0.526630 0.565435 0.160750 0.245281
C232  C     C_3   0.533314 0.531463 0.838651 -0.924990
H86   H     H_    0.566155 0.515721 0.830057 0.213294
H87   H     H_    0.542642 0.561135 0.835248 0.242224
H88   H     H_    0.525834 0.526451 0.877447 0.262222
C233  C     C_3   0.005417 0.955763 0.844154 -0.882000
H89   H     H_    0.044966 0.956711 0.841854 0.227559
H90   H     H_    0.994731 0.966605 0.879892 0.249754
H91   H     H_    0.995457 0.926119 0.844258 0.244437
C234  C     C_3   0.997127 0.958097 0.154183 -0.876432
H92   H     H_    0.036662 0.961334 0.151339 0.225139
H93   H     H_    0.990086 0.927761 0.154744 0.242117
H94   H     H_    0.981157 0.968708 0.120202 0.250083
C235  C     C_3   0.018954 0.034748 0.158198 -0.922898
H95   H     H_    0.053932 0.020438 0.161861 0.211069
H96   H     H_    0.006584 0.029464 0.120828 0.259543
H97   H     H_    0.026242 0.064905 0.160503 0.245011
C236  C     C_3   0.031430 0.031584 0.839150 -0.927339
H98   H     H_    0.064422 0.015743 0.831306 0.212843
H99   H     H_    0.040938 0.061276 0.835883 0.242442
H100  H     H_    0.023096 0.026644 0.877752 0.262735
C237  C     C_3   0.007345 0.455776 0.344004 -0.880991
H101  H     H_    0.046870 0.456642 0.340788 0.227495
H102  H     H_    0.997496 0.466696 0.379967 0.249592
H103  H     H_    0.997257 0.426133 0.344377 0.244008
C238  C     C_3   0.997281 0.458140 0.654285 -0.876676
H104  H     H_    0.036736 0.461454 0.651479 0.224681
H105  H     H_    0.990370 0.427857 0.654931 0.242474
H106  H     H_    0.981403 0.468657 0.620248 0.250873
C239  C     C_3   0.018819 0.534748 0.658180 -0.924213
H107  H     H_    0.053805 0.520535 0.661836 0.211373
H108  H     H_    0.006451 0.529427 0.620824 0.259668
H109  H     H_    0.026027 0.564885 0.660448 0.245192
C240  C     C_3   0.033378 0.531603 0.338393 -0.926845
H110  H     H_    0.066179 0.515734 0.329801 0.212803
H111  H     H_    0.042829 0.561295 0.334914 0.242342
H112  H     H_    0.025905 0.526683 0.377186 0.262569
C241  C     C_3   0.482724 0.966235 0.157717 -0.719855
H113  H     H_    0.515842 0.980779 0.146390 0.283807
H114  H     H_    0.489843 0.936138 0.156923 0.251089
H115  H     H_    0.454863 0.971460 0.129890 0.229628
C242  C     C_3   0.489649 0.965012 0.841922 -0.714156
H116  H     H_    0.522555 0.980462 0.851557 0.284869
H117  H     H_    0.463320 0.968920 0.871531 0.229193
H118  H     H_    0.498480 0.935174 0.841584 0.252495
C243  C     C_3   0.463580 0.041535 0.837915 -0.741144
H119  H     H_    0.499215 0.040646 0.855332 0.257547
H120  H     H_    0.453516 0.070948 0.833391 0.240292
H121  H     H_    0.436919 0.029693 0.863373 0.241094
C244  C     C_3   0.460418 0.043291 0.164666 -0.738905
H122  H     H_    0.494721 0.041327 0.144881 0.257882
H123  H     H_    0.431518 0.032733 0.140733 0.241272
H124  H     H_    0.452459 0.072952 0.170206 0.238809
C245  C     C_3   0.476055 0.466230 0.658804 -0.717618
H125  H     H_    0.508214 0.480953 0.645042 0.282065
H126  H     H_    0.483409 0.436175 0.657522 0.250306
H127  H     H_    0.446085 0.471244 0.633041 0.229591
C246  C     C_3   0.489372 0.464827 0.341841 -0.714100
H128  H     H_    0.522309 0.480155 0.351643 0.284386
H129  H     H_    0.462960 0.468783 0.371362 0.229229
H130  H     H_    0.498034 0.434969 0.341475 0.252272
C247  C     C_3   0.463625 0.541355 0.337987 -0.741360
H131  H     H_    0.499231 0.540265 0.355420 0.257813
H132  H     H_    0.453801 0.570814 0.333548 0.240165
H133  H     H_    0.436871 0.529590 0.363405 0.241006
C248  C     C_3   0.454939 0.543440 0.667527 -0.737512
H134  H     H_    0.488042 0.541804 0.645729 0.257957
H135  H     H_    0.424768 0.532789 0.645268 0.240523
H136  H     H_    0.446954 0.573003 0.673743 0.239159
C249  C     C_3   0.979697 0.966359 0.658574 -0.718798
H137  H     H_    0.012284 0.981032 0.646161 0.284417
H138  H     H_    0.986940 0.936281 0.657462 0.251129
H139  H     H_    0.950915 0.971538 0.631761 0.229328
C250  C     C_3   0.991352 0.965029 0.342080 -0.713655
H140  H     H_    0.024410 0.980502 0.351096 0.284989
H141  H     H_    0.965578 0.968929 0.372165 0.229231
H142  H     H_    0.000204 0.935197 0.341590 0.252625
C251  C     C_3   0.965086 0.041528 0.338523 -0.740762
H143  H     H_    0.001026 0.040677 0.355292 0.257601
H144  H     H_    0.954899 0.070931 0.334171 0.240336
H145  H     H_    0.938909 0.029665 0.364453 0.241131
C252  C     C_3   0.956909 0.043306 0.666522 -0.738864
H146  H     H_    0.990401 0.041522 0.645390 0.257280
H147  H     H_    0.927158 0.032639 0.643779 0.241600
H148  H     H_    0.948950 0.072931 0.672447 0.238573
C253  C     C_3   0.977786 0.466369 0.158993 -0.718316
H149  H     H_    0.010063 0.481116 0.145893 0.284677
H150  H     H_    0.985110 0.436301 0.157715 0.251114
H151  H     H_    0.948416 0.471501 0.132801 0.229193
C254  C     C_3   0.991260 0.465026 0.842140 -0.713325
H152  H     H_    0.024368 0.480472 0.851150 0.285077
H153  H     H_    0.965481 0.468938 0.872228 0.229294
H154  H     H_    0.000052 0.435174 0.841644 0.252551
C255  C     C_3   0.965345 0.541645 0.838632 -0.740683
H155  H     H_    0.001317 0.540738 0.855357 0.258020
H156  H     H_    0.955234 0.571079 0.834306 0.240250
H157  H     H_    0.939157 0.529841 0.864611 0.240938
C256  C     C_3   0.954804 0.543277 0.167483 -0.738876
H158  H     H_    0.987834 0.541569 0.145578 0.257003
H159  H     H_    0.924555 0.532553 0.145430 0.241694
H160  H     H_    0.946884 0.572894 0.173603 0.238417
F1    F     F_    0.418773 0.962931 0.211037 -0.625397
F2    F     F_    0.422562 0.960734 0.793002 -0.626862
F3    F     F_    0.413980 0.027811 0.774887 -0.646199
F4    F     F_    0.413458 0.029689 0.229655 -0.644067
F5    F     F_    0.415882 0.463045 0.716936 -0.627889
F6    F     F_    0.422520 0.460673 0.292701 -0.626711
F7    F     F_    0.413887 0.527692 0.275006 -0.645194
F8    F     F_    0.412232 0.529884 0.735260 -0.647271
F9    F     F_    0.917704 0.962734 0.713943 -0.626518
F10   F     F_    0.923393 0.960688 0.294418 -0.626909
F11   F     F_    0.914414 0.027753 0.276380 -0.646440
F12   F     F_    0.912834 0.029419 0.733396 -0.646345
F13   F     F_    0.916965 0.462599 0.215665 -0.626802
F14   F     F_    0.923239 0.460856 0.794471 -0.626826
F15   F     F_    0.914470 0.528000 0.776625 -0.644886
F16   F     F_    0.912351 0.529225 0.235457 -0.647099
F17   F     F_    0.572504 0.962427 0.204958 -0.596498
F18   F     F_    0.575762 0.962400 0.789176 -0.596672
F19   F     F_    0.563554 0.030910 0.805548 -0.618164
F20   F     F_    0.560971 0.031413 0.191310 -0.618125
F21   F     F_    0.569123 0.462601 0.699715 -0.595447
F22   F     F_    0.575680 0.462560 0.289409 -0.596375
F23   F     F_    0.563556 0.531082 0.305426 -0.617036
F24   F     F_    0.557099 0.531642 0.687674 -0.617259
F25   F     F_    0.070910 0.962377 0.702585 -0.596922
F26   F     F_    0.076467 0.962415 0.287758 -0.596902
F27   F     F_    0.064485 0.030915 0.304408 -0.618393
F28   F     F_    0.058564 0.031339 0.689004 -0.619012
F29   F     F_    0.069882 0.462381 0.201055 -0.596874
F30   F     F_    0.076363 0.462332 0.787877 -0.596578
F31   F     F_    0.064572 0.530869 0.804400 -0.618012
F32   F     F_    0.057081 0.531320 0.187599 -0.619063

loop_
_geom_bond_atom_site_label_1
_geom_bond_atom_site_label_2
_ccdc_geom_bond_type
C62   C83   S    
C202  F26   S    
C201  F25   S    
C233  H89   S    
C52   C196  S    
C198  F22   S    
O79   Zn7   S    
C50   C79   S    
C4    O92   A    
C150  C185  S    
C108  C142  S    
C5    O93   A    
C228  H74   S    
C253  H151  S    
C6    O14   A    
C7    O95   A    
C170  C178  S    
O6    Zn16  S    
O18   Zn16  S    
C102  C132  S    
C24   C232  S    
C215  H35   S    
O2    Zn18  S    
O10   Zn8   S    
O93   Zn21  S    
O63   Zn1   S    
C26   C234  S    
C2    C41   S    
C235  H97   S    
O22   Zn12  S    
C225  H65   S    
C213  H31   S    
C3    O11   A    
C55   C74   S    
C55   C199  S    
C1    O9    A    
C233  H91   S    
C231  H84   S    
C207  H2    S    
C66   F15   S    
C2    O90   A    
C39   C87   T    
C155  O61   A    
C48   C96   T    
C44   C92   T    
O99   Zn27  S    
C211  H25   S    
O53   Zn29  S    
C148  C191  S    
C234  H93   S    
C149  C186  S    
C222  H57   S    
O95   Zn23  S    
C199  H10   S    
C13   O101  A    
C108  C124  T    
C152  C187  S    
O8    Zn28  S    
O37   Zn29  S    
C16   O24   A    
C151  C188  S    
C209  H19   S    
C129  O25   A    
C166  C174  T    
C51   C78   S    
C202  C203  S    
C112  C138  S    
O13   Zn3   S    
O71   Zn9   S    
C152  O52   A    
C212  H28   S    
O41   Zn17  S    
C248  H135  S    
O4    Zn6   S    
C206  C207  S    
C229  H79   S    
C236  H98   S    
O1    Zn23  S    
C153  C161  S    
C20   C228  S    
C237  H103  S    
C24   C216  S    
O7    Zn29  S    
C30   C222  S    
C247  H132  S    
C204  F28   S    
C235  H96   S    
C157  O65   A    
C246  H130  S    
C243  H121  S    
C60   C85   S    
C227  H73   S    
O30   Zn22  S    
O5    Zn31  S    
O66   Zn16  S    
O90   Zn18  S    
C196  F20   S    
O3    Zn5   S    
C104  C130  S    
O84   Zn12  S    
O101  Zn29  S    
C252  H147  S    
C216  H38   S    
C225  H67   S    
C17   C225  S    
C220  H52   S    
C158  O66   A    
C157  C165  S    
C52   C77   S    
C208  F32   S    
C203  H6    S    
O6    Zn26  S    
O19   Zn13  S    
C175  C183  S    
C217  H41   S    
C228  H76   S    
C176  C184  S    
C56   C73   S    
C140  O36   A    
C141  O37   A    
C159  O69   A    
C131  O27   A    
C61   C84   S    
O2    Zn24  S    
O102  Zn30  S    
C23   C55   S    
O61   Zn3   S    
C4    C43   S    
C137  O33   A    
C24   C56   S    
C20   C52   S    
C5    C46   S    
O54   Zn30  S    
C49   C80   S    
C53   C197  S    
C7    C48   S    
O80   Zn8   S    
C218  H45   S    
C253  H149  S    
C8    C47   S    
O97   Zn25  S    
C29   C32   S    
C256  H159  S    
C51   C195  S    
C32   C224  S    
O64   Zn2   S    
C14   O102  A    
C248  H136  S    
C40   C88   T    
C30   C31   S    
C111  C137  S    
C129  O73   A    
C20   C212  S    
C159  C167  S    
C30   C238  S    
C160  C168  S    
C155  O59   A    
C230  H80   S    
C58   C71   S    
O23   Zn9   S    
C98   C114  T    
C178  C186  T    
C54   C91   S    
O42   Zn18  S    
C238  H105  S    
C21   C24   S    
C22   C23   S    
C206  F30   S    
O88   Zn16  S    
C243  H120  S    
C221  H53   S    
C220  H50   S    
C205  F29   S    
C62   C206  S    
C56   C200  S    
C41   C89   T    
C138  O34   A    
C224  H62   S    
C17   C209  S    
C145  C190  S    
C69   C72   S    
C11   O19   A    
C18   C50   S    
C71   C250  S    
C9    O17   A    
C255  H157  S    
C73   F8    S    
O28   Zn20  S    
C219  H47   S    
C123  C124  S    
C22   C54   S    
C234  H92   S    
C75   F6    S    
C254  H152  S    
C72   F9    S    
C130  O74   A    
C77   F4    S    
C55   C90   S    
C194  F18   S    
C115  C116  S    
O14   Zn4   S    
C68   C253  S    
O27   Zn19  S    
C32   C240  S    
O3    Zn3   S    
C80   C241  S    
C60   C204  S    
C193  H16   S    
C17   C49   S    
C11   O99   A    
C12   O20   A    
O52   Zn28  S    
C153  O63   A    
C216  H40   S    
C154  O64   A    
C107  C141  S    
C197  H12   S    
C15   O103  A    
C161  C169  T    
C6    O94   A    
C66   C67   S    
C197  F21   S    
C244  H122  S    
O87   Zn15  S    
C4    O12   A    
C171  C179  S    
C25   C57   S    
C160  O68   A    
C169  C177  S    
C72   C249  S    
C223  H60   S    
C100  C134  S    
C239  H107  S    
C77   C244  S    
C8    O16   A    
C69   F12   S    
C217  H43   S    
C29   C61   S    
C3    C44   S    
C245  H126  S    
C63   C82   S    
C18   C226  S    
C31   C63   S    
C32   C64   S    
C210  H22   S    
O33   Zn25  S    
C59   C70   S    
C155  C163  S    
C216  H39   S    
C200  F24   S    
C42   C90   T    
C3    O91   A    
C230  H82   S    
O3    Zn21  S    
C201  H8    S    
C240  H110  S    
O43   Zn19  S    
O62   Zn4   S    
C46   C94   T    
C193  C196  S    
C106  C122  T    
C251  H143  S    
O49   Zn25  S    
C52   C93   S    
C221  H55   S    
C249  H138  S    
C58   C202  S    
C13   C38   S    
C110  C126  T    
C56   C89   S    
C140  O84   A    
C224  H64   S    
C141  O85   A    
C29   C237  S    
C164  C172  T    
C97   C135  S    
C27   C235  S    
C219  H49   S    
C137  O81   A    
C167  C175  T    
C234  H94   S    
C168  C176  T    
C132  O76   A    
O57   Zn7   S    
O25   Zn17  S    
C154  C162  S    
O1    Zn1   S    
O59   Zn5   S    
C143  O87   A    
C144  O88   A    
C253  H150  S    
C182  C190  T    
O7    Zn13  S    
O31   Zn23  S    
C101  C117  T    
C250  H141  S    
C70   C251  S    
C218  H44   S    
C60   C69   S    
O5    Zn15  S    
C71   F10   S    
C76   F5    S    
C255  H156  S    
C195  F19   S    
C10   C33   S    
C149  O55   A    
C64   C81   S    
C213  H30   S    
C207  F31   S    
C54   C75   S    
C138  O82   A    
O34   Zn26  S    
C231  H83   S    
C250  H142  S    
C57   C201  S    
C19   C211  S    
O69   Zn11  S    
C145  O41   A    
C34   C82   T    
C229  H78   S    
C215  H36   S    
C242  H116  S    
C151  O51   A    
O94   Zn22  S    
C12   C35   S    
O16   Zn2   S    
C61   C205  S    
C194  H15   S    
C211  H24   S    
C13   O21   A    
C222  H56   S    
C6    C45   S    
C225  H66   S    
C198  H11   S    
C100  C116  T    
C107  C123  T    
C27   C219  S    
C131  O75   A    
C25   C28   S    
C209  H18   S    
C26   C27   S    
C5    O13   A    
C80   F1    S    
O3    Zn19  S    
C254  H154  S    
C212  H27   S    
C99   C115  T    
C246  H128  S    
C68   F13   S    
C226  H70   S    
C179  C187  T    
C79   C242  S    
C148  O44   A    
C239  H109  S    
C177  C185  T    
C29   C221  S    
C18   C19   S    
C74   C247  S    
C232  H87   S    
C180  C188  T    
C181  C189  T    
C2    O10   A    
C208  H1    S    
C227  H72   S    
C65   F16   S    
C139  O35   A    
C184  C192  T    
C146  C189  S    
C70   C71   S    
C67   F14   S    
C202  H7    S    
C163  C171  T    
C196  H13   S    
C248  H134  S    
C172  C180  S    
C236  H99   S    
C194  C195  S    
C151  O53   A    
C63   C66   S    
C173  C181  S    
O39   Zn31  S    
C252  H146  S    
C21   C213  S    
C200  H9    S    
C233  H90   S    
C23   C231  S    
C241  H115  S    
C242  H118  S    
C133  O77   A    
C228  H75   S    
O75   Zn3   S    
C9    O97   A    
O11   Zn5   S    
O74   Zn2   S    
C65   C256  S    
O96   Zn24  S    
C218  H46   S    
C156  O60   A    
C35   C83   T    
C205  H4    S    
O68   Zn14  S    
C226  H68   S    
O58   Zn8   S    
C22   C230  S    
C203  F27   S    
C197  C200  S    
C31   C223  S    
C256  H158  S    
O72   Zn10  S    
C217  H42   S    
O8    Zn30  S    
C162  C170  T    
C18   C210  S    
C231  H85   S    
O32   Zn24  S    
O12   Zn6   S    
O91   Zn19  S    
C26   C58   S    
C121  C122  S    
C152  O54   A    
C101  C131  S    
C38   C86   T    
C222  H58   S    
C25   C233  S    
C30   C62   S    
C125  C126  S    
C73   C76   S    
O1    Zn17  S    
C53   C76   S    
C143  O39   A    
C133  O29   A    
C127  C128  S    
C144  O40   A    
O83   Zn11  S    
C158  C166  S    
O8    Zn12  S    
O86   Zn14  S    
C113  C114  S    
C77   C80   S    
O103  Zn31  S    
C237  H102  S    
C11   C36   S    
O51   Zn27  S    
O70   Zn12  S    
O44   Zn20  S    
C66   C255  S    
C135  O79   A    
C195  H14   S    
C210  H20   S    
C119  C120  S    
C136  O80   A    
O29   Zn21  S    
C256  H160  S    
C19   C227  S    
C145  O47   A    
O5    Zn9   S    
C64   C65   S    
C157  O71   A    
C210  H21   S    
C158  O72   A    
C28   C220  S    
C147  O45   A    
C251  H144  S    
C14   C37   S    
O6    Zn32  S    
C50   C194  S    
O40   Zn32  S    
C79   F2    S    
C146  O48   A    
C150  O50   A    
C19   C51   S    
O56   Zn32  S    
C10   O98   A    
C57   C72   S    
O24   Zn10  S    
C159  O67   A    
C15   C40   S    
C112  C128  T    
C78   C243  S    
C16   C39   S    
O73   Zn1   S    
C59   C203  S    
C1    C42   S    
O4    Zn20  S    
O20   Zn14  S    
C252  H148  S    
C214  H33   S    
O85   Zn13  S    
C142  O38   A    
C135  O31   A    
C117  C118  S    
C149  O49   A    
C104  C120  T    
C25   C217  S    
C1    O89   A    
C232  H88   S    
O4    Zn4   S    
C251  H145  S    
C10   O18   A    
C69   C252  S    
C58   C87   S    
C156  O62   A    
C223  H59   S    
C74   F7    S    
C241  H114  S    
C242  H117  S    
C64   C208  S    
C245  H125  S    
C238  H104  S    
O89   Zn17  S    
C62   C67   S    
C8    O96   A    
C37   C85   T    
C78   F3    S    
C214  H32   S    
C243  H119  S    
C238  H106  S    
C220  H51   S    
O47   Zn23  S    
C50   C95   S    
C139  O83   A    
C165  C173  T    
C98   C136  S    
C99   C133  S    
C146  O42   A    
C247  H131  S    
O81   Zn9   S    
C28   C236  S    
O76   Zn4   S    
C142  O86   A    
C206  H3    S    
O2    Zn2   S    
O82   Zn10  S    
C73   C248  S    
C75   C246  S    
C150  O56   A    
C255  H155  S    
C198  C199  S    
C221  H54   S    
C249  H137  S    
C102  C118  T    
C215  H37   S    
C110  C140  S    
C65   C68   S    
O38   Zn30  S    
C67   C254  S    
O5    Zn25  S    
C219  H48   S    
O9    Zn7   S    
O92   Zn20  S    
O55   Zn31  S    
C70   F11   S    
O48   Zn24  S    
C74   C75   S    
C226  H69   S    
C153  O57   A    
O50   Zn26  S    
C148  O46   A    
O21   Zn11  S    
C134  O30   A    
C147  O43   A    
C246  H129  S    
O78   Zn6   S    
C78   C79   S    
O104  Zn32  S    
C199  F23   S    
C237  H101  S    
C204  H5    S    
C23   C215  S    
C43   C91   T    
O45   Zn21  S    
C63   C207  S    
C31   C239  S    
O100  Zn28  S    
C193  F17   S    
C160  O70   A    
C214  H34   S    
C103  C129  S    
C16   O104  A    
O4    Zn22  S    
C147  C192  S    
O15   Zn1   S    
C53   C92   S    
C235  H95   S    
C105  C121  T    
O1    Zn7   S    
C21   C229  S    
C12   O100  A    
C213  H29   S    
C28   C60   S    
C103  C119  T    
C174  C182  S    
C109  C125  T    
C7    O15   A    
C45   C93   T    
C244  H123  S    
C111  C127  T    
C201  C204  S    
C244  H124  S    
O17   Zn15  S    
C130  O26   A    
C97   C113  T    
O7    Zn27  S    
C223  H61   S    
O60   Zn6   S    
C132  O28   A    
C211  H23   S    
C241  H113  S    
C205  C208  S    
C245  H127  S    
O26   Zn18  S    
C17   C20   S    
C136  O32   A    
O6    Zn10  S    
C15   O23   A    
C183  C191  T    
C105  C143  S    
C106  C144  S    
C26   C218  S    
C230  H81   S    
C209  H17   S    
C54   C198  S    
C57   C88   S    
C109  C139  S    
C247  H133  S    
O36   Zn28  S    
O65   Zn15  S    
C59   C86   S    
O8    Zn14  S    
C240  H112  S    
C240  H111  S    
C27   C59   S    
C212  H26   S    
C21   C53   S    
O67   Zn13  S    
C61   C68   S    
O2    Zn8   S    
C229  H77   S    
C9    C34   S    
C49   C193  S    
C36   C84   T    
C76   C245  S    
C239  H108  S    
C49   C96   S    
C232  H86   S    
C249  H139  S    
C236  H100  S    
C154  O58   A    
C51   C94   S    
O35   Zn27  S    
O98   Zn26  S    
C254  H153  S    
C156  C164  S    
C224  H63   S    
C227  H71   S    
O7    Zn11  S    
C47   C95   T    
C22   C214  S    
O77   Zn5   S    
C134  O78   A    
C250  H140  S    
C33   C81   T    
O46   Zn22  S    
C14   O22   A    
