data_mof_unit_12339.cif
_audit_creation_date              2012-12-10T18:28:21-0500
_audit_creation_method            fapswitch 2.2
_symmetry_space_group_name_H-M    P1
_symmetry_Int_Tables_number       1
_space_group_crystal_system       triclinic
_cell_length_a                    22.910486
_cell_length_b                    21.044831
_cell_length_c                    14.957108
_cell_angle_alpha                 90.111539
_cell_angle_beta                  100.399411
_cell_angle_gamma                 90.05738
_cell_volume                      7093.04773987

loop_
_atom_site_label
_atom_site_type_symbol
_atom_type_description
_atom_site_fract_x
_atom_site_fract_y
_atom_site_fract_z
_atom_type_partial_charge
C1    C     C_R   0.574387 0.088333 0.552633 0.942465
C2    C     C_R   0.701236 0.687529 0.358980 0.613824
C3    C     C_R   0.722288 0.233533 0.476188 -0.131572
C4    C     C_R   0.223238 0.264834 0.484718 -0.114818
C5    C     C_R   0.777486 0.742663 0.507799 -0.110020
C6    C     C_R   0.775337 0.265427 0.511002 -0.118228
C7    C     C_R   0.219752 0.746462 0.493000 -0.112748
C8    C     C_R   0.286769 0.216167 0.615460 0.332698
C9    C     C_R   0.678026 0.710691 0.433129 0.366172
C10   C     C_R   0.706794 0.222235 0.380510 0.404116
C11   C     C_R   0.318860 0.713195 0.566918 0.366553
C12   C     C_R   0.814883 0.778942 0.575413 0.310086
C13   C     C_R   0.750309 0.228954 0.326188 0.647457
C14   C     C_R   0.211567 0.279640 0.389953 0.381290
C15   C     C_R   0.182748 0.783283 0.425990 0.309643
C16   C     C_R   0.790839 0.275956 0.606769 0.392426
C17   C     C_R   0.295623 0.690976 0.641444 0.610941
C18   C     C_R   0.791888 0.803057 0.648902 0.648823
C19   C     C_R   0.258505 0.279086 0.341563 0.598515
C20   C     C_R   0.205896 0.807227 0.352605 0.642976
C21   C     C_R   0.746094 0.274425 0.659300 0.615000
C22   C     C_R   0.626861 0.993781 0.191741 0.279399
C23   C     C_R   0.373055 0.994427 0.808383 0.279712
C24   C     C_R   0.132884 0.488126 0.204143 0.267440
C25   C     C_R   0.425046 0.912489 0.446122 0.977946
C26   C     C_R   0.887568 0.553950 0.804970 0.275928
C27   C     C_R   0.608797 0.989528 0.277632 0.353947
C28   C     C_R   0.391167 0.989602 0.722490 0.352788
C29   C     C_R   0.111320 0.499143 0.286264 0.427915
C30   C     C_R   0.895848 0.526389 0.721644 0.350560
C31   C     C_R   0.509262 0.015432 0.207943 -0.021839
C32   C     C_R   0.490791 0.015456 0.792175 -0.023683
C33   C     C_R   0.011620 0.502620 0.203137 0.004463
C34   C     C_R   0.988726 0.482890 0.791181 -0.004496
C35   C     C_R   0.528053 0.029950 0.124570 -0.014728
C36   C     C_R   0.425758 0.088382 0.447526 0.944259
C37   C     C_R   0.472054 0.030104 0.875680 -0.009381
C38   C     C_R   0.034840 0.497021 0.122647 -0.041563
C39   C     C_R   0.984436 0.510597 0.874872 -0.029555
C40   C     C_R   0.588539 0.022664 0.120416 -0.074615
C41   C     C_R   0.411520 0.023407 0.879722 -0.072040
C42   C     C_R   0.091356 0.472301 0.128046 -0.097869
C43   C     C_R   0.936047 0.552339 0.877146 -0.101088
C44   C     C_R   0.488922 0.045521 0.042001 -0.034839
C45   C     C_R   0.511259 0.045326 0.958433 -0.028529
C46   C     C_R   0.007530 0.521425 0.038943 -0.046582
C47   C     C_R   0.574865 0.912490 0.553764 0.978182
C48   C     C_R   0.024256 0.497712 0.957196 -0.043889
C49   C     C_R   0.571867 0.058540 0.963790 0.351006
C50   C     C_R   0.428412 0.059397 0.036653 0.354567
C51   C     C_R   0.078998 0.463073 0.964919 0.404873
C52   C     C_R   0.972820 0.577162 0.034089 0.350436
C53   C     C_R   0.610081 0.045453 0.044333 -0.078818
C54   C     C_R   0.390146 0.046689 0.955836 -0.068525
C55   C     C_R   0.108941 0.447281 0.051030 -0.087945
C56   C     C_R   0.937333 0.591820 0.952464 -0.086006
C57   C     C_R   0.620732 0.866781 0.590816 -0.225179
C58   C     C_R   0.074750 0.587951 0.553341 0.978472
C59   C     C_R   0.387225 0.143112 0.421384 -0.272210
C60   C     C_R   0.378604 0.867215 0.408833 -0.224844
C61   C     C_R   0.613582 0.142692 0.579154 -0.272522
C62   C     C_R   0.111763 0.356414 0.580279 -0.259753
C63   C     C_R   0.875995 0.630623 0.411745 -0.230441
C64   C     C_R   0.884715 0.359776 0.415594 -0.255504
C65   C     C_R   0.121278 0.634009 0.588140 -0.251453
C66   C     C_R   0.705117 0.842794 0.708229 0.498795
C67   C     C_R   0.357611 0.236160 0.328117 0.500950
C68   C     C_R   0.293050 0.845065 0.292382 0.493572
C69   C     C_R   0.925189 0.412257 0.446520 0.927081
C70   C     C_R   0.647103 0.233123 0.676565 0.498191
C71   C     C_R   0.143629 0.268014 0.681748 0.505428
C72   C     C_R   0.789107 0.652334 0.297095 0.488166
C73   C     C_R   0.846094 0.277903 0.305459 0.507155
C74   C     C_R   0.207403 0.656869 0.703605 0.497096
C75   C     C_R   0.650836 0.873189 0.680365 -0.312873
C76   C     C_R   0.396558 0.185128 0.352869 -0.248383
C77   C     C_R   0.348119 0.874196 0.319668 -0.310470
C78   C     C_R   0.606858 0.183088 0.651166 -0.248195
C79   C     C_R   0.104233 0.318102 0.653721 -0.257803
C80   C     C_R   0.924350 0.586888 0.446302 0.955640
C81   C     C_R   0.845324 0.625158 0.322385 -0.280622
C82   C     C_R   0.887239 0.326246 0.335342 -0.308499
C83   C     C_R   0.150801 0.630609 0.678207 -0.292379
C84   C     C_R   0.638184 0.820478 0.534740 0.727857
C85   C     C_R   0.344132 0.157349 0.473151 0.728149
C86   C     C_R   0.360475 0.821424 0.464894 0.728924
C87   C     C_R   0.654911 0.158219 0.524780 0.725082
C88   C     C_R   0.153626 0.339607 0.528115 0.703673
C89   C     C_R   0.854596 0.671020 0.472463 0.732242
C90   C     C_R   0.844462 0.341324 0.469557 0.718478
C91   C     C_R   0.073877 0.411359 0.552545 0.962489
C92   C     C_R   0.142001 0.675208 0.528085 0.744391
C93   C     C_R   0.692742 0.788917 0.560982 -0.091337
C94   C     C_R   0.312412 0.213404 0.460007 -0.112202
C95   C     C_R   0.305085 0.791155 0.439264 -0.087852
C96   C     C_R   0.687153 0.213911 0.539056 -0.111828
C97   C     C_R   0.186192 0.284213 0.545190 -0.109044
C98   C     C_R   0.799953 0.701972 0.446809 -0.096249
C99   C     C_R   0.809981 0.287411 0.448861 -0.110791
C100  C     C_R   0.196902 0.706075 0.553841 -0.100377
C101  C     C_R   0.730163 0.808433 0.642887 -0.266737
C102  C     C_R   0.240763 0.220252 0.665644 0.631712
C103  C     C_R   0.310777 0.246047 0.377099 -0.261164
C104  C     C_R   0.267676 0.811391 0.357931 -0.270228
C105  C     C_R   0.692218 0.243781 0.624732 -0.256489
C106  C     C_R   0.188974 0.254514 0.630715 -0.278243
C107  C     C_R   0.763090 0.683627 0.364241 -0.254476
C108  C     C_R   0.803263 0.261880 0.359880 -0.272139
C109  C     C_R   0.233755 0.687565 0.636354 -0.252773
C110  C     C_R   0.715105 0.747094 0.500985 -0.110007
C111  C     C_R   0.274920 0.231131 0.520704 -0.120670
C112  C     C_R   0.282192 0.749926 0.499348 -0.107733
F1    F     F_    0.251662 0.200238 0.753230 -0.531302
F2    F     F_    0.605140 0.812675 0.450620 -0.630875
F3    F     F_    0.668281 0.116891 0.462057 -0.581033
F4    F     F_    0.393798 0.813119 0.548642 -0.630518
F5    F     F_    0.883035 0.673018 0.560396 -0.603039
F6    F     F_    0.167557 0.380356 0.465593 -0.632423
F7    F     F_    0.112257 0.678417 0.441022 -0.581326
F8    F     F_    0.833793 0.379361 0.537906 -0.600966
F9    F     F_    0.663733 0.657792 0.291121 -0.563261
F10   F     F_    0.735995 0.212436 0.237216 -0.528378
F11   F     F_    0.333045 0.661673 0.709525 -0.564583
F12   F     F_    0.829759 0.832763 0.716383 -0.523447
F13   F     F_    0.248401 0.300533 0.254678 -0.570765
F14   F     F_    0.168349 0.837778 0.285890 -0.517855
F15   F     F_    0.759667 0.292107 0.747882 -0.576672
F16   F     F_    0.328647 0.114365 0.531777 -0.579378
H1    H     H_    0.433769 0.177871 0.319024 0.271753
H2    H     H_    0.343327 0.055847 0.952328 0.220744
H3    H     H_    0.150974 0.422524 0.058399 0.246144
H4    H     H_    0.910867 0.634570 0.947886 0.220070
H5    H     H_    0.536825 0.016696 0.786495 0.201608
H6    H     H_    0.463251 0.016716 0.213665 0.202860
H7    H     H_    0.020984 0.448212 0.782508 0.222937
H8    H     H_    0.964838 0.510771 0.201375 0.173270
H9    H     H_    0.684063 0.144457 0.954734 0.397319
H10   H     H_    0.316212 0.145343 0.048870 0.395992
H11   H     H_    0.218108 0.454908 0.876319 0.411939
H12   H     H_    0.634413 0.905566 0.726501 0.232470
H13   H     H_    0.928213 0.718091 0.068366 0.389557
H14   H     H_    0.706138 0.845202 0.949788 0.420574
H15   H     H_    0.446894 0.308926 0.176792 0.408477
H16   H     H_    0.290007 0.848832 0.049939 0.424286
H17   H     H_    0.564412 0.304006 0.838439 0.413953
H18   H     H_    0.061429 0.210545 0.853284 0.406495
H19   H     H_    0.788531 0.661715 0.058055 0.415164
H20   H     H_    0.918927 0.228611 0.118460 0.405959
H21   H     H_    0.214372 0.630449 0.946166 0.424115
H22   H     H_    0.359178 0.295606 0.752001 0.360894
H23   H     H_    0.570834 0.175275 0.687213 0.273977
H24   H     H_    0.591389 0.588331 0.375902 0.414047
H25   H     H_    0.580983 0.250363 0.197448 0.410350
H26   H     H_    0.402027 0.589067 0.623285 0.412130
H27   H     H_    0.850475 0.906193 0.535049 0.370612
H28   H     H_    0.137194 0.263477 0.182245 0.404623
H29   H     H_    0.149348 0.910706 0.469282 0.371072
H30   H     H_    0.870364 0.248915 0.807314 0.406657
H31   H     H_    0.355857 0.874685 0.664455 0.387882
H32   H     H_    0.643540 0.874862 0.336462 0.388495
H33   H     H_    0.809459 0.434321 0.696579 0.386912
H34   H     H_    0.364891 0.906193 0.273525 0.231981
H35   H     H_    0.222539 0.436000 0.363861 0.398188
H36   H     H_    0.755700 0.883106 0.213286 0.412352
H37   H     H_    0.243120 0.884865 0.786907 0.413971
H38   H     H_    0.278191 0.574063 0.238030 0.410718
H39   H     H_    0.724350 0.586619 0.773329 0.409889
H40   H     H_    0.862496 0.594875 0.274695 0.243830
H41   H     H_    0.068780 0.328414 0.690488 0.257473
H42   H     H_    0.132219 0.602725 0.726577 0.266935
H43   H     H_    0.919958 0.339148 0.294610 0.244803
H44   H     H_    0.656977 0.054207 0.047786 0.220887
N1    N     N_R   0.549130 0.000000 0.284090 -0.175007
N2    N     N_R   0.450870 1.000000 0.715910 -0.175254
N3    N     N_R   0.049130 0.500000 0.284090 -0.164696
N4    N     N_R   0.950870 0.500000 0.715910 -0.178575
O1    O     O_R   0.541320 0.066090 0.608930 -0.616072
O2    O     O_R   0.427120 0.933890 0.529720 -0.537183
O3    O     O_3   0.756540 0.556648 0.766304 -0.401891
O4    O     O_R   0.427120 0.066110 0.529720 -0.514562
O5    O     O_R   0.572880 0.933890 0.470280 -0.537401
O6    O     O_R   0.072880 0.566110 0.470280 -0.516114
O7    O     O_R   0.927120 0.433890 0.529720 -0.510463
O8    O     O_R   0.927120 0.566110 0.529720 -0.536218
O9    O     O_R   0.072880 0.433890 0.470280 -0.521867
O10   O     O_2   0.630791 0.074454 0.825118 -0.325582
O11   O     O_2   0.546372 0.145236 0.832557 -0.228059
O12   O     O_3   0.644078 0.163795 0.947248 -0.431733
O13   O     O_R   0.458680 0.933910 0.391070 -0.632128
O14   O     O_2   0.369297 0.073749 0.175516 -0.322356
O15   O     O_2   0.453838 0.144955 0.170526 -0.248840
O16   O     O_3   0.356336 0.164424 0.056096 -0.425803
O17   O     O_2   0.112537 0.392333 0.833848 -0.315984
O18   O     O_2   0.112123 0.508298 0.811715 -0.319321
O19   O     O_3   0.196501 0.458710 0.927782 -0.447283
O20   O     O_2   0.940853 0.627945 0.183486 -0.302014
O21   O     O_2   0.045700 0.636210 0.171629 -0.184323
O22   O     O_3   0.970922 0.709465 0.070242 -0.433646
O23   O     O_2   0.775767 0.792232 0.853561 -0.197034
O24   O     O_R   0.458680 0.066090 0.391070 -0.615064
O25   O     O_2   0.778814 0.908119 0.835094 -0.148133
O26   O     O_3   0.686962 0.858953 0.888185 -0.513312
O27   O     O_2   0.332286 0.273533 0.154487 -0.137988
O28   O     O_2   0.361476 0.356143 0.269737 -0.185004
O29   O     O_3   0.443483 0.281782 0.229633 -0.493109
O30   O     O_2   0.220583 0.795790 0.147509 -0.183523
O31   O     O_2   0.220040 0.911767 0.166976 -0.145609
O32   O     O_3   0.310324 0.860584 0.111940 -0.512680
O33   O     O_2   0.677686 0.266970 0.851336 -0.142890
O34   O     O_2   0.647520 0.351969 0.740988 -0.189683
O35   O     O_R   0.541320 0.933910 0.608930 -0.632465
O36   O     O_3   0.565558 0.278418 0.783134 -0.470657
O37   O     O_2   0.142477 0.154144 0.762305 -0.163190
O38   O     O_2   0.175650 0.246082 0.859865 -0.172086
O39   O     O_3   0.063022 0.234074 0.796482 -0.504474
O40   O     O_2   0.716213 0.587140 0.169020 -0.155854
O41   O     O_2   0.716113 0.703405 0.154850 -0.215369
O42   O     O_3   0.806095 0.640627 0.115778 -0.509062
O43   O     O_2   0.842405 0.168312 0.212163 -0.165213
O44   O     O_2   0.806128 0.264424 0.126995 -0.178442
O45   O     O_3   0.919832 0.250492 0.177391 -0.523513
O46   O     O_R   0.041320 0.566090 0.608930 -0.604959
O47   O     O_2   0.280961 0.589458 0.826889 -0.190019
O48   O     O_2   0.280739 0.705265 0.848450 -0.191611
O49   O     O_3   0.191534 0.640156 0.884978 -0.488578
O50   O     O_2   0.370237 0.138835 0.707048 -0.178726
O51   O     O_2   0.406583 0.227464 0.625867 -0.288566
O52   O     O_3   0.367198 0.251531 0.773916 -0.416184
O53   O     O_2   0.597891 0.690431 0.544510 -0.206698
O54   O     O_2   0.559327 0.702359 0.381434 -0.162618
O55   O     O_3   0.613086 0.597485 0.438066 -0.450993
O56   O     O_2   0.621112 0.145749 0.291350 -0.222503
O57   O     O_R   0.958680 0.433910 0.391070 -0.647192
O58   O     O_2   0.588242 0.232202 0.381296 -0.286940
O59   O     O_3   0.621552 0.260482 0.229950 -0.446253
O60   O     O_2   0.397790 0.690430 0.454345 -0.206666
O61   O     O_2   0.437447 0.702086 0.617212 -0.161111
O62   O     O_3   0.380999 0.598371 0.560851 -0.453217
O63   O     O_2   0.933789 0.781483 0.625960 -0.099313
O64   O     O_2   0.895220 0.799852 0.464055 -0.250549
O65   O     O_3   0.884771 0.889531 0.578621 -0.404479
O66   O     O_2   0.092817 0.262024 0.379493 -0.231743
O67   O     O_2   0.124441 0.350202 0.292587 -0.302298
O68   O     O_R   0.958680 0.566090 0.391070 -0.602416
O69   O     O_3   0.134117 0.235249 0.234117 -0.450448
O70   O     O_2   0.063919 0.787844 0.375521 -0.072695
O71   O     O_2   0.102742 0.804555 0.537860 -0.254135
O72   O     O_3   0.114720 0.894851 0.425432 -0.406191
O73   O     O_2   0.907555 0.254172 0.604522 -0.237097
O74   O     O_2   0.883991 0.339633 0.703560 -0.275723
O75   O     O_3   0.871352 0.222903 0.752347 -0.453372
O76   O     O_2   0.275141 0.999663 0.645144 -0.141745
O77   O     O_2   0.340026 0.996983 0.537366 -0.205620
O78   O     O_3   0.323910 0.892841 0.618099 -0.499506
O79   O     O_R   0.041320 0.433910 0.608930 -0.625088
O80   O     O_2   0.724923 0.999356 0.354797 -0.144672
O81   O     O_2   0.660052 0.998148 0.462677 -0.207930
O82   O     O_3   0.675417 0.893167 0.382976 -0.497126
O83   O     O_2   0.801911 0.584716 0.619846 -0.198841
O84   O     O_2   0.841018 0.500224 0.540418 -0.222605
O85   O     O_3   0.784192 0.468048 0.663817 -0.391687
O86   O     O_2   0.178945 0.588060 0.383293 -0.186289
O87   O     O_2   0.159599 0.500390 0.477100 -0.245185
O88   O     O_3   0.232812 0.481385 0.374730 -0.414606
O89   O     O_2   0.682744 0.935762 0.069162 -0.281784
O90   O     O_R   0.572880 0.066110 0.470280 -0.512071
O91   O     O_2   0.741826 0.008074 0.177299 -0.183137
O92   O     O_3   0.717760 0.895489 0.231335 -0.480748
O93   O     O_2   0.316551 0.937626 0.931069 -0.283199
O94   O     O_2   0.258183 0.009789 0.822528 -0.175999
O95   O     O_3   0.281291 0.896646 0.769093 -0.480255
O96   O     O_2   0.245651 0.453975 0.196859 -0.193344
O97   O     O_2   0.201302 0.534049 0.087760 -0.235468
O98   O     O_3   0.237270 0.570772 0.250465 -0.417134
O99   O     O_2   0.814016 0.585942 0.922378 -0.277082
O100  O     O_2   0.820021 0.658776 0.797161 -0.231051
S1    S     S_3+6 0.597918 0.110532 0.887357 0.055774
S2    S     S_3+6 0.754133 0.645908 0.181868 0.145863
S3    S     S_3+6 0.852041 0.238475 0.202676 0.145489
S4    S     S_3+6 0.242887 0.648042 0.818282 0.151986
S5    S     S_3+6 0.360075 0.207008 0.679057 0.153680
S6    S     S_3+6 0.609649 0.676843 0.450683 0.186781
S7    S     S_3+6 0.631988 0.213427 0.322233 0.143328
S8    S     S_3+6 0.386236 0.677562 0.548414 0.186629
S9    S     S_3+6 0.884374 0.810794 0.559053 0.193567
S10   S     S_3+6 0.138301 0.283444 0.325052 0.130940
S11   S     S_3+6 0.113798 0.815990 0.443140 0.201030
S12   S     S_3+6 0.402372 0.110619 0.114451 0.057156
S13   S     S_3+6 0.865825 0.274873 0.665790 0.134429
S14   S     S_3+6 0.332426 0.971924 0.627718 0.170944
S15   S     S_3+6 0.667452 0.972222 0.372549 0.170665
S16   S     S_3+6 0.831660 0.520926 0.632071 0.185811
S17   S     S_3+6 0.168716 0.517648 0.383909 0.179236
S18   S     S_3+6 0.693797 0.958429 0.166154 0.102220
S19   S     S_3+6 0.305778 0.959791 0.833981 0.104844
S20   S     S_3+6 0.205698 0.511114 0.183863 0.130917
S21   S     S_3+6 0.818864 0.589974 0.823640 0.110789
S22   S     S_3+6 0.124181 0.455648 0.880057 0.044137
S23   S     S_3+6 0.983261 0.637536 0.119033 0.105794
S24   S     S_3+6 0.739450 0.850421 0.823631 0.152659
S25   S     S_3+6 0.372410 0.288924 0.242881 0.177818
S26   S     S_3+6 0.258207 0.853265 0.177368 0.159872
S27   S     S_3+6 0.635838 0.284516 0.765672 0.177240
S28   S     S_3+6 0.132639 0.223612 0.777849 0.164451
Zn1   Zn    Zn3+2 0.478910 1.000000 0.592580 1.094167
Zn2   Zn    Zn3+2 0.521090 1.000000 0.407420 1.094028
Zn3   Zn    Zn3+2 0.978910 0.500000 0.592580 1.108754
Zn4   Zn    Zn3+2 0.021090 0.500000 0.407420 1.107539

loop_
_geom_bond_atom_site_label_1
_geom_bond_atom_site_label_2
_ccdc_geom_bond_type
O82   S15   S    
O27   S25   D    
C70   S27   S    
O55   S6    S    
N2    Zn1   S    
C74   C83   A    
O100  S21   D    
O39   S28   S    
O74   S13   D    
N1    Zn2   S    
C52   S23   S    
C92   F7    S    
H28   O69   S    
O68   Zn4   S    
C32   H5    S    
C94   C111  A    
C68   C77   A    
C36   O4    A    
O9    Zn4   S    
C15   S11   S    
C25   C60   S    
C87   F3    S    
C88   C97   A    
O10   S1    D    
O17   S22   D    
H17   O36   S    
O79   Zn3   S    
C7    C15   A    
C100  C109  A    
C11   S8    S    
C29   N3    A    
C30   N4    A    
H11   O19   S    
O46   Zn3   S    
C15   C20   A    
C46   C48   A    
C36   O24   A    
C71   S28   S    
C5    C12   A    
C8    C111  A    
C93   C101  A    
C60   C86   A    
C25   O2    A    
C73   C108  A    
C62   C88   A    
C19   F13   S    
O59   S7    S    
O97   S20   D    
O91   S18   D    
C42   C55   A    
O42   S2    S    
O73   S13   D    
O86   S17   D    
O41   S2    D    
C22   C27   A    
O75   S13   S    
O88   S17   S    
C37   C45   A    
O90   Zn2   S    
H14   O26   S    
O37   S28   D    
O21   S23   D    
C2    F9    S    
C44   C50   A    
C77   H34   S    
C82   H43   S    
C84   F2    S    
C11   C112  A    
C14   C19   A    
C70   C105  A    
C17   C109  A    
C9    C110  A    
O54   S6    D    
C33   C38   A    
C23   C41   A    
C75   H12   S    
C35   C40   A    
O13   Zn2   S    
C91   O79   A    
C49   C53   A    
C66   S24   S    
O49   S4    S    
C72   S2    S    
C84   C93   A    
C4    C14   A    
H29   O72   S    
O93   S19   D    
C86   C95   A    
O67   S10   D    
C6    C16   A    
H33   O85   S    
C71   C106  A    
H19   O42   S    
H31   O78   S    
O65   S9    S    
O78   S14   S    
O8    Zn3   S    
C51   S22   S    
O99   S21   D    
O52   S5    S    
O84   S16   D    
N3    Zn4   S    
C47   O35   A    
C16   S13   S    
O24   Zn2   S    
C47   O5    A    
C3    C6    A    
C71   C79   A    
C67   C103  A    
C73   S3    S    
O25   S24   D    
C99   C108  A    
C74   S4    S    
C67   S25   S    
C34   H7    S    
O28   S25   D    
C5    C110  A    
O48   S4    D    
O85   S16   S    
C7    C112  A    
C76   H1    S    
C69   O57   A    
H38   O98   S    
O29   S25   S    
C61   C87   A    
C53   H44   S    
C51   C55   A    
H9    O12   S    
O63   S9    D    
C4    C97   A    
O5    Zn2   S    
O92   S18   S    
C66   C101  A    
C13   C108  A    
C24   S20   S    
C78   H23   S    
C63   C80   S    
O11   S1    D    
C54   H2    S    
H22   O52   S    
C34   C39   A    
O3    S21   S    
O34   S27   D    
C29   S17   S    
C32   C37   A    
C26   S21   S    
C90   F8    S    
H20   O45   S    
C59   C85   A    
C47   C57   S    
C58   C65   S    
C49   S1    S    
C62   C91   S    
C63   C89   A    
C64   C69   S    
O95   S19   S    
C69   O7    A    
C4    C111  A    
C89   F5    S    
C26   C30   A    
O14   S12   D    
C88   F6    S    
C90   C99   A    
O81   S15   D    
C68   S26   S    
C31   H6    S    
O7    Zn3   S    
H18   O39   S    
O72   S11   S    
C93   C110  A    
C89   C98   A    
C57   C75   A    
C25   O13   A    
C28   N2    A    
O83   S16   D    
C14   S10   S    
C9    S6    S    
O76   S14   D    
C80   O8    A    
O56   S7    D    
C37   C41   A    
C38   C46   A    
O35   Zn1   S    
C85   F16   S    
C27   S15   S    
C2    C9    A    
C59   C76   A    
O80   S15   D    
H39   O3    S    
C96   C105  A    
C24   C42   A    
O77   S14   D    
O60   S8    D    
C64   C90   A    
C36   C59   S    
O16   S12   S    
H36   O92   S    
C50   C54   A    
O33   S27   D    
C95   C112  A    
O20   S23   D    
O61   S8    D    
O98   S20   S    
C24   C29   A    
O66   S10   D    
C1    O90   A    
H35   O88   S    
O36   S27   S    
C72   C81   A    
C91   O9    A    
O31   S26   D    
C23   S19   S    
O51   S5    D    
O38   S28   D    
O12   S1    S    
C7    C100  A    
O64   S9    D    
O30   S26   D    
C32   N2    A    
C98   C107  A    
C10   S7    S    
C20   F14   S    
C45   C49   A    
O44   S3    D    
H32   O82   S    
O87   S17   D    
C57   C84   A    
H30   O75   S    
C56   H4    S    
O96   S20   D    
C97   C106  A    
H27   O65   S    
C94   C103  A    
C55   H3    S    
C31   C35   A    
H13   O22   S    
C22   S18   S    
C73   C82   A    
C44   C45   A    
H26   O62   S    
C11   C17   A    
H37   O95   S    
C50   S12   S    
O69   S10   S    
O40   S2    D    
H10   O16   S    
C68   C104  A    
C1    C61   S    
O26   S24   S    
C58   O6    A    
C79   H41   S    
O50   S5    D    
O32   S26   S    
C102  F1    S    
C33   H8    S    
H15   O29   S    
O53   S6    D    
C66   C75   A    
C81   H40   S    
C21   C105  A    
C39   C48   A    
H16   O32   S    
C65   C92   A    
O22   S23   S    
C13   F10   S    
C70   C78   A    
H21   O49   S    
C27   N1    A    
C74   C109  A    
C58   O46   A    
C63   C81   A    
C38   C42   A    
C65   C83   A    
C83   H42   S    
C46   C52   A    
C2    C107  A    
H25   O59   S    
C86   F4    S    
O94   S19   D    
C19   C103  A    
O18   S22   D    
C48   C51   A    
C3    C96   A    
C21   F15   S    
H24   O55   S    
C30   S16   S    
O43   S3    D    
O70   S11   D    
C1    O1    A    
O15   S12   D    
C17   F11   S    
C26   C43   A    
O19   S22   S    
C60   C77   A    
C62   C79   A    
O2    Zn1   S    
C34   N4    A    
O71   S11   D    
C39   C43   A    
O47   S4    D    
N4    Zn3   S    
C80   O68   A    
C18   C101  A    
C12   S9    S    
C85   C94   A    
C72   C107  A    
C61   C78   A    
C22   C40   A    
C87   C96   A    
C35   C44   A    
C64   C82   A    
C40   C53   A    
O45   S3    S    
C23   C28   A    
O57   Zn4   S    
C95   C104  A    
C92   C100  A    
C31   N1    A    
O4    Zn1   S    
C10   C13   A    
C16   C21   A    
C20   C104  A    
C6    C99   A    
C28   S14   S    
C3    C10   A    
C8    S5    S    
O89   S18   D    
O6    Zn4   S    
C102  C106  A    
O1    Zn1   S    
C33   N3    A    
C41   C54   A    
O62   S8    S    
C43   C56   A    
C5    C98   A    
O58   S7    D    
C12   C18   A    
O23   S24   D    
C67   C76   A    
C8    C102  A    
C52   C56   A    
C18   F12   S    
