data_mof_unit_51301.cif
_audit_creation_date              2012-12-10T16:50:56-0500
_audit_creation_method            fapswitch 2.2
_symmetry_space_group_name_H-M    P1
_symmetry_Int_Tables_number       1
_space_group_crystal_system       triclinic
_cell_length_a                    7.884595
_cell_length_b                    8.551807
_cell_length_c                    10.508535
_cell_angle_alpha                 91.015943
_cell_angle_beta                  87.392716
_cell_angle_gamma                 93.213449
_cell_volume                      706.636265866

loop_
_atom_site_label
_atom_site_type_symbol
_atom_type_description
_atom_site_fract_x
_atom_site_fract_y
_atom_site_fract_z
_atom_type_partial_charge
C1    C     C_R   0.544898 0.794006 0.497534 0.986927
C2    C     C_R   0.973349 0.630939 0.073178 -0.139825
C3    C     C_R   0.099539 0.752686 0.072593 -0.154559
C4    C     C_R   0.988246 0.615563 0.940473 -0.166602
C5    C     C_R   0.244134 0.715550 0.136148 -0.231114
C6    C     C_R   0.840182 0.613220 0.870675 -0.225345
C7    C     C_R   0.372395 0.636987 0.070009 0.042658
C8    C     C_R   0.678960 0.591560 0.933091 0.037543
C9    C     C_R   0.381185 0.640874 0.936200 0.051662
C10   C     C_R   0.669216 0.602549 0.066445 0.050520
C11   C     C_R   0.510555 0.583969 0.131294 -0.209067
C12   C     C_R   0.454881 0.205972 0.500745 0.972824
C13   C     C_R   0.524715 0.583576 0.869735 -0.210696
C14   C     C_3   0.425211 0.968091 0.826497 -0.810441
C15   C     C_3   0.728843 0.913553 0.204259 -0.824703
C16   C     C_2   0.568030 0.957661 0.498755 -0.362667
C17   C     C_2   0.431298 0.042173 0.495608 -0.410539
C18   C     C_R   0.508311 0.524972 0.738562 0.900610
C19   C     C_R   0.501040 0.524624 0.261664 0.899487
C20   C     C_R   0.263232 0.729473 0.875581 0.235357
C21   C     C_R   0.813753 0.658757 0.129592 0.234274
C22   C     C_R   0.103082 0.748332 0.937289 -0.165606
H1    H     H_    0.048549 0.509068 0.908571 0.171682
H2    H     H_    0.991608 0.629078 0.584796 0.169982
H3    H     H_    0.228738 0.869508 0.721412 0.222842
H4    H     H_    0.465089 0.049037 0.748509 0.246377
H5    H     H_    0.541756 0.928107 0.868580 0.250111
H6    H     H_    0.350780 0.034033 0.899808 0.233524
H7    H     H_    0.902751 0.777573 0.290389 0.228502
H8    H     H_    0.764485 0.004380 0.276324 0.237734
H9    H     H_    0.588116 0.899978 0.203535 0.251689
H10   H     H_    0.779410 0.955645 0.109694 0.232396
H11   H     H_    0.059759 0.863745 0.111816 0.162408
H12   H     H_    0.046169 0.849789 0.898752 0.144156
H13   H     H_    0.007254 0.523619 0.118354 0.147144
H14   H     H_    0.253281 0.748049 0.235827 0.167844
H15   H     H_    0.853863 0.637570 0.770766 0.169628
H16   H     H_    0.697203 0.008185 0.504465 0.173077
H17   H     H_    0.301973 0.991618 0.491004 0.173502
H18   H     H_    0.009992 0.375628 0.410338 0.188965
N1    N     N_2   0.950330 0.457950 0.466250 -0.185818
N2    N     N_2   0.049670 0.542050 0.533750 -0.187621
N3    N     N_2   0.322878 0.835607 0.778393 -0.291752
N4    N     N_2   0.797924 0.765669 0.234968 -0.275633
O1    O     O_R   0.389250 0.738570 0.508280 -0.628034
O2    O     O_R   0.610750 0.261430 0.491720 -0.607174
O3    O     O_R   0.678390 0.711630 0.486650 -0.637170
O4    O     O_R   0.321610 0.288370 0.513350 -0.620676
O5    O     O_R   0.355430 0.513480 0.694040 -0.609007
O6    O     O_R   0.644570 0.486520 0.305960 -0.609574
O7    O     O_R   0.644570 0.486540 0.672410 -0.626457
O8    O     O_R   0.355430 0.513460 0.327590 -0.633227
Zn1   Zn    Zn3+2 0.306940 0.517990 0.514440 0.918003
Zn2   Zn    Zn3+2 0.693060 0.482010 0.485560 0.921879

loop_
_geom_bond_atom_site_label_1
_geom_bond_atom_site_label_2
_ccdc_geom_bond_type
C2    H13   S    
C12   C17   S    
C2    C4    A    
C15   H9    S    
C8    C13   A    
C14   H5    S    
C21   N4    S    
C4    C22   A    
N1    N2    D    
C9    C20   A    
C18   O7    A    
C12   O4    A    
O7    Zn2   S    
C11   C19   S    
O2    Zn2   S    
C2    C21   A    
C2    C3    A    
C6    H15   S    
O1    Zn1   S    
C15   H10   S    
H7    N4    S    
C1    C16   S    
C14   H4    S    
C7    C11   A    
N1    Zn2   S    
C19   O6    A    
C1    O1    A    
O6    Zn2   S    
C13   C18   S    
O3    Zn2   S    
O5    Zn1   S    
C4    C6    A    
H3    N3    S    
C20   C22   A    
C15   N4    S    
C14   N3    S    
C5    C7    A    
C10   C21   A    
O4    Zn1   S    
C22   H12   S    
N2    Zn1   S    
C10   C11   A    
C3    H11   S    
C5    H14   S    
C20   N3    S    
H2    N2    S    
O8    Zn1   S    
C15   H8    S    
C8    C10   A    
C17   H17   S    
C7    C9    A    
C4    H1    S    
C9    C13   A    
H18   N1    S    
C3    C22   A    
C6    C8    A    
C14   H6    S    
C19   O8    A    
C1    O3    A    
C18   O5    A    
C16   H16   S    
C16   C17   D    
C3    C5    A    
C12   O2    A    
