data_mof_unit_64381.cif
_audit_creation_date              2012-12-11T17:17:16-0500
_audit_creation_method            fapswitch 2.2
_symmetry_space_group_name_H-M    P1
_symmetry_Int_Tables_number       1
_space_group_crystal_system       triclinic
_cell_length_a                    8.192267
_cell_length_b                    16.466985
_cell_length_c                    18.922962
_cell_angle_alpha                 97.088801
_cell_angle_beta                  93.078055
_cell_angle_gamma                 93.167017
_cell_volume                      2524.64069259

loop_
_atom_site_label
_atom_site_type_symbol
_atom_type_description
_atom_site_fract_x
_atom_site_fract_y
_atom_site_fract_z
_atom_type_partial_charge
Ba1   Ba    Ba6+2 0.843980 0.537940 0.465850 1.633017
Ba2   Ba    Ba6+2 0.345840 0.462130 0.534150 1.641193
C1    C     C_3   0.591063 0.828388 0.281347 -0.371683
C2    C     C_3   0.437072 0.512826 0.242137 -0.019548
C3    C     C_2   0.373060 0.525531 0.167820 -0.141849
C4    C     C_3   0.111653 0.713351 0.273226 0.306756
C5    C     C_2   0.218126 0.497258 0.144376 -0.078105
C6    C     C_2   0.114594 0.456392 0.196461 -0.013865
C7    C     C_1   0.159255 0.471254 0.267151 0.063656
C8    C     C_R   0.050164 0.498195 0.927693 0.458930
C9    C     C_R   0.157969 0.500830 0.067841 0.450567
C10   C     C_R   0.087237 0.525600 0.799597 -0.126955
C11   C     C_R   0.031858 0.517096 0.726865 0.066463
C12   C     C_3   0.605537 0.745125 0.307130 0.339771
C13   C     C_R   0.782727 0.445260 0.754409 0.013473
C14   C     C_R   0.836046 0.453392 0.826879 -0.143379
C15   C     C_R   0.991174 0.492332 0.850518 -0.073241
C16   C     C_3   0.088106 0.733072 0.197130 -0.342789
C17   C     C_R   0.883632 0.474075 0.704900 -0.285650
C18   C     C_R   0.377213 0.732858 0.472317 -0.291865
C19   C     C_R   0.526284 0.759238 0.508642 0.038710
C20   C     C_R   0.580724 0.842362 0.515336 -0.122095
C21   C     C_R   0.483889 0.899686 0.485486 0.247890
C22   C     C_R   0.330277 0.871941 0.451276 -0.165655
C23   C     C_3   0.480603 0.330614 0.316788 0.330273
C24   C     C_R   0.276511 0.788866 0.445777 -0.010620
C25   C     C_R   0.617151 0.147334 0.491668 -0.116397
C26   C     C_R   0.667161 0.230530 0.496497 0.004588
C27   C     C_R   0.716422 0.092406 0.523628 0.249113
C28   C     C_3   0.205209 0.711707 0.620802 0.309019
C29   C     C_R   0.812207 0.260458 0.534501 -0.288639
C30   C     C_R   0.917501 0.207083 0.562003 -0.004216
C31   C     C_R   0.869040 0.123149 0.557743 -0.165736
C32   C     C_3   0.220196 0.804364 0.640283 -0.385275
C33   C     C_3   0.988532 0.290622 0.386255 0.284120
C34   C     C_3   0.432145 0.295639 0.239869 -0.406256
C35   C     C_3   0.967401 0.197319 0.368942 -0.282937
C36   C     C_3   0.708008 0.644176 0.679999 0.308706
C37   C     C_3   0.726022 0.668790 0.760337 -0.385397
C38   C     C_1   0.123459 0.162334 0.351551 0.313049
C39   C     C_3   0.016623 0.377237 0.165975 -0.196898
C40   C     C_3   0.831035 0.387196 0.160267 -0.154229
C41   C     C_3   0.743476 0.320945 0.105611 -0.450459
C42   C     C_3   0.114888 0.292353 0.731050 0.357939
C43   C     C_3   0.135037 0.269598 0.806345 -0.355628
C44   C     C_3   0.588432 0.245933 0.692677 0.355754
C45   C     C_3   0.572239 0.161638 0.717418 -0.361601
C46   C     C_2   0.296417 0.514496 0.290705 -0.258951
H1    H     H_    0.726940 0.744659 0.335815 0.116753
H2    H     H_    0.617794 0.590751 0.668394 0.068160
H3    H     H_    0.604604 0.877264 0.327655 0.094081
H4    H     H_    0.819595 0.720652 0.773482 0.126724
H5    H     H_    0.764530 0.616650 0.787629 0.067781
H6    H     H_    0.607027 0.687703 0.780287 0.130281
H7    H     H_    0.507763 0.736483 0.344183 -0.025068
H8    H     H_    0.469330 0.831055 0.253200 0.117286
H9    H     H_    0.369489 0.353580 0.341656 0.018768
H10   H     H_    0.574189 0.382146 0.317375 0.023089
H11   H     H_    0.328670 0.248835 0.238161 0.139422
H12   H     H_    0.315504 0.821550 0.684389 0.127255
H13   H     H_    0.393616 0.344780 0.208753 0.049412
H14   H     H_    0.537492 0.266495 0.214965 0.129727
H15   H     H_    0.688596 0.839188 0.244405 0.137473
H16   H     H_    0.148722 0.687752 0.160521 0.083493
H17   H     H_    0.184072 0.351901 0.729355 0.090933
H18   H     H_    0.982782 0.299124 0.718745 -0.065360
H19   H     H_    0.266338 0.263223 0.821002 0.154034
H20   H     H_    0.088284 0.318118 0.844696 0.073481
H21   H     H_    0.064892 0.210688 0.809779 0.108146
H22   H     H_    0.719354 0.259918 0.684140 -0.065121
H23   H     H_    0.254764 0.834694 0.593735 0.061364
H24   H     H_    0.514989 0.243958 0.641387 0.092520
H25   H     H_    0.615917 0.115088 0.676358 0.080079
H26   H     H_    0.442166 0.145222 0.726044 0.151787
H27   H     H_    0.056770 0.650467 0.274854 0.078016
H28   H     H_    0.647092 0.161432 0.768095 0.109683
H29   H     H_    0.455651 0.551775 0.132488 0.114897
H30   H     H_    0.203091 0.559052 0.816376 0.110236
H31   H     H_    0.756697 0.429335 0.864327 0.104298
H32   H     H_    0.295929 0.562141 0.335850 0.046045
H33   H     H_    0.841546 0.467839 0.649208 0.067951
H34   H     H_    0.101127 0.826488 0.657457 0.126580
H35   H     H_    0.503825 0.125782 0.461438 0.123493
H36   H     H_    0.252207 0.915091 0.429790 0.098419
H37   H     H_    0.696283 0.861877 0.544560 0.110685
H38   H     H_    0.245092 0.715232 0.287594 -0.028083
H39   H     H_    0.950574 0.081764 0.579625 0.089931
H40   H     H_    0.335579 0.668836 0.468049 0.075723
H41   H     H_    0.849669 0.324888 0.537280 0.069044
H42   H     H_    0.955407 0.730342 0.180820 0.139645
H43   H     H_    0.143012 0.795412 0.193162 0.118382
H44   H     H_    0.325270 0.690342 0.605742 0.009042
H45   H     H_    0.873104 0.314422 0.404552 0.005707
H46   H     H_    0.113247 0.696314 0.575199 0.065847
H47   H     H_    0.788825 0.325006 0.051800 0.163866
H48   H     H_    0.764078 0.259202 0.121011 0.134419
H49   H     H_    0.609925 0.329613 0.103057 0.129112
H50   H     H_    0.778982 0.382516 0.212483 0.135573
H51   H     H_    0.804724 0.447944 0.144196 0.165755
H52   H     H_    0.058385 0.356081 0.112252 0.107481
H53   H     H_    0.044017 0.326592 0.197304 0.116633
H54   H     H_    0.085961 0.307079 0.429388 0.074326
H55   H     H_    0.876370 0.180486 0.323097 0.108043
H56   H     H_    0.922378 0.169676 0.415057 0.026353
H57   H     H_    0.827901 0.627421 0.660709 0.008117
N1    N     N_R   0.210211 0.517903 0.949327 -0.237554
N2    N     N_R   0.262793 0.519080 0.017668 -0.242279
N3    N     N_R   0.997734 0.482919 0.046235 -0.252212
N4    N     N_R   0.945229 0.481265 0.978007 -0.249563
N5    N     N_2   0.532545 0.985117 0.489979 -0.230531
N6    N     N_2   0.670795 0.006559 0.520082 -0.232714
N7    N     N_1   0.246314 0.134472 0.337998 -0.283446
O1    O     O_2   0.875590 0.454550 0.328720 -0.471050
O2    O     O_2   0.255711 0.210944 0.550353 -0.486408
O3    O     O_3   0.176127 0.230967 0.683100 -0.597053
O4    O     O_3   0.127960 0.455900 0.416100 -0.485633
O5    O     O_3   0.560420 0.597610 0.535760 -0.487838
O6    O     O_2   0.379340 0.302240 0.465940 -0.457958
O7    O     O_3   0.546085 0.268415 0.351843 -0.626434
O8    O     O_2   0.444437 0.455419 0.753920 -0.484067
O9    O     O_3   0.530395 0.304121 0.744498 -0.597008
O10   O     O_3   0.634460 0.601950 0.371690 -0.486054
O11   O     O_2   0.775811 0.562321 0.250751 -0.494307
O12   O     O_3   0.655370 0.711056 0.648048 -0.634148
O13   O     O_3   0.026557 0.323505 0.324156 -0.653697
O14   O     O_3   0.588229 0.683586 0.248440 -0.605742
O15   O     O_2   0.810360 0.697790 0.534100 -0.463207
O16   O     O_3   0.049190 0.643760 0.407000 -0.487061
O17   O     O_2   0.935296 0.789321 0.449298 -0.486694
O18   O     O_3   0.034361 0.770898 0.319184 -0.601074
O19   O     O_2   0.314110 0.545480 0.671320 -0.460943
O20   O     O_3   0.061730 0.544170 0.583900 -0.496914
O21   O     O_3   0.555240 0.398120 0.628310 -0.486067
O22   O     O_3   0.157510 0.676217 0.680382 -0.634283
O23   O     O_3   0.629280 0.402460 0.464250 -0.476375
O24   O     O_3   0.140510 0.356300 0.593010 -0.489507
P1    P     P_3+3 0.048660 0.430750 0.339650 0.978143
P2    P     P_3+3 0.638170 0.686040 0.555200 0.987170
P3    P     P_3+3 0.073121 0.749895 0.406737 0.945407
P4    P     P_3+3 0.141040 0.569320 0.660360 0.982948
P5    P     P_3+3 0.122917 0.250119 0.596197 0.951181
P6    P     P_3+3 0.609582 0.587928 0.278562 0.951075
P7    P     P_3+3 0.559796 0.299281 0.443860 0.964106
P8    P     P_3+3 0.577560 0.401930 0.721289 0.953003

loop_
_geom_bond_atom_site_label_1
_geom_bond_atom_site_label_2
_ccdc_geom_bond_type
O3    P5    S    
C25   C27   A    
O7    P7    S    
C39   C40   S    
C42   H18   S    
O5    P2    S    
O8    P8    D    
Ba1   O16   S    
C4    O18   S    
C33   H54   S    
Ba2   O6    S    
C5    C6    S    
C38   N7    T    
C5    C9    S    
Ba1   O1    S    
C16   H43   S    
O12   P2    S    
C33   C35   S    
O16   P3    S    
C22   C24   A    
C45   H28   S    
C35   C38   S    
C40   H50   S    
O22   P4    S    
C36   C37   S    
C37   H6    S    
N1    N2    A    
C8    C15   S    
C13   C14   A    
C27   C31   A    
N3    N4    A    
C8    N4    A    
Ba1   Ba2   S    
C20   H37   S    
C33   O13   S    
N5    N6    D    
O19   P4    D    
Ba1   O10   S    
C34   H11   S    
Ba2   O4    S    
C42   O3    S    
C6    C7    D    
C28   O22   S    
C10   H30   S    
C10   C15   A    
C43   H19   S    
C41   H47   S    
C21   C22   A    
C44   O9    S    
O15   P2    D    
C29   H41   S    
C44   H24   S    
Ba1   O20   S    
O23   P7    S    
C37   H4    S    
C19   C20   A    
C32   H12   S    
O9    P8    S    
C42   H17   S    
C23   H9    S    
C19   P2    S    
C34   H14   S    
O18   P3    S    
C23   O7    S    
Ba2   O5    S    
Ba2   O19   S    
C33   H45   S    
C4    C16   S    
Ba2   O21   S    
C28   C32   S    
C43   H21   S    
C16   H42   S    
C11   P4    S    
C41   H49   S    
C4    H27   S    
C6    C39   S    
C45   H25   S    
C28   H44   S    
O6    P7    D    
C35   H55   S    
C11   C17   A    
C14   C15   A    
O13   P1    S    
O14   P6    S    
Ba2   O24   S    
C13   C17   A    
O2    P5    D    
O24   P5    S    
C1    H8    S    
Ba2   O20   S    
C29   C30   A    
O17   P3    D    
C43   H20   S    
C41   H48   S    
C39   H52   S    
C26   P7    S    
Ba1   O5    S    
C10   C11   A    
C30   P5    S    
C1    C12   S    
Ba1   O4    S    
C24   P3    S    
C9    N2    A    
O1    P1    D    
C8    N1    A    
C40   C41   S    
O10   P6    S    
C3    H29   S    
C34   H13   S    
C25   C26   A    
Ba1   P1    S    
C42   C43   S    
C3    C5    D    
O4    P1    S    
C2    C46   S    
C21   N5    S    
C44   C45   S    
O21   P8    S    
C1    H3    S    
C27   N6    S    
C26   C29   A    
Ba1   O15   S    
C45   H26   S    
C2    C3    S    
C4    H38   S    
C35   H56   S    
C36   H2    S    
C1    H15   S    
O20   P4    S    
Ba2   O23   S    
C12   O14   S    
C14   H31   S    
Ba2   P4    S    
C30   C31   A    
C46   H32   S    
C36   H57   S    
C25   H35   S    
C22   H36   S    
C7    P1    S    
C28   H46   S    
C17   H33   S    
C40   H51   S    
C2    P6    S    
C16   H16   S    
C37   H5    S    
C18   C24   A    
C18   H40   S    
O11   P6    D    
C39   H53   S    
C12   H7    S    
C31   H39   S    
C44   H22   S    
C23   C34   S    
C13   P8    S    
C12   H1    S    
C18   C19   A    
C7    C46   D    
C23   H10   S    
C9    N3    A    
C20   C21   A    
C32   H34   S    
Ba1   O23   S    
C32   H23   S    
C36   O12   S    
Ba1   P2    S    
