data_mof_unit_33272.cif
_audit_creation_date              2012-12-11T16:29:30-0500
_audit_creation_method            fapswitch 2.2
_symmetry_space_group_name_H-M    P1
_symmetry_Int_Tables_number       1
_space_group_crystal_system       triclinic
_cell_length_a                    6.952889
_cell_length_b                    17.352515
_cell_length_c                    18.74457
_cell_angle_alpha                 106.302161
_cell_angle_beta                  89.720671
_cell_angle_gamma                 90.503529
_cell_volume                      2170.51813203

loop_
_atom_site_label
_atom_site_type_symbol
_atom_type_description
_atom_site_fract_x
_atom_site_fract_y
_atom_site_fract_z
_atom_type_partial_charge
O1    O     O_R   0.494360 0.415680 0.413760 -0.533451
O2    O     O_R   0.818810 0.432910 0.557230 -0.523301
O3    O     O_R   0.994290 0.584320 0.586240 -0.532847
C1    C     C_R   0.649803 0.415989 0.580646 0.711915
O4    O     O_R   0.823740 0.406440 0.412520 -0.534999
O5    O     O_R   0.999250 0.557660 0.440500 -0.527459
C2    C     C_R   0.654787 0.383659 0.384871 0.696307
O6    O     O_R   0.489400 0.442340 0.559500 -0.526971
O7    O     O_3   0.662500 0.549650 0.509350 -0.359141
V1    V     V_3+5 0.935340 0.490790 0.498270 1.416414
O8    O     O_R   0.329270 0.567090 0.442770 -0.522625
C3    C     C_R   0.161140 0.584016 0.419357 0.710683
O9    O     O_R   0.324340 0.593560 0.587480 -0.534937
C4    C     C_R   0.155448 0.616316 0.615162 0.696306
V2    V     V_3+5 0.435970 0.509210 0.501730 1.415647
O10   O     O_3   0.158940 0.450350 0.490650 -0.359364
H1    H     H_    0.838642 0.845770 0.562018 0.115875
C5    C     C_R   0.309700 0.605218 0.755298 -0.203349
C6    C     C_R   0.383559 0.597338 0.821778 -0.118760
C7    C     C_R   0.370420 0.660276 0.886795 0.255094
C8    C     C_R   0.282984 0.732103 0.884776 -0.165252
C9    C     C_R   0.209465 0.742285 0.817688 0.038261
C10   C     C_R   0.222667 0.677395 0.751588 0.070003
C11   C     C_R   0.119796 0.815015 0.816174 -0.172746
C12   C     C_R   0.042600 0.822511 0.748492 0.068976
C13   C     C_R   0.055690 0.757544 0.682388 0.068031
C14   C     C_R   0.145528 0.684878 0.683867 -0.174491
C15   C     C_R   0.955549 0.894768 0.744750 -0.143369
C16   C     C_R   0.881551 0.902461 0.678200 -0.121612
C17   C     C_R   0.894721 0.839214 0.613757 -0.119341
C18   C     C_R   0.981732 0.767739 0.615383 -0.132347
H2    H     H_    0.320701 0.553624 0.707153 0.123303
H3    H     H_    0.450142 0.541461 0.822809 0.130238
H4    H     H_    0.271297 0.779225 0.936429 0.103945
H5    H     H_    0.944813 0.946451 0.792824 0.109131
H6    H     H_    0.815122 0.958120 0.676528 0.117613
H7    H     H_    0.991797 0.721151 0.563299 0.105863
C19   C     C_1   0.111917 0.863812 0.132524 -0.220659
C20   C     C_1   0.119424 0.821198 0.176049 -0.002503
C21   C     C_1   0.128719 0.770953 0.227921 -0.002246
C22   C     C_1   0.136612 0.728663 0.271729 -0.003426
C23   C     C_1   0.145855 0.678473 0.323651 -0.003540
C24   C     C_1   0.153284 0.635946 0.367258 -0.220827
C25   C     C_1   0.641150 0.364092 0.632704 -0.220378
C26   C     C_1   0.636983 0.321515 0.676290 -0.003114
C27   C     C_1   0.633725 0.271258 0.728172 -0.003318
C28   C     C_1   0.631340 0.228907 0.771969 -0.003675
C29   C     C_1   0.628085 0.178636 0.823839 -0.003662
C30   C     C_1   0.623923 0.136034 0.867403 -0.220558
H8    H     H_    0.323826 0.154117 0.436919 0.115948
C31   C     C_R   0.815615 0.395119 0.245268 -0.141474
C32   C     C_R   0.893658 0.402810 0.179016 -0.120707
C33   C     C_R   0.881562 0.339429 0.114603 -0.118249
C34   C     C_R   0.791553 0.267828 0.115959 -0.131623
C35   C     C_R   0.713465 0.257633 0.182676 0.069833
C36   C     C_R   0.725508 0.322724 0.248754 0.068903
C37   C     C_R   0.620548 0.184853 0.183890 -0.188012
C38   C     C_R   0.539248 0.177351 0.251265 0.068980
C39   C     C_R   0.551288 0.242442 0.317342 0.069870
C40   C     C_R   0.644242 0.315216 0.316133 -0.188191
C41   C     C_R   0.449109 0.104961 0.254748 -0.141119
C42   C     C_R   0.371016 0.097279 0.320994 -0.122636
C43   C     C_R   0.383105 0.160661 0.385407 -0.120146
C44   C     C_R   0.473160 0.232254 0.384056 -0.131276
H9    H     H_    0.825575 0.446932 0.293295 0.110132
H10   H     H_    0.962382 0.458574 0.177544 0.119458
H11   H     H_    0.940802 0.345979 0.063087 0.117644
H12   H     H_    0.782524 0.221143 0.063888 0.106533
H13   H     H_    0.439152 0.053147 0.206722 0.109837
H14   H     H_    0.302258 0.041520 0.322462 0.117735
H15   H     H_    0.482183 0.278939 0.436127 0.106181
O11   O     O_R   0.775690 0.057750 0.940570 -0.527329
O12   O     O_R   0.441200 0.093570 0.087490 -0.534978
O13   O     O_R   0.265840 0.942320 0.059480 -0.528014
C45   C     C_R   0.610108 0.116394 0.115162 0.696015
O14   O     O_R   0.446270 0.067110 0.942790 -0.523628
O15   O     O_R   0.270950 0.915660 0.913750 -0.532924
C46   C     C_R   0.615278 0.084087 0.919420 0.710529
O16   O     O_R   0.770580 0.084400 0.086300 -0.533920
O17   O     O_3   0.602640 0.950400 0.990690 -0.358070
V3    V     V_3+5 0.329740 0.009200 0.001730 1.416295
O18   O     O_R   0.940900 0.906360 0.912450 -0.534605
C47   C     C_R   0.109829 0.883638 0.884811 0.696955
O19   O     O_R   0.935830 0.932820 0.057160 -0.521378
C48   C     C_R   0.103980 0.915867 0.080541 0.711690
V4    V     V_3+5 0.829130 0.990680 0.998180 1.420789
O20   O     O_3   0.106100 0.049590 0.009310 -0.359899
N1    N     N_3   0.446735 0.650268 0.954619 -0.665444
H16   H     H_    0.362944 0.606598 0.969092 0.225491
H17   H     H_    0.432112 0.703222 0.997855 0.225465

loop_
_geom_bond_atom_site_label_1
_geom_bond_atom_site_label_2
_ccdc_geom_bond_type
C35   C36   A    
H8    C43   S    
C22   C23   S    
C6    C7    A    
C1    O6    A    
C26   C27   S    
C25   C26   T    
C12   C15   A    
C16   H6    S    
C39   C44   A    
C16   C17   A    
C15   C16   A    
C11   C47   S    
O14   C46   A    
C5    C6    A    
C3    C24   S    
O5    C3    A    
C17   C18   A    
C34   H12   S    
O15   C47   A    
V2    O10   S    
C30   C46   S    
C42   H14   S    
C31   C36   A    
C31   H9    S    
C44   H15   S    
O11   C46   A    
C27   C28   T    
O8    V2    S    
C15   H5    S    
O17   V4    S    
O1    V2    S    
C10   C14   A    
C4    C14   S    
O7    V1    S    
N1    H16   S    
C38   C41   A    
C39   C40   A    
C8    C9    A    
H1    C17   S    
O12   C45   A    
O12   V3    S    
C19   C48   S    
C5    C10   A    
C11   C12   A    
C6    H3    S    
C20   C21   S    
O4    C2    A    
V4    O20   S    
C8    H4    S    
C1    C25   S    
C38   C39   A    
O18   V4    S    
C36   C40   A    
O2    C1    A    
C42   C43   A    
C28   C29   S    
O15   V3    S    
C13   C14   A    
O19   C48   A    
V3    O20   S    
O3    C4    A    
C29   C30   T    
N1    H17   S    
O6    V2    S    
O9    V2    S    
C9    C11   A    
C5    H2    S    
C23   C24   T    
O13   V3    S    
O2    V1    S    
C2    C40   S    
C32   H10   S    
C32   C33   A    
C41   H13   S    
C34   C35   A    
C21   C22   T    
O1    C2    A    
C13   C18   A    
O19   V4    S    
O17   V3    S    
O14   V3    S    
O5    V1    S    
O11   V4    S    
O8    C3    A    
C33   C34   A    
C37   C45   S    
C35   C37   A    
C12   C13   A    
C31   C32   A    
O3    V1    S    
V1    O10   S    
C37   C38   A    
C19   C20   T    
C7    N1    S    
O13   C48   A    
O7    V2    S    
C41   C42   A    
C33   H11   S    
C43   C44   A    
C18   H7    S    
O4    V1    S    
C7    C8    A    
O18   C47   A    
C9    C10   A    
O9    C4    A    
C45   O16   A    
O16   V4    S    
