data_mof_unit_50761.cif
_audit_creation_date              2012-12-11T14:49:49-0500
_audit_creation_method            fapswitch 2.2
_symmetry_space_group_name_H-M    P1
_symmetry_Int_Tables_number       1
_space_group_crystal_system       triclinic
_cell_length_a                    17.111148
_cell_length_b                    7.096615
_cell_length_c                    16.949132
_cell_angle_alpha                 89.956876
_cell_angle_beta                  99.780966
_cell_angle_gamma                 90.449672
_cell_volume                      2028.17459669

loop_
_atom_site_label
_atom_site_type_symbol
_atom_type_description
_atom_site_fract_x
_atom_site_fract_y
_atom_site_fract_z
_atom_type_partial_charge
O1    O     O_R   0.579510 0.506290 0.439030 -0.533022
O2    O     O_R   0.420490 0.006290 0.560970 -0.516453
O3    O     O_R   0.412540 0.170090 0.405290 -0.544905
O4    O     O_R   0.587460 0.670090 0.594710 -0.549072
C1    C     C_R   0.383891 0.344686 0.383590 0.735601
C2    C     C_R   0.614810 0.845545 0.617320 0.717696
O5    O     O_R   0.578390 0.176230 0.429330 -0.547897
O6    O     O_R   0.421610 0.676230 0.570670 -0.543809
O7    O     O_R   0.587530 0.011250 0.585190 -0.552192
O8    O     O_R   0.412470 0.511250 0.414810 -0.544311
C3    C     C_R   0.600220 0.346172 0.409424 0.689610
C4    C     C_R   0.401538 0.846061 0.592375 0.710797
O9    O     O_3   0.502800 0.340940 0.551110 -0.374426
O10   O     O_3   0.497200 0.840940 0.448890 -0.376793
V1    V     V_3+5 0.499480 0.064020 0.490520 1.395731
V2    V     V_3+5 0.500520 0.564020 0.509480 1.397661
C5    C     C_R   0.182155 0.915333 0.875954 -0.117443
C6    C     C_R   0.827790 0.412961 0.135239 -0.123790
C7    C     C_R   0.339466 0.861498 0.643961 -0.085802
C8    C     C_R   0.666782 0.358194 0.363908 -0.065305
C9    C     C_R   0.221120 0.020245 0.669895 -0.235139
C10   C     C_R   0.797413 0.477469 0.348638 -0.249606
C11   C     C_R   0.269151 0.961469 0.615567 0.305856
C12   C     C_R   0.742716 0.428176 0.398994 0.306200
C13   C     C_R   0.352777 0.797794 0.724254 -0.275924
C14   C     C_R   0.653524 0.308179 0.282659 -0.279610
C15   C     C_R   0.298891 0.842721 0.776564 0.081421
C16   C     C_R   0.711774 0.342157 0.234581 0.089507
C17   C     C_R   0.235059 0.963331 0.750482 0.052557
C18   C     C_R   0.782351 0.439217 0.265773 0.058240
C19   C     C_R   0.181955 0.012258 0.803153 0.190572
C20   C     C_R   0.835899 0.493171 0.213215 0.163762
C21   C     C_R   0.250932 0.808821 0.904760 0.235603
C22   C     C_R   0.754712 0.324228 0.104803 0.222606
C23   C     C_R   0.307904 0.772294 0.854842 -0.244562
C24   C     C_R   0.698002 0.289739 0.154303 -0.250557
H1    H     H_    0.170412 0.105567 0.646744 0.119444
H2    H     H_    0.853325 0.538504 0.376375 0.103821
H3    H     H_    0.359349 0.687636 0.877313 0.119232
H4    H     H_    0.641934 0.223500 0.129267 0.118969
H5    H     H_    0.405343 0.716406 0.746141 0.118920
H6    H     H_    0.596820 0.246742 0.256365 0.113117
C25   C     C_3   0.770872 0.704223 0.807608 0.458342
C26   C     C_3   0.211382 0.190695 0.206541 0.494580
H7    H     H_    0.741593 0.696714 0.860085 0.121846
H8    H     H_    0.226413 0.132982 0.150865 0.098687
C27   C     C_3   0.704719 0.676473 0.733696 -0.388353
C28   C     C_3   0.285630 0.169632 0.273313 -0.384262
H9    H     H_    0.649770 0.624011 0.753553 0.113611
H10   H     H_    0.335776 0.114001 0.246414 0.114445
H11   H     H_    0.722786 0.565767 0.694772 0.180217
H12   H     H_    0.273374 0.062933 0.317348 0.166035
C29   C     C_3   0.838090 0.949261 0.720782 0.480256
C30   C     C_3   0.162646 0.473298 0.275589 0.474706
C31   C     C_3   0.742767 0.040338 0.818740 0.054337
C32   C     C_3   0.262987 0.501928 0.174190 0.037114
C33   C     C_3   0.813408 0.904059 0.807790 -0.153034
C34   C     C_3   0.185436 0.401764 0.192663 -0.095135
H13   H     H_    0.764896 0.187802 0.819767 0.194620
H14   H     H_    0.249178 0.651001 0.159669 0.141970
C35   C     C_3   0.687011 0.862850 0.686114 -0.086143
C36   C     C_3   0.310811 0.361264 0.314953 -0.061572
C37   C     C_3   0.762380 0.922107 0.652593 0.117873
C38   C     C_3   0.237755 0.447063 0.346051 0.077779
C39   C     C_3   0.672727 0.022681 0.745218 -0.406005
C40   C     C_3   0.330557 0.498525 0.249848 -0.416801
H15   H     H_    0.613248 0.002664 0.761086 0.168398
H16   H     H_    0.389961 0.464278 0.236949 0.167998
H17   H     H_    0.667875 0.160513 0.713361 0.144387
H18   H     H_    0.337897 0.643954 0.274778 0.123074
H19   H     H_    0.747748 0.061297 0.626808 0.143206
H20   H     H_    0.257574 0.588165 0.369835 0.116071
O11   O     O_R   0.087500 0.266000 0.085220 -0.534852
O12   O     O_R   0.912500 0.766000 0.914780 -0.511792
O13   O     O_R   0.921600 0.589950 0.070670 -0.533137
O14   O     O_R   0.078400 0.089950 0.929330 -0.530069
C41   C     C_R   0.893389 0.422237 0.085004 0.740544
C42   C     C_R   0.110405 0.923161 0.919745 0.745814
O15   O     O_R   0.087460 0.596020 0.094710 -0.525748
O16   O     O_R   0.912540 0.096020 0.905290 -0.537139
O17   O     O_R   0.079520 0.760970 0.939020 -0.539977
O18   O     O_R   0.920480 0.260970 0.060980 -0.538257
C43   C     C_R   0.116042 0.425166 0.118576 0.683538
C44   C     C_R   0.885076 0.924772 0.880147 0.671085
O19   O     O_3   0.997180 0.425140 0.948910 -0.362185
O20   O     O_3   0.002820 0.925140 0.051090 -0.369462
V3    V     V_3+5 0.000520 0.702080 0.009480 1.495562
V4    V     V_3+5 0.999480 0.202080 0.990520 1.488539
N1    N     N_2   0.116942 0.127364 0.775561 -0.531077
H21   H     H_    0.127467 0.249525 0.745957 0.251397
C45   C     C_3   0.050697 0.016204 0.739005 -0.533387
H22   H     H_    0.039282 0.040006 0.673415 0.184401
H23   H     H_    0.001666 0.052896 0.770365 0.263661
H24   H     H_    0.060439 0.861955 0.747152 0.196572
N2    N     N_2   0.889945 0.645672 0.233583 -0.540939
H25   H     H_    0.920685 0.643587 0.291191 0.242900
C46   C     C_3   0.856194 0.828609 0.211366 -0.494067
H26   H     H_    0.808213 0.860108 0.246021 0.189713
H27   H     H_    0.831827 0.833045 0.146288 0.207075
H28   H     H_    0.902749 0.939414 0.224429 0.177058
N3    N     N_2   0.904624 0.835787 0.702375 -0.547305
H29   H     H_    0.917247 0.850469 0.645484 0.273510
C47   C     C_3   0.926536 0.650838 0.732310 -0.529811
H30   H     H_    0.975914 0.598366 0.703642 0.149407
H31   H     H_    0.876277 0.555105 0.715609 0.265381
H32   H     H_    0.949703 0.653033 0.796859 0.267731
N4    N     N_2   0.094590 0.365392 0.296766 -0.466804
H33   H     H_    0.083339 0.383960 0.353815 0.261586
C48   C     C_3   0.020841 0.341846 0.242214 -0.475109
H34   H     H_    0.972127 0.312654 0.276368 0.145408
H35   H     H_    0.022786 0.217742 0.203388 0.253165
H36   H     H_    0.007544 0.470793 0.206643 0.210054
N5    N     N_2   0.775262 0.798738 0.587403 -0.529138
H37   H     H_    0.804539 0.674533 0.601126 0.286084
C49   C     C_3   0.776454 0.879203 0.508867 -0.526539
H38   H     H_    0.811514 0.789993 0.474491 0.200695
H39   H     H_    0.804871 0.019999 0.512992 0.185078
H40   H     H_    0.714897 0.889694 0.475647 0.219432
N6    N     N_2   0.219966 0.334455 0.412999 -0.497545
H41   H     H_    0.196200 0.203050 0.398131 0.296354
C50   C     C_3   0.189148 0.429166 0.477107 -0.584862
H42   H     H_    0.140215 0.345719 0.495533 0.165455
H43   H     H_    0.163227 0.567349 0.457722 0.192472
H44   H     H_    0.237098 0.445627 0.529663 0.229601
N7    N     N_2   0.717342 0.010417 0.896466 -0.501027
H45   H     H_    0.761632 0.983607 0.944358 0.262079
C51   C     C_3   0.639454 0.937564 0.905292 -0.599386
H46   H     H_    0.639367 0.897052 0.968593 0.177258
H47   H     H_    0.622936 0.809921 0.868441 0.187284
H48   H     H_    0.594150 0.048539 0.889282 0.210527
N8    N     N_2   0.286035 0.413675 0.103186 -0.517592
H49   H     H_    0.245666 0.424886 0.050871 0.264640
C52   C     C_3   0.367897 0.392148 0.092795 -0.575211
H50   H     H_    0.370135 0.350222 0.030080 0.182808
H51   H     H_    0.396189 0.277613 0.131970 0.198854
H52   H     H_    0.401249 0.526662 0.105636 0.198010
N9    N     N_2   0.861750 0.150033 0.717934 -0.545213
H53   H     H_    0.879199 0.219220 0.771322 0.294220
C53   C     C_3   0.901580 0.222692 0.654031 -0.610590
H54   H     H_    0.903103 0.124202 0.604332 0.201821
H55   H     H_    0.961291 0.276267 0.678680 0.201495
H56   H     H_    0.874100 0.349226 0.626803 0.186118
N10   N     N_2   0.144804 0.675053 0.267538 -0.526403
H57   H     H_    0.191956 0.761814 0.261591 0.263194
C54   C     C_3   0.083072 0.764944 0.302889 -0.433808
H58   H     H_    0.065332 0.683897 0.352671 0.144906
H59   H     H_    0.031771 0.790291 0.255165 0.238792
H60   H     H_    0.103288 0.904805 0.327596 0.221685
N11   N     N_2   0.267614 0.751244 0.985956 -0.521166
H61   H     H_    0.318067 0.671706 0.998499 0.272185
C55   C     C_3   0.266264 0.899599 0.044247 -0.568712
H62   H     H_    0.315620 0.881870 0.095498 0.181714
H63   H     H_    0.209052 0.891325 0.066487 0.210347
H64   H     H_    0.273025 0.041731 0.018369 0.198499
N12   N     N_2   0.733018 0.287953 0.021937 -0.508422
H65   H     H_    0.686256 0.194878 0.010938 0.277312
C56   C     C_3   0.715046 0.455222 0.973971 -0.508543
H66   H     H_    0.699047 0.414213 0.910052 0.220968
H67   H     H_    0.767071 0.551632 0.981070 0.204687
H68   H     H_    0.663898 0.529977 0.991800 0.168265
N13   N     N_2   0.245576 0.010826 0.533193 -0.503155
H69   H     H_    0.188703 0.061619 0.520660 0.249271
C57   C     C_3   0.260874 0.881653 0.471655 -0.555571
H70   H     H_    0.309506 0.936990 0.442787 0.230960
H71   H     H_    0.277022 0.740643 0.495996 0.193238
H72   H     H_    0.207676 0.866660 0.425111 0.165316
N14   N     N_2   0.768257 0.447029 0.483736 -0.543149
H73   H     H_    0.828844 0.447219 0.502007 0.238116
C58   C     C_3   0.723046 0.367628 0.540833 -0.526057
H74   H     H_    0.674109 0.459443 0.547944 0.252948
H75   H     H_    0.703023 0.223495 0.523626 0.193747
H76   H     H_    0.755714 0.366802 0.601834 0.164405
F1    F     F_    0.818940 0.548616 0.821152 -0.729737
F2    F     F_    0.150324 0.079350 0.223504 -0.716549

loop_
_geom_bond_atom_site_label_1
_geom_bond_atom_site_label_2
_ccdc_geom_bond_type
C40   H16   S    
C56   H66   S    
C31   H13   S    
N12   C56   S    
N2    H25   S    
N4    C48   S    
C58   H74   S    
C7    C11   A    
C57   H70   S    
O1    C3    A    
O16   C44   A    
O2    C4    A    
C46   H28   S    
C2    O7    A    
O15   V3    S    
C46   H26   S    
C27   H9    S    
C22   N12   S    
C39   H17   S    
O5    C3    A    
N9    C53   S    
N3    H29   S    
C38   N6    S    
C8    C14   A    
C30   N4    S    
C29   N9    S    
C2    C35   S    
C57   H71   S    
O14   C42   A    
N11   C55   S    
C53   H56   S    
O20   V4    S    
C15   C17   A    
C34   C43   S    
N10   H57   S    
C10   H2    S    
C55   H64   S    
C35   C37   S    
C50   H44   S    
C36   C38   S    
C47   H30   S    
C31   C39   S    
C8    C12   A    
C26   C34   S    
C49   H39   S    
C52   H52   S    
C55   H62   S    
O12   V3    S    
N1    C45   S    
O14   V4    S    
O18   V4    S    
C28   H10   S    
C30   N10   S    
O6    V2    S    
C55   H63   S    
C17   C19   A    
C58   H75   S    
N13   H69   S    
C5    C21   A    
N13   C57   S    
C26   H8    S    
C54   H58   S    
N6    C50   S    
C9    C11   A    
C53   H54   S    
C3    C8    S    
C36   C40   S    
O19   V3    S    
C18   C20   A    
C31   N7    S    
C24   H4    S    
C57   H72   S    
N14   C58   S    
C46   H27   S    
C48   H36   S    
C13   H5    S    
N14   H73   S    
C29   C33   S    
O20   V3    S    
C27   H11   S    
O5    V1    S    
C19   N1    S    
C9    C17   A    
C32   H14   S    
O4    V2    S    
C23   H3    S    
C25   F1    S    
C51   H47   S    
O11   V4    S    
C45   H23   S    
C52   H50   S    
O13   C41   A    
C28   C36   S    
O6    C4    A    
C49   H40   S    
C12   N14   S    
C33   C44   S    
C47   H31   S    
O1    V2    S    
C53   H55   S    
O2    V1    S    
C25   H7    S    
C50   H42   S    
O17   V3    S    
O13   V3    S    
C37   H19   S    
C56   H68   S    
C31   C33   S    
N7    H45   S    
C5    C19   A    
C58   H76   S    
C10   C12   A    
O4    C2    A    
C6    C20   A    
N4    H33   S    
N8    H49   S    
O3    C1    A    
C45   H22   S    
C54   H60   S    
O3    V1    S    
C14   H6    S    
N7    C51   S    
N5    H37   S    
C30   C34   S    
O19   V4    S    
N10   C54   S    
C10   C18   A    
C14   C16   A    
C26   F2    S    
O12   C44   A    
N8    C52   S    
C27   C35   S    
C56   H67   S    
N6    H41   S    
N2    C46   S    
C51   H46   S    
C13   C15   A    
N9    H53   S    
C29   N3    S    
C39   H15   S    
C15   C23   A    
C48   H35   S    
O7    V1    S    
C51   H48   S    
C1    O8    A    
O16   V4    S    
C26   C28   S    
O8    V2    S    
N11   H61   S    
C45   H24   S    
O15   C43   A    
C29   C37   S    
C42   O17   A    
C40   H18   S    
C30   C38   S    
C41   O18   A    
C6    C22   A    
C6    C41   S    
C32   C40   S    
C54   H59   S    
C4    C7    S    
C16   C18   A    
C5    C42   S    
C21   C23   A    
C32   C34   S    
C1    C36   S    
C47   H32   S    
C22   C24   A    
C38   H20   S    
C7    C13   A    
C50   H43   S    
C32   N8    S    
C25   C33   S    
C37   N5    S    
C35   C39   S    
C28   H12   S    
C20   N2    S    
C9    H1    S    
C16   C24   A    
N3    C47   S    
O9    V2    S    
N12   H65   S    
C52   H51   S    
O10   V1    S    
C21   N11   S    
C11   N13   S    
N1    H21   S    
C48   H34   S    
C25   C27   S    
O11   C43   A    
C49   H38   S    
N5    C49   S    
