data_mof_unit_11661.cif
_audit_creation_date              2012-12-11T15:54:48-0500
_audit_creation_method            fapswitch 2.2
_symmetry_space_group_name_H-M    P1
_symmetry_Int_Tables_number       1
_space_group_crystal_system       triclinic
_cell_length_a                    6.927359
_cell_length_b                    14.501414
_cell_length_c                    16.167834
_cell_angle_alpha                 89.847088
_cell_angle_beta                  90.184957
_cell_angle_gamma                 90.050773
_cell_volume                      1624.14915701

loop_
_atom_site_label
_atom_site_type_symbol
_atom_type_description
_atom_site_fract_x
_atom_site_fract_y
_atom_site_fract_z
_atom_type_partial_charge
O1    O     O_R   0.638180 0.333920 0.163320 -0.551238
O2    O     O_R   0.361820 0.666080 0.836680 -0.551238
O3    O     O_R   0.308470 0.344960 0.336080 -0.560308
O4    O     O_R   0.691530 0.655040 0.663920 -0.560282
O5    O     O_R   0.138140 0.166110 0.336680 -0.545802
O6    O     O_R   0.861860 0.833890 0.663320 -0.545796
C1    C     C_R   0.477167 0.367792 0.364500 0.782028
C2    C     C_R   0.522831 0.632205 0.635503 0.782016
O7    O     O_R   0.308460 0.344950 0.163930 -0.510435
O8    O     O_R   0.691540 0.655050 0.836070 -0.510440
O9    O     O_R   0.138140 0.166100 0.163310 -0.545147
O10   O     O_R   0.861860 0.833900 0.836690 -0.545148
C3    C     C_R   0.477119 0.367435 0.135163 0.751763
C4    C     C_R   0.522881 0.632565 0.864837 0.751746
O11   O     O_R   0.638180 0.333930 0.336700 -0.508045
O12   O     O_R   0.361820 0.666070 0.663300 -0.508036
O13   O     O_3   0.471670 0.191340 0.250000 -0.382069
O14   O     O_3   0.528330 0.808660 0.750000 -0.382074
V1    V     V_3+5 0.196830 0.260900 0.250000 1.528310
V2    V     V_3+5 0.803170 0.739100 0.750000 1.528346
O15   O     O_R   0.808420 0.155070 0.163920 -0.547549
O16   O     O_R   0.191580 0.844930 0.836080 -0.547555
C5    C     C_R   0.976266 0.132393 0.135286 0.791554
C6    C     C_R   0.023734 0.867607 0.864714 0.791542
O17   O     O_R   0.808420 0.155080 0.336070 -0.521073
O18   O     O_R   0.191580 0.844920 0.663930 -0.521079
C7    C     C_R   0.977826 0.132445 0.364170 0.833645
C8    C     C_R   0.022174 0.867555 0.635830 0.833642
V3    V     V_3+5 0.696830 0.239130 0.250000 1.532451
V4    V     V_3+5 0.303170 0.760870 0.750000 1.532453
O19   O     O_3   0.971850 0.308690 0.250010 -0.363666
O20   O     O_3   0.028150 0.691310 0.749990 -0.363653
C9    C     C_R   0.066233 0.189802 0.529652 -0.240546
C10   C     C_R   0.933783 0.810200 0.470347 -0.240576
C11   C     C_R   0.102975 0.222196 0.609006 0.608746
C12   C     C_R   0.897031 0.777806 0.390993 0.608687
C13   C     C_R   0.103344 0.161238 0.676204 0.063715
C14   C     C_R   0.896647 0.838765 0.323796 0.063717
C15   C     C_R   0.070308 0.067165 0.662765 0.500276
C16   C     C_R   0.929693 0.932836 0.337235 0.500290
C17   C     C_R   0.038632 0.031848 0.581809 -0.075064
C18   C     C_R   0.961372 0.968153 0.418191 -0.075072
C19   C     C_R   0.032176 0.095159 0.514249 -0.120827
C20   C     C_R   0.967830 0.904841 0.485751 -0.120833
C21   C     C_R   0.009645 0.936054 0.567102 -0.061710
C22   C     C_R   0.990357 0.063946 0.432897 -0.061706
H1    H     H_    0.065052 0.240404 0.480411 0.190279
H2    H     H_    0.934982 0.759597 0.519587 0.190307
C23   C     C_R   0.170032 0.997412 0.952631 0.239416
C24   C     C_R   0.829966 0.002589 0.047368 0.239433
C25   C     C_R   0.151590 0.059918 0.017932 -0.148394
C26   C     C_R   0.848410 0.940081 0.982069 -0.148392
H3    H     H_    0.269929 0.106902 0.029982 0.139657
H4    H     H_    0.730069 0.893098 0.970017 0.139655
C27   C     C_R   0.984166 0.063864 0.066526 -0.146899
C28   C     C_R   0.015834 0.936134 0.933475 -0.146909
C29   C     C_R   0.345444 0.506154 0.443517 0.074851
C30   C     C_R   0.654519 0.493816 0.556509 0.074882
C31   C     C_R   0.360319 0.568689 0.509215 0.674437
C32   C     C_R   0.639654 0.431287 0.490806 0.674445
C33   C     C_R   0.513424 0.563886 0.566611 -0.352877
C34   C     C_R   0.486563 0.436102 0.433400 -0.352894
C35   C     C_R   0.324961 0.487775 0.041794 0.653384
C36   C     C_R   0.675039 0.512224 0.958205 0.653386
C37   C     C_R   0.338061 0.550896 0.976406 -0.265305
C38   C     C_R   0.661939 0.449103 0.023594 -0.265305
H5    H     H_    0.210782 0.590192 0.959807 0.215118
H6    H     H_    0.789218 0.409807 0.040193 0.215119
C39   C     C_R   0.512610 0.564207 0.933675 -0.275592
C40   C     C_R   0.487390 0.435793 0.066325 -0.275597
N1    N     N_3   0.862401 0.806942 0.240911 -0.596413
H7    H     H_    0.990429 0.815712 0.207713 0.257243
H8    H     H_    0.831364 0.736426 0.240251 0.282633
N2    N     N_3   0.137576 0.193064 0.759089 -0.596445
H9    H     H_    0.009583 0.184272 0.792294 0.257254
H10   H     H_    0.168542 0.263577 0.759749 0.282652
F1    F     F_    0.135312 0.313710 0.620030 -0.652353
F2    F     F_    0.864725 0.686293 0.379967 -0.652359
F3    F     F_    0.064427 0.011968 0.730455 -0.719085
F4    F     F_    0.935572 0.988032 0.269546 -0.719070
N3    N     N_3   0.346972 0.999455 0.907029 -0.640848
H11   H     H_    0.316533 0.010129 0.844441 0.301040
H12   H     H_    0.418122 0.936602 0.914991 0.233171
N4    N     N_3   0.653011 0.000556 0.092959 -0.640877
H13   H     H_    0.683418 0.989875 0.155545 0.301029
H14   H     H_    0.581877 0.063409 0.084994 0.233171
N5    N     N_3   0.187632 0.517842 0.386856 -0.508228
H15   H     H_    0.241366 0.521622 0.326580 0.238585
H16   H     H_    0.094099 0.461612 0.392329 0.281643
N6    N     N_3   0.812259 0.482095 0.613204 -0.508247
H17   H     H_    0.758473 0.478412 0.673470 0.238539
H18   H     H_    0.905925 0.538266 0.607701 0.281672
F5    F     F_    0.225213 0.636130 0.515458 -0.663555
F6    F     F_    0.774737 0.363829 0.484575 -0.663559
F7    F     F_    0.153498 0.479016 0.081446 -0.670880
F8    F     F_    0.846502 0.520984 0.918554 -0.670877

loop_
_geom_bond_atom_site_label_1
_geom_bond_atom_site_label_2
_ccdc_geom_bond_type
C38   H6    S    
C13   N2    S    
C35   C37   A    
O13   V3    S    
O4    C2    A    
V1    O19   S    
N3    H11   S    
C24   N4    S    
C29   C34   A    
C15   C17   A    
O9    V1    S    
N2    H10   S    
C11   C13   A    
N4    H14   S    
O3    C1    A    
C29   C31   A    
C3    C40   S    
O12   V4    S    
C35   F7    S    
C32   C34   A    
C18   C22   A    
C23   N3    S    
O7    C3    A    
C9    C11   A    
O5    C7    A    
O7    V1    S    
O6    C8    A    
O8    V2    S    
C23   C25   A    
C24   C26   A    
C16   F4    S    
O3    V1    S    
O14   V4    S    
V4    O20   S    
C25   C27   A    
C2    C33   S    
C30   C33   A    
C16   C18   A    
C2    O12   A    
C17   C19   A    
C18   C20   A    
N3    H12   S    
C26   H4    S    
O11   V3    S    
O17   V3    S    
C8    C21   S    
C31   C33   A    
N2    H9    S    
C9    C19   A    
C10   C20   A    
N4    H13   S    
C36   F8    S    
O8    C4    A    
N1    H8    S    
C1    O11   A    
C37   H5    S    
O15   V3    S    
C11   F1    S    
C29   N5    S    
C25   H3    S    
C36   C38   A    
O1    C3    A    
C1    C34   S    
N6    H18   S    
C35   C40   A    
O10   V2    S    
O1    V3    S    
C36   C39   A    
C30   N6    S    
C7    C22   S    
O18   V4    S    
O15   C5    A    
C9    H1    S    
C4    C39   S    
O16   C6    A    
C6    C28   S    
C20   C21   A    
V2    O20   S    
C14   N1    S    
O16   V4    S    
C5    C27   S    
O5    V1    S    
O17   C7    A    
C23   C28   A    
O6    V2    S    
O10   C6    A    
O18   C8    A    
C24   C27   A    
O2    V4    S    
C12   C14   A    
N1    H7    S    
C13   C15   A    
C12   F2    S    
C14   C16   A    
N6    H17   S    
C38   C40   A    
C37   C39   A    
O9    C5    A    
O13   V1    S    
C10   C12   A    
O14   V2    S    
O2    C4    A    
C19   C22   A    
O4    V2    S    
C10   H2    S    
N5    H15   S    
V3    O19   S    
N5    H16   S    
C17   C21   A    
C31   F5    S    
C30   C32   A    
C26   C28   A    
C15   F3    S    
C32   F6    S    
