data_mof_unit_52412.cif
_audit_creation_date              2012-12-11T14:01:44-0500
_audit_creation_method            fapswitch 2.2
_symmetry_space_group_name_H-M    P1
_symmetry_Int_Tables_number       1
_space_group_crystal_system       triclinic
_cell_length_a                    18.913568
_cell_length_b                    11.016943
_cell_length_c                    18.871255
_cell_angle_alpha                 89.935183
_cell_angle_beta                  90.560034
_cell_angle_gamma                 89.813213
_cell_volume                      3931.98636056

loop_
_atom_site_label
_atom_site_type_symbol
_atom_type_description
_atom_site_fract_x
_atom_site_fract_y
_atom_site_fract_z
_atom_type_partial_charge
C1    C     C_R   0.274056 0.037603 0.854560 0.578527
C2    C     C_R   0.725939 0.037719 0.145381 0.575133
C3    C     C_R   0.774055 0.537605 0.854559 0.578963
C4    C     C_R   0.225936 0.537709 0.145376 0.581929
C5    C     C_R   0.477081 0.053011 0.069906 0.276512
C6    C     C_R   0.524369 0.051548 0.929352 0.275978
C7    C     C_R   0.977014 0.552971 0.069916 0.277102
C8    C     C_R   0.024304 0.551589 0.929362 0.276228
C9    C     C_R   0.987459 0.661463 0.033529 -0.124848
C10   C     C_R   0.015015 0.660721 0.965429 -0.125322
C11   C     C_R   0.487572 0.161484 0.033513 -0.125545
C12   C     C_R   0.515126 0.160698 0.965414 -0.125313
C13   C     C_2   0.251755 0.595885 0.922732 0.016340
C14   C     C_2   0.748165 0.596935 0.077076 0.014276
C15   C     C_2   0.751758 0.095900 0.922736 0.016246
C16   C     C_2   0.248163 0.096942 0.077074 0.015530
C17   C     C_2   0.233044 0.534910 0.070318 0.174751
C18   C     C_2   0.766844 0.535154 0.929603 0.176014
C19   C     C_2   0.733053 0.034931 0.070325 0.176830
C20   C     C_2   0.266849 0.035148 0.929606 0.176155
C21   C     C_2   0.294587 0.564583 0.041216 -0.122718
C22   C     C_2   0.705361 0.566076 0.958570 -0.121784
C23   C     C_2   0.794587 0.064674 0.041229 -0.123141
C24   C     C_2   0.205358 0.066010 0.958577 -0.122332
C25   C     C_2   0.305058 0.556207 0.964368 0.282773
C26   C     C_2   0.694811 0.558204 0.035411 0.283223
C27   C     C_2   0.805071 0.056298 0.964384 0.282896
C28   C     C_2   0.194819 0.058135 0.035421 0.283242
C29   C     C_2   0.510246 0.839179 0.583771 -0.076512
C30   C     C_2   0.513599 0.829380 0.427954 -0.074251
C31   C     C_2   0.010091 0.338571 0.583678 -0.076877
C32   C     C_2   0.013196 0.329330 0.427790 -0.087871
C33   C     C_2   0.544209 0.747694 0.471926 -0.149822
C34   C     C_2   0.530238 0.741813 0.547332 -0.145564
C35   C     C_2   0.042951 0.246630 0.471658 -0.154873
C36   C     C_2   0.028618 0.240672 0.546904 -0.141416
C37   C     C_2   0.281675 0.688652 0.561989 0.213131
C38   C     C_2   0.737979 0.646134 0.434455 0.227249
C39   C     C_2   0.782706 0.189761 0.562723 0.211426
C40   C     C_2   0.237464 0.145879 0.434346 0.227927
C41   C     C_2   0.251170 0.600638 0.417507 -0.042817
C42   C     C_2   0.739012 0.613477 0.590193 -0.022118
C43   C     C_2   0.754134 0.115323 0.412508 -0.086357
C44   C     C_2   0.238957 0.112995 0.590115 -0.023822
C45   C     C_R   0.471824 0.821755 0.853373 0.602889
C46   C     C_R   0.528090 0.822073 0.146674 0.605721
C47   C     C_R   0.971827 0.321758 0.853370 0.602583
C48   C     C_R   0.028093 0.322069 0.146672 0.603824
C49   C     C_2   0.220531 0.700972 0.444675 0.269111
C50   C     C_2   0.773397 0.700596 0.554901 0.275913
C51   C     C_2   0.711717 0.192078 0.449640 0.245315
C52   C     C_2   0.273239 0.200016 0.554746 0.271128
C53   C     C_2   0.225329 0.721752 0.522399 -0.102951
C54   C     C_2   0.748460 0.732706 0.483420 -0.138637
C55   C     C_2   0.726837 0.226155 0.523767 -0.082654
C56   C     C_2   0.248012 0.232176 0.483424 -0.146767
C57   C     C_R   0.261421 0.637804 0.851421 0.618349
C58   C     C_R   0.738547 0.638291 0.148487 0.611196
C59   C     C_R   0.761422 0.137810 0.851423 0.618576
C60   C     C_R   0.238546 0.138292 0.148486 0.614007
C61   C     C_R   0.270416 0.049296 0.650096 0.554964
C62   C     C_R   0.728021 0.048243 0.351243 0.532532
C63   C     C_R   0.770405 0.549422 0.650130 0.554092
C64   C     C_R   0.228773 0.548837 0.350549 0.543773
C65   C     C_R   0.471761 0.824454 0.649141 0.566788
C66   C     C_R   0.532444 0.823271 0.353844 0.541688
C67   C     C_R   0.971699 0.324382 0.649107 0.569189
C68   C     C_R   0.032365 0.323276 0.353786 0.535210
C69   C     C_R   0.277039 0.695859 0.639754 0.585992
C70   C     C_R   0.726441 0.685658 0.362102 0.545586
C71   C     C_R   0.777442 0.196818 0.640166 0.588714
C72   C     C_R   0.226341 0.185734 0.362061 0.543931
C73   C     C_R   0.497541 0.829609 0.074576 0.050834
C74   C     C_R   0.501956 0.828823 0.925622 0.050519
C75   C     C_R   0.997556 0.329590 0.074568 0.050047
C76   C     C_R   0.001972 0.328841 0.925613 0.050765
C77   C     C_R   0.493625 0.941078 0.036944 0.071751
C78   C     C_R   0.506785 0.940509 0.962762 0.071114
C79   C     C_R   0.993598 0.441063 0.036945 0.071875
C80   C     C_R   0.006758 0.440524 0.962763 0.071409
C81   C     C_R   0.501194 0.720191 0.964051 -0.099041
C82   C     C_R   0.497002 0.720613 0.036639 -0.097943
C83   C     C_R   0.001263 0.220200 0.964032 -0.098925
C84   C     C_R   0.997070 0.220601 0.036621 -0.098411
Cr1   Cr    Cr6+3 0.230530 0.836340 0.748870 1.052578
Cr2   Cr    Cr6+3 0.769470 0.836340 0.251130 1.047555
Cr3   Cr    Cr6+3 0.730530 0.336340 0.748870 1.054306
Cr4   Cr    Cr6+3 0.269470 0.336340 0.251130 1.052079
Cr5   Cr    Cr6+3 0.387420 0.989430 0.750820 1.110196
Cr6   Cr    Cr6+3 0.612580 0.989430 0.249180 1.108169
Cr7   Cr    Cr6+3 0.887420 0.489430 0.750820 1.107702
Cr8   Cr    Cr6+3 0.112580 0.489430 0.249180 1.101212
Cr9   Cr    Cr6+3 0.385640 0.677860 0.749230 1.069878
Cr10  Cr    Cr6+3 0.614360 0.677860 0.250770 1.051085
Cr11  Cr    Cr6+3 0.885640 0.177860 0.749230 1.070551
Cr12  Cr    Cr6+3 0.114360 0.177860 0.250770 1.069369
H1    H     H_    0.500346 0.632996 0.937746 0.163478
H2    H     H_    0.496998 0.633647 0.063346 0.161312
H3    H     H_    0.000453 0.133011 0.937719 0.163338
H4    H     H_    0.997103 0.133627 0.063319 0.161198
H5    H     H_    0.178304 0.754936 0.548578 0.094029
H6    H     H_    0.748114 0.828026 0.468320 0.073922
H7    H     H_    0.681436 0.264524 0.550702 0.132185
H8    H     H_    0.247566 0.327432 0.468466 0.064463
H9    H     H_    0.281601 0.539218 0.449908 0.074316
H10   H     H_    0.689557 0.577797 0.569004 0.079046
H11   H     H_    0.807345 0.093861 0.427606 0.116860
H12   H     H_    0.189489 0.077192 0.569022 0.078360
H13   H     H_    0.974878 0.746713 0.058737 0.119063
H14   H     H_    0.028458 0.745364 0.939987 0.119934
H15   H     H_    0.475022 0.246750 0.058716 0.118622
H16   H     H_    0.528599 0.245324 0.939966 0.120109
H17   H     H_    0.337407 0.600349 0.073844 0.108645
H18   H     H_    0.662608 0.602311 0.925801 0.109386
H19   H     H_    0.837391 0.100485 0.073861 0.107421
H20   H     H_    0.162590 0.102202 0.925811 0.109181
H21   H     H_    0.201799 0.623442 0.945848 0.137161
H22   H     H_    0.798153 0.623871 0.053975 0.139007
H23   H     H_    0.701788 0.123407 0.945842 0.136839
H24   H     H_    0.298137 0.123935 0.053961 0.138366
H25   H     H_    0.577656 0.675691 0.451372 0.141153
H26   H     H_    0.531649 0.652474 0.571739 0.134921
H27   H     H_    0.075897 0.173908 0.451145 0.143680
H28   H     H_    0.028491 0.150944 0.570873 0.137859
H29   H     H_    0.480251 0.902781 0.446626 0.090158
H30   H     H_    0.513332 0.929570 0.560942 0.106644
H31   H     H_    0.980384 0.403391 0.446543 0.084973
H32   H     H_    0.014278 0.429021 0.561119 0.093164
O1    O     O_R   0.215090 0.709860 0.828130 -0.478359
O2    O     O_R   0.784910 0.709860 0.171870 -0.477008
O3    O     O_R   0.715090 0.209860 0.828130 -0.478100
O4    O     O_R   0.284910 0.209860 0.171870 -0.478221
O5    O     O_R   0.445660 0.919250 0.676780 -0.492050
O6    O     O_R   0.554340 0.919250 0.323220 -0.479051
O7    O     O_R   0.945660 0.419250 0.676780 -0.494096
O8    O     O_R   0.054340 0.419250 0.323220 -0.493955
O9    O     O_R   0.456260 0.718170 0.670000 -0.536432
O10   O     O_R   0.543740 0.718170 0.330000 -0.530732
O11   O     O_R   0.956260 0.218170 0.670000 -0.532069
O12   O     O_R   0.043740 0.218170 0.330000 -0.529147
O13   O     O_R   0.320940 0.626760 0.674370 -0.497960
O14   O     O_R   0.679060 0.626760 0.325630 -0.512206
O15   O     O_R   0.820940 0.126760 0.674370 -0.494772
O16   O     O_R   0.179060 0.126760 0.325630 -0.484745
O17   O     O_3   0.334530 0.834540 0.749640 -0.298561
O18   O     O_3   0.665470 0.834540 0.250360 -0.291156
O19   O     O_3   0.834530 0.334540 0.749640 -0.300125
O20   O     O_3   0.165470 0.334540 0.250360 -0.295751
O21   O     O_R   0.236990 0.958390 0.823710 -0.507503
O22   O     O_R   0.763010 0.958390 0.176290 -0.503521
O23   O     O_R   0.736990 0.458390 0.823710 -0.507228
O24   O     O_R   0.263010 0.458390 0.176290 -0.503332
O25   O     O_R   0.332380 0.074750 0.830850 -0.480355
O26   O     O_R   0.667620 0.074750 0.169150 -0.486555
O27   O     O_R   0.832380 0.574750 0.830850 -0.480149
O28   O     O_R   0.167620 0.574750 0.169150 -0.478050
O29   O     O_R   0.445800 0.917770 0.825070 -0.436730
O30   O     O_R   0.554200 0.917770 0.174930 -0.435470
O31   O     O_R   0.945800 0.417770 0.825070 -0.436767
O32   O     O_R   0.054200 0.417770 0.174930 -0.434888
O33   O     O_R   0.456410 0.716580 0.829970 -0.510248
O34   O     O_R   0.543590 0.716580 0.170030 -0.505419
O35   O     O_R   0.956410 0.216580 0.829970 -0.510814
O36   O     O_R   0.043590 0.216580 0.170030 -0.506500
O37   O     O_R   0.321080 0.625290 0.822650 -0.439069
O38   O     O_R   0.678920 0.625290 0.177350 -0.441998
O39   O     O_R   0.821080 0.125290 0.822650 -0.439574
O40   O     O_R   0.178920 0.125290 0.177350 -0.438210
O41   O     O_R   0.214930 0.711450 0.668160 -0.526396
O42   O     O_R   0.785070 0.711450 0.331840 -0.520131
O43   O     O_R   0.714930 0.211450 0.668160 -0.525085
O44   O     O_R   0.285070 0.211450 0.331840 -0.522882
O45   O     O_R   0.236850 0.959870 0.675420 -0.547107
O46   O     O_R   0.763150 0.959870 0.324580 -0.540614
O47   O     O_R   0.736850 0.459870 0.675420 -0.548838
O48   O     O_R   0.263150 0.459870 0.324580 -0.538373
O49   O     O_R   0.332230 0.076350 0.670880 -0.456821
O50   O     O_R   0.667770 0.076350 0.329120 -0.445896
O51   O     O_R   0.832230 0.576350 0.670880 -0.457264
O52   O     O_R   0.167770 0.576350 0.329120 -0.466907
O53   O     O_3   0.182445 0.777966 0.399288 -0.520749
C85   C     C_3   0.119409 0.820614 0.430052 -0.074216
H33   H     H_    0.130535 0.892752 0.469644 0.142973
H34   H     H_    0.088366 0.745347 0.453787 0.083576
H35   H     H_    0.086111 0.862079 0.387742 0.147897
O54   O     O_3   0.831756 0.758065 0.584706 -0.552408
C86   C     C_3   0.891369 0.738469 0.541711 -0.114951
H36   H     H_    0.885735 0.785254 0.489709 0.096395
H37   H     H_    0.901567 0.639791 0.533948 0.132239
H38   H     H_    0.938417 0.777144 0.568886 0.126457
O55   O     O_3   0.642345 0.211805 0.427403 -0.552148
C87   C     C_3   0.633061 0.334957 0.409574 -0.073790
H39   H     H_    0.672091 0.364667 0.369422 0.160577
H40   H     H_    0.635127 0.393300 0.457518 0.143512
H41   H     H_    0.579733 0.346503 0.385477 0.131629
O56   O     O_3   0.331563 0.257668 0.584501 -0.556180
C88   C     C_3   0.390929 0.240044 0.540897 -0.106044
H42   H     H_    0.384674 0.288112 0.489364 0.101957
H43   H     H_    0.401536 0.141724 0.532218 0.134883
H44   H     H_    0.437985 0.278705 0.568065 0.136104
O57   O     O_3   0.346958 0.671686 0.529580 -0.601247
C89   C     C_3   0.375380 0.555513 0.544978 -0.105804
H45   H     H_    0.334317 0.486459 0.556859 0.155579
H46   H     H_    0.413657 0.559862 0.589454 0.177918
H47   H     H_    0.404991 0.523575 0.498051 0.116354
O58   O     O_3   0.746811 0.524027 0.451116 -0.625911
C90   C     C_3   0.806497 0.477187 0.415908 -0.108469
H48   H     H_    0.853741 0.536209 0.422970 0.121384
H49   H     H_    0.794811 0.463261 0.358666 0.155888
H50   H     H_    0.820005 0.387476 0.439080 0.156360
O59   O     O_3   0.848214 0.170849 0.531603 -0.609586
C91   C     C_3   0.872058 0.050576 0.543248 -0.106661
H51   H     H_    0.827986 0.983920 0.545177 0.153011
H52   H     H_    0.905282 0.044407 0.591767 0.181897
H53   H     H_    0.906535 0.024139 0.498560 0.108123
O60   O     O_3   0.246038 0.023579 0.450646 -0.589514
C92   C     C_3   0.306556 0.977740 0.416375 -0.050184
H54   H     H_    0.352901 0.039321 0.421855 0.098982
H55   H     H_    0.294825 0.959709 0.359542 0.184395
H56   H     H_    0.321892 0.890506 0.441538 0.167878
Cl1   Cl    Cl    0.432158 0.061734 0.151278 -0.602942
Cl2   Cl    Cl    0.569122 0.057903 0.847820 -0.594182
Cl3   Cl    Cl    0.932102 0.561625 0.151296 -0.606281
Cl4   Cl    Cl    0.069070 0.558009 0.847839 -0.596374
O61   O     O_3   0.371674 0.535453 0.936586 -0.542931
C93   C     C_3   0.402705 0.432596 0.968711 -0.118557
H57   H     H_    0.366568 0.352903 0.967537 0.152955
H58   H     H_    0.420106 0.452696 0.023831 0.097703
H59   H     H_    0.450323 0.408217 0.938182 0.124355
O62   O     O_3   0.628070 0.538863 0.063063 -0.541495
C94   C     C_3   0.597229 0.435613 0.031715 -0.120913
H60   H     H_    0.633390 0.355579 0.033761 0.150545
H61   H     H_    0.580049 0.454633 0.976343 0.098808
H62   H     H_    0.549508 0.412423 0.062275 0.123380
O63   O     O_3   0.871703 0.035635 0.936618 -0.542837
C95   C     C_3   0.902749 0.932771 0.968719 -0.118538
H63   H     H_    0.866634 0.853048 0.967500 0.152988
H64   H     H_    0.920123 0.952825 0.023854 0.097785
H65   H     H_    0.950385 0.908466 0.938200 0.124100
O64   O     O_3   0.128095 0.038690 0.063089 -0.541127
C96   C     C_3   0.097270 0.935457 0.031706 -0.118685
H66   H     H_    0.133456 0.855452 0.033697 0.151701
H67   H     H_    0.080061 0.954541 0.976350 0.097723
H68   H     H_    0.049569 0.912180 0.062274 0.124069
Cl5   Cl    Cl    0.171537 0.438731 0.026856 -0.666764
Cl6   Cl    Cl    0.828340 0.438538 0.973422 -0.668905
Cl7   Cl    Cl    0.671583 0.938682 0.026860 -0.665385
Cl8   Cl    Cl    0.328382 0.938603 0.973426 -0.667720

loop_
_geom_bond_atom_site_label_1
_geom_bond_atom_site_label_2
_ccdc_geom_bond_type
Cr10  O18   S    
C5    Cl1   S    
Cr6   O50   S    
C16   C28   D    
Cr4   O44   S    
C51   O55   S    
C37   C69   S    
Cr8   O20   S    
C82   H2    S    
O57   C89   S    
C67   O7    A    
C35   C36   S    
C52   O56   S    
C50   C54   S    
C60   O4    A    
Cr7   O19   S    
C81   C82   A    
C19   Cl7   S    
O56   C88   S    
C47   O31   A    
C77   C78   A    
C26   O62   S    
C92   H56   S    
Cr11  O15   S    
C48   O32   A    
C59   O3    A    
C60   O40   A    
C89   H46   S    
C2    O22   A    
C72   O44   A    
C32   H31   S    
C71   O15   A    
C6    Cl2   S    
C36   H28   S    
Cr1   O17   S    
C47   C76   S    
C5    C11   A    
Cr2   O22   S    
C6    C12   A    
C64   O52   A    
C75   C84   A    
C6    C78   A    
C13   C57   S    
C88   H42   S    
C69   O13   A    
C66   O10   A    
C46   O30   A    
C55   H7    S    
C39   O59   S    
C63   O51   A    
C95   H63   S    
C3    C18   S    
C72   O16   A    
C96   H66   S    
C16   C60   S    
Cr3   O3    S    
C88   H43   S    
C45   O33   A    
C85   H33   S    
C86   H38   S    
Cr8   O52   S    
Cr1   O1    S    
C66   O6    A    
Cr5   O25   S    
C39   C55   D    
O59   C91   S    
C53   H5    S    
C40   C56   D    
C89   H47   S    
Cr7   O51   S    
C90   H50   S    
Cr1   O45   S    
O63   C95   S    
Cr12  O40   S    
Cr9   O17   S    
C23   C27   S    
C64   O48   A    
C67   O11   A    
C9    C10   A    
Cr10  O34   S    
C92   H55   S    
Cr7   O31   S    
C65   O9    A    
C8    Cl4   S    
C27   O63   S    
C32   C68   S    
C47   O35   A    
C44   C52   D    
Cr5   O17   S    
C30   H29   S    
Cr9   O37   S    
C34   H26   S    
Cr3   O23   S    
C29   H30   S    
C33   H25   S    
Cr4   O24   S    
C48   C75   S    
C13   C25   D    
Cr8   O8    S    
C31   H32   S    
C4    O24   A    
Cr2   O18   S    
C76   C83   A    
C41   C49   D    
O61   C93   S    
Cr1   O21   S    
C44   H12   S    
C9    H13   S    
C14   C58   S    
C70   O14   A    
Cr5   O5    S    
C89   H45   S    
Cr6   O6    S    
C95   H64   S    
C11   H15   S    
C90   H48   S    
Cr10  O14   S    
C32   C35   D    
C76   C80   A    
C68   O8    A    
C45   O29   A    
O60   C92   S    
C56   H8    S    
C21   H17   S    
C46   O34   A    
O58   C90   S    
Cr2   O2    S    
C69   O41   A    
C51   C55   S    
C14   H22   S    
C92   H54   S    
O53   C85   S    
C29   C34   D    
Cr1   O41   S    
Cr12  O36   S    
Cr12  O20   S    
C45   C74   S    
C96   H67   S    
C85   H35   S    
C84   H4    S    
Cr6   O30   S    
C88   H44   S    
C19   C23   D    
C17   C21   D    
C87   H41   S    
Cr7   O27   S    
Cr11  O35   S    
Cr12  O16   S    
C7    Cl3   S    
C18   Cl6   S    
C15   C27   D    
C83   C84   A    
C38   C54   D    
C91   H53   S    
C17   Cl5   S    
C61   O49   A    
Cr3   O43   S    
C40   O60   S    
C3    O27   A    
C33   C34   S    
Cr4   O20   S    
Cr11  O19   S    
Cr5   O29   S    
Cr8   O28   S    
C43   H11   S    
C14   C26   D    
C1    O25   A    
C42   H10   S    
C30   C66   S    
C41   H9    S    
C42   C50   D    
C49   O53   S    
C4    C17   S    
C8    C10   A    
C38   C70   S    
C4    O28   A    
C91   H52   S    
Cr9   O33   S    
C24   H20   S    
C93   H58   S    
Cr5   O49   S    
C94   H61   S    
C22   C26   S    
Cr10  O10   S    
C29   C65   S    
Cr11  O11   S    
C68   O12   A    
Cr6   O26   S    
Cr4   O4    S    
C74   C81   A    
C5    C77   A    
C50   O54   S    
C73   C82   A    
C12   H16   S    
Cr9   O13   S    
C7    C79   A    
C57   O1    A    
O55   C87   S    
C7    C9    A    
C21   C25   S    
C1    C20   S    
C37   O57   S    
C40   C72   S    
C30   C33   D    
C2    C19   S    
C18   C22   D    
C15   C59   S    
C54   H6    S    
C24   C28   S    
C90   H49   S    
C1    O21   A    
Cr11  O39   S    
Cr12  O12   S    
C13   H21   S    
C11   C12   A    
C63   O47   A    
C48   O36   A    
C44   C61   S    
C38   O58   S    
C93   H59   S    
Cr3   O47   S    
C74   C78   A    
C3    O23   A    
Cr4   O48   S    
C95   H65   S    
Cr8   O32   S    
C96   H68   S    
C87   H39   S    
C16   H24   S    
C62   O50   A    
C70   O42   A    
C37   C53   D    
C86   H36   S    
Cr6   O18   S    
C28   O64   S    
C43   C51   D    
C81   H1    S    
Cr2   O42   S    
C58   O2    A    
C49   C53   S    
C59   O39   A    
C35   H27   S    
O64   C96   S    
C15   H23   S    
C10   H14   S    
C94   H62   S    
C71   O43   A    
O62   C94   S    
C58   O38   A    
C85   H34   S    
Cr10  O38   S    
C86   H37   S    
Cr9   O9    S    
C31   C67   S    
C23   H19   S    
C79   C80   A    
C22   H18   S    
Cr7   O7    S    
C91   H51   S    
C73   C77   A    
C2    O26   A    
C93   H57   S    
Cr3   O19   S    
C94   H60   S    
C8    C80   A    
C61   O45   A    
C39   C71   S    
C31   C36   D    
C57   O37   A    
C83   H3    S    
C41   C64   S    
Cr2   O46   S    
O54   C86   S    
C20   Cl8   S    
C75   C79   A    
C42   C63   S    
C20   C24   D    
C46   C73   S    
C65   O5    A    
C52   C56   S    
C43   C62   S    
C87   H40   S    
C25   O61   S    
C62   O46   A    
