data_mof_unit_48733.cif
_audit_creation_date              2012-12-10T18:58:12-0500
_audit_creation_method            fapswitch 2.2
_symmetry_space_group_name_H-M    P1
_symmetry_Int_Tables_number       1
_space_group_crystal_system       triclinic
_cell_length_a                    11.056946
_cell_length_b                    10.853446
_cell_length_c                    9.549376
_cell_angle_alpha                 90.254263
_cell_angle_beta                  102.542455
_cell_angle_gamma                 90.146752
_cell_volume                      1118.61533789

loop_
_atom_site_label
_atom_site_type_symbol
_atom_type_description
_atom_site_fract_x
_atom_site_fract_y
_atom_site_fract_z
_atom_type_partial_charge
C1    C     C_R   0.499612 0.262565 0.499452 0.804958
C2    C     C_R   0.501490 0.129524 0.497229 -0.116651
C3    C     C_R   0.468167 0.065945 0.366397 -0.253790
C4    C     C_R   0.455392 0.937770 0.363548 -0.030864
C5    C     C_R   0.487359 0.871375 0.494651 -0.173321
C6    C     C_R   0.528929 0.936307 0.622925 0.093624
C7    C     C_3   0.477043 0.934949 0.755295 -0.436740
C8    C     C_3   0.483532 0.074127 0.756131 -0.415019
C9    C     C_R   0.606098 0.524718 0.100342 0.247386
C10   C     C_R   0.398563 0.463274 0.048646 -0.050219
C11   C     C_R   0.398513 0.463384 0.900016 -0.083284
C12   C     C_R   0.262865 0.499555 0.441930 0.875042
C13   C     C_R   0.606544 0.523150 0.953195 0.256647
C14   C     C_3   0.684284 0.636494 0.965912 -0.492019
C15   C     C_3   0.681202 0.640310 0.124109 -0.487050
C16   C     C_R   0.492983 0.737482 0.498040 0.829819
C17   C     C_R   0.737127 0.499643 0.558118 0.861975
C18   C     C_2   0.128048 0.497406 0.409340 -0.337485
C19   C     C_2   0.067361 0.497003 0.515965 -0.154239
C20   C     C_2   0.871956 0.499566 0.591036 -0.352832
C21   C     C_2   0.932880 0.493742 0.484848 -0.147292
C22   C     C_R   0.534187 0.063371 0.624121 0.112184
Cu1   Cu    Cu3+1 0.499990 0.499980 0.640670 0.942335
Cu2   Cu    Cu3+1 0.500010 0.500020 0.359330 0.969874
H1    H     H_    0.883446 0.486905 0.373538 0.173326
H2    H     H_    0.552794 0.112375 0.848308 0.206876
H3    H     H_    0.315828 0.434757 0.082707 0.140795
H4    H     H_    0.315710 0.434831 0.824282 0.136267
H5    H     H_    0.778004 0.617302 0.946494 0.194317
H6    H     H_    0.635521 0.714143 0.903551 0.214080
H7    H     H_    0.773768 0.626244 0.195259 0.190609
H8    H     H_    0.628416 0.719850 0.153559 0.231333
H9    H     H_    0.116952 0.499636 0.627559 0.173485
H10   H     H_    0.921680 0.505159 0.702408 0.144740
H11   H     H_    0.078133 0.495552 0.297888 0.147714
H12   H     H_    0.441614 0.116790 0.267011 0.190505
H13   H     H_    0.380777 0.898203 0.735373 0.200013
H14   H     H_    0.541889 0.894567 0.848504 0.207690
H15   H     H_    0.390899 0.118630 0.736276 0.199225
N1    N     N_R   0.500780 0.500930 0.148120 -0.182223
N2    N     N_R   0.500790 0.500890 0.852210 -0.186631
O1    O     O_R   0.500000 0.319640 0.618810 -0.582923
O2    O     O_R   0.500010 0.319680 0.381230 -0.588458
O3    O     O_R   0.320680 0.500000 0.575130 -0.596289
O4    O     O_R   0.320690 0.500040 0.337550 -0.572547
O5    O     O_R   0.499990 0.680320 0.618770 -0.582219
O6    O     O_R   0.500000 0.680360 0.381190 -0.559554
O7    O     O_R   0.679310 0.499960 0.662450 -0.584372
O8    O     O_R   0.679320 0.500000 0.424870 -0.584077
C23   C     C_2   0.395970 0.880303 0.224192 0.856718
O9    O     O_2   0.315341 0.801900 0.218563 -0.589186
O10   O     O_R   0.427769 0.920636 0.098097 -0.788781
H16   H     H_    0.379534 0.875848 0.010098 0.326525

loop_
_geom_bond_atom_site_label_1
_geom_bond_atom_site_label_2
_ccdc_geom_bond_type
C10   H3    S    
C2    C22   A    
C8    C22   S    
Cu1   Cu2   S    
C15   H7    S    
C6    C7    S    
C12   O4    A    
C8    H15   S    
C8    H2    S    
C18   H11   S    
C23   O10   S    
Cu1   N2    S    
C17   O7    A    
C20   H10   S    
C13   N2    A    
C23   O9    D    
C7    H13   S    
C15   H8    S    
C12   O3    A    
Cu1   O5    S    
C13   C14   S    
O10   H16   S    
Cu1   O1    S    
C3    H12   S    
C14   H6    S    
Cu2   O4    S    
C11   H4    S    
C16   O6    A    
C19   C21   S    
C7    H14   S    
C11   N2    A    
C2    C3    A    
C9    C15   S    
C5    C6    A    
C10   C11   A    
C14   H5    S    
C12   C18   S    
C3    C4    A    
C6    C22   A    
C1    O1    A    
C7    C8    S    
C17   C20   S    
C20   C21   D    
C10   N1    A    
C1    C2    S    
C19   H9    S    
C16   O5    A    
Cu2   O8    S    
Cu2   O2    S    
C9    C13   A    
C14   C15   S    
C18   C19   D    
C5    C16   S    
C21   H1    S    
Cu1   O7    S    
Cu2   N1    S    
Cu2   O6    S    
C1    O2    A    
C9    N1    A    
C17   O8    A    
Cu1   O3    S    
C4    C23   S    
C4    C5    A    
