data_mof_unit_29536.cif
_audit_creation_date              2012-10-26T18:32:56-0400
_audit_creation_method            fapswitch 2.2
_symmetry_space_group_name_H-M    P1
_symmetry_Int_Tables_number       1
_space_group_crystal_system       triclinic
_cell_length_a                    13.751214
_cell_length_b                    13.833824
_cell_length_c                    15.081579
_cell_angle_alpha                 89.545322
_cell_angle_beta                  90.420407
_cell_angle_gamma                 83.033154
_cell_volume                      2847.62458336

loop_
_atom_site_label
_atom_site_type_symbol
_atom_type_description
_atom_site_fract_x
_atom_site_fract_y
_atom_site_fract_z
_atom_type_partial_charge
C1    C     C_R   0.499704 0.500474 0.328543 0.543815
C2    C     C_R   0.322077 0.508093 0.952301 -0.135710
C3    C     C_R   0.787441 0.545150 0.432726 -0.006982
C4    C     C_R   0.212559 0.454850 0.567273 -0.006982
C5    C     C_R   0.800218 0.451048 0.566057 0.399167
C6    C     C_R   0.199782 0.548952 0.433943 0.399167
C7    C     C_R   0.903171 0.454759 0.569919 -0.008421
C8    C     C_R   0.096828 0.545241 0.430080 -0.008421
C9    C     C_R   0.948296 0.499641 0.500004 0.018560
C10   C     C_R   0.051704 0.500359 0.499996 0.018560
C11   C     C_R   0.890166 0.544033 0.430187 -0.028685
C12   C     C_R   0.500296 0.499526 0.671457 0.543816
C13   C     C_R   0.109834 0.455967 0.569813 -0.028685
C14   C     C_R   0.961943 0.415105 0.641658 -0.144238
C15   C     C_R   0.038057 0.584895 0.358342 -0.144238
C16   C     C_R   0.517208 0.316680 0.499333 0.538132
C17   C     C_R   0.482792 0.683320 0.500667 0.538132
C18   C     C_R   0.064035 0.414178 0.640787 -0.159310
C19   C     C_R   0.935965 0.585822 0.359212 -0.159310
C20   C     C_1   0.469990 0.787048 0.502901 -0.040139
C21   C     C_1   0.530010 0.212952 0.497099 -0.040139
C22   C     C_2   0.458414 0.978907 0.506499 -0.012096
C23   C     C_R   0.500132 0.499651 0.953524 0.062576
C24   C     C_2   0.541587 0.021093 0.493500 -0.012096
C25   C     C_1   0.537911 0.125616 0.495193 -0.061872
C26   C     C_1   0.462089 0.874384 0.504807 -0.061872
C27   C     C_R   0.411605 0.503057 0.814044 -0.142062
C28   C     C_R   0.588395 0.496942 0.185956 -0.142062
C29   C     C_R   0.500549 0.499022 0.768337 -0.018419
C30   C     C_R   0.499451 0.500977 0.231663 -0.018419
C31   C     C_R   0.589345 0.494804 0.815404 -0.139063
C32   C     C_R   0.410655 0.505194 0.184595 -0.139062
C33   C     C_R   0.589752 0.495109 0.907815 0.005751
C34   C     C_R   0.499869 0.500346 0.046476 0.062576
C35   C     C_R   0.410249 0.504889 0.092185 0.005751
C36   C     C_R   0.638001 0.963456 0.475721 0.048362
C37   C     C_R   0.718875 0.973245 0.530927 -0.092394
C38   C     C_R   0.809139 0.917783 0.515813 -0.113921
C39   C     C_R   0.819530 0.852479 0.445299 -0.099343
C40   C     C_R   0.739926 0.843257 0.389218 -0.106143
C41   C     C_R   0.649697 0.898950 0.403818 -0.081732
C42   C     C_R   0.362000 0.036544 0.524278 0.048361
C43   C     C_R   0.281126 0.026759 0.469070 -0.092394
C44   C     C_R   0.190863 0.082223 0.484184 -0.113921
C45   C     C_R   0.410763 0.503545 0.906380 0.011889
C46   C     C_R   0.180472 0.147523 0.554700 -0.099344
C47   C     C_R   0.260075 0.156742 0.610783 -0.106144
C48   C     C_R   0.350303 0.101047 0.596183 -0.081732
C49   C     C_3   0.771592 0.301074 0.617472 -0.005391
C50   C     C_3   0.707967 0.250810 0.680961 -0.361271
C51   C     C_3   0.228407 0.698927 0.382530 -0.005390
C52   C     C_3   0.292032 0.749192 0.319040 -0.361270
C53   C     C_R   0.589237 0.496453 0.093620 0.011889
C54   C     C_R   0.678181 0.491190 0.955258 -0.135636
C55   C     C_R   0.321819 0.508808 0.044742 -0.135636
C56   C     C_R   0.677923 0.491905 0.047699 -0.135710
Cu1   Cu    Cu3+1 0.597420 0.500010 0.499990 0.979546
Cu2   Cu    Cu3+1 0.402580 0.499990 0.500010 0.979546
H1    H     H_    0.342807 0.506225 0.777905 0.121693
H2    H     H_    0.257714 0.418499 0.619571 0.124636
H3    H     H_    0.929485 0.384739 0.699067 0.135454
H4    H     H_    0.070514 0.615260 0.300932 0.135454
H5    H     H_    0.107108 0.381315 0.696070 0.097733
H6    H     H_    0.892892 0.618685 0.303930 0.097733
H7    H     H_    0.711579 0.022604 0.586427 0.096952
H8    H     H_    0.870931 0.925103 0.559062 0.103282
H9    H     H_    0.889284 0.809217 0.433985 0.110215
H10   H     H_    0.748145 0.792961 0.334399 0.095801
H11   H     H_    0.588905 0.891537 0.359340 0.102818
H12   H     H_    0.657192 0.493776 0.222095 0.121693
H13   H     H_    0.288424 0.977403 0.413568 0.096953
H14   H     H_    0.129072 0.074905 0.440934 0.103282
H15   H     H_    0.110718 0.190786 0.566014 0.110215
H16   H     H_    0.251856 0.207035 0.665603 0.095802
H17   H     H_    0.411095 0.108457 0.640662 0.102818
H18   H     H_    0.849085 0.271618 0.630692 0.098987
H19   H     H_    0.753614 0.281736 0.548296 0.150699
H20   H     H_    0.629425 0.277543 0.669561 0.163876
H21   H     H_    0.719515 0.170956 0.670659 0.082747
H22   H     H_    0.727635 0.266263 0.750552 0.146639
H23   H     H_    0.658176 0.491445 0.780317 0.165770
H24   H     H_    0.246385 0.718264 0.451705 0.150699
H25   H     H_    0.150915 0.728382 0.369309 0.098987
H26   H     H_    0.272363 0.733740 0.249449 0.146637
H27   H     H_    0.280485 0.829045 0.329344 0.082747
H28   H     H_    0.370575 0.722457 0.330440 0.163877
H29   H     H_    0.341824 0.508553 0.219683 0.165770
H30   H     H_    0.747435 0.487644 0.920876 0.110675
H31   H     H_    0.252566 0.512354 0.079124 0.110675
H32   H     H_    0.747001 0.488860 0.083276 0.105375
H33   H     H_    0.252999 0.511139 0.916724 0.105375
H34   H     H_    0.742286 0.581501 0.380429 0.124636
N1    N     N_R   0.743820 0.499960 0.499930 -0.227517
N2    N     N_R   0.256180 0.500040 0.500070 -0.227517
O1    O     O_R   0.582280 0.500030 0.370250 -0.527405
O2    O     O_3   0.244845 0.597282 0.368286 -0.545174
O3    O     O_R   0.417720 0.499970 0.629750 -0.527405
O4    O     O_R   0.417740 0.500020 0.370270 -0.445047
O5    O     O_R   0.582260 0.499980 0.629730 -0.445046
O6    O     O_R   0.593900 0.362160 0.500010 -0.492858
O7    O     O_R   0.406100 0.637840 0.499990 -0.492857
O8    O     O_R   0.429360 0.362150 0.500030 -0.490322
O9    O     O_R   0.570640 0.637850 0.499970 -0.490323
O10   O     O_3   0.755154 0.402719 0.631715 -0.545175

loop_
_geom_bond_atom_site_label_1
_geom_bond_atom_site_label_2
_ccdc_geom_bond_type
C54   H30   S    
C16   C21   S    
C23   C45   A    
C12   C29   S    
C27   C29   A    
C14   C18   A    
Cu2   O4    S    
C50   H21   S    
C49   O10   S    
C15   C19   A    
C11   C19   A    
C24   C36   S    
C13   C18   A    
C52   H27   S    
C2    C55   A    
C38   C39   A    
C18   H5    S    
Cu1   O5    S    
C17   C20   S    
C34   C35   A    
C4    C13   A    
C52   H26   S    
C17   O7    A    
C12   O5    A    
C7    C14   A    
C38   H8    S    
C23   C33   A    
C37   H7    S    
C31   C33   A    
Cu2   O8    S    
C9    C10   A    
C51   O2    S    
C27   C45   A    
C56   H32   S    
C5    O10   S    
Cu1   N1    S    
C48   H17   S    
C36   C41   A    
Cu2   O3    S    
C50   H20   S    
C44   C46   A    
C2    C45   A    
Cu1   O9    S    
C54   C56   A    
C35   C55   A    
C51   C52   S    
C32   C35   A    
C14   H3    S    
C24   C25   S    
C39   C40   A    
C5    C7    A    
C16   O6    A    
C6    C8    A    
C6    N2    A    
C32   H29   S    
C3    H34   S    
C43   C44   A    
C37   C38   A    
C47   C48   A    
C19   H6    S    
C1    O1    A    
C23   C34   A    
C4    H2    S    
C49   H18   S    
C3    N1    A    
Cu2   O7    S    
C42   C48   A    
C9    C11   A    
C51   H24   S    
C12   O3    A    
C4    N2    A    
C16   O8    A    
C40   C41   A    
C8    C15   A    
C6    O2    S    
C40   H10   S    
C22   C24   D    
C42   C43   A    
C51   H25   S    
C41   H11   S    
C53   C56   A    
C33   C54   A    
C7    C9    A    
C21   C25   T    
C46   C47   A    
C36   C37   A    
C43   H13   S    
C39   H9    S    
C8    C10   A    
C28   H12   S    
C47   H16   S    
C10   C13   A    
C50   H22   S    
C1    O4    A    
C5    N1    A    
C28   C53   A    
C31   H23   S    
C52   H28   S    
Cu2   N2    S    
C29   C31   A    
C27   H1    S    
C30   C32   A    
Cu1   O6    S    
Cu1   Cu2   S    
C22   C42   S    
C20   C26   T    
C28   C30   A    
C1    C30   S    
C15   H4    S    
C49   H19   S    
C44   H14   S    
C17   O9    A    
C2    H33   S    
C3    C11   A    
C22   C26   S    
C34   C53   A    
C55   H31   S    
C49   C50   S    
Cu1   O1    S    
C46   H15   S    
