data_mof_unit_30401.cif
_audit_creation_date              2012-12-10T17:05:16-0500
_audit_creation_method            fapswitch 2.2
_symmetry_space_group_name_H-M    P1
_symmetry_Int_Tables_number       1
_space_group_crystal_system       triclinic
_cell_length_a                    10.090967
_cell_length_b                    10.660671
_cell_length_c                    15.536302
_cell_angle_alpha                 89.69855
_cell_angle_beta                  68.50044
_cell_angle_gamma                 88.295096
_cell_volume                      1554.33242244

loop_
_atom_site_label
_atom_site_type_symbol
_atom_type_description
_atom_site_fract_x
_atom_site_fract_y
_atom_site_fract_z
_atom_type_partial_charge
C1    C     C_R   0.492040 0.736673 0.510312 0.807394
C2    C     C_R   0.735206 0.494486 0.029895 -0.020001
C3    C     C_R   0.588490 0.488175 0.084393 -0.093808
C4    C     C_R   0.411299 0.494822 0.675203 0.899148
C5    C     C_R   0.834558 0.500999 0.073674 -0.079681
C6    C     C_R   0.788157 0.499573 0.170037 -0.269168
C7    C     C_R   0.543461 0.517451 0.178850 0.398964
C8    C     C_2   0.566044 0.066589 0.549206 0.463115
C9    C     C_2   0.517699 0.128518 0.489880 0.329982
C10   C     C_2   0.580537 0.930607 0.540072 -0.298687
C11   C     C_2   0.468907 0.865929 0.541191 0.304520
C12   C     C_R   0.427413 0.449335 0.907792 0.011074
C13   C     C_2   0.061321 0.407429 0.526654 0.114199
C14   C     C_2   0.925934 0.400480 0.507741 0.042698
C15   C     C_R   0.503653 0.262589 0.497789 0.798681
C16   C     C_R   0.588657 0.503561 0.324406 0.899344
C17   C     C_R   0.360248 0.467180 0.773901 -0.260384
C18   C     C_R   0.641861 0.507113 0.223180 -0.129841
C19   C     C_R   0.205235 0.359738 0.910656 0.357213
C20   C     C_R   0.240449 0.394023 0.817580 0.511176
C21   C     C_R   0.450397 0.495050 0.819800 -0.323158
C22   C     C_3   0.601235 0.061818 0.689249 -0.344115
C23   C     C_R   0.295879 0.392939 0.958387 -0.100184
C24   C     C_3   0.523416 0.127096 0.338873 -0.296978
C25   C     C_3   0.811683 0.634681 0.616500 -0.136243
C26   C     C_3   0.946886 0.626916 0.846057 -0.313063
C27   C     C_3   0.206197 0.231977 0.734594 -0.196595
C28   C     C_R   0.531602 0.463920 0.947145 0.052976
C29   C     C_R   0.490781 0.454714 0.043252 0.012816
C30   C     C_R   0.356768 0.405606 0.095420 -0.304856
C31   C     C_R   0.259481 0.373754 0.054227 0.439532
C32   C     C_R   0.676706 0.481899 0.892650 -0.328994
C33   C     C_R   0.778418 0.494935 0.933273 0.561889
H1    H     H_    0.947739 0.503473 0.033926 0.222746
H2    H     H_    0.685411 0.986296 0.671614 0.171975
H3    H     H_    0.493461 0.022245 0.722375 0.165270
H4    H     H_    0.618387 0.124705 0.740645 0.201742
H5    H     H_    0.635320 0.158321 0.317040 0.139808
H6    H     H_    0.449787 0.207805 0.341500 0.185223
H7    H     H_    0.518660 0.061119 0.285182 0.202796
H8    H     H_    0.261853 0.861237 0.574834 0.349673
H9    H     H_    0.219349 0.621579 0.409379 0.397079
H10   H     H_    0.795669 0.548747 0.659651 0.117857
H11   H     H_    0.708153 0.681908 0.625833 0.160682
H12   H     H_    0.685970 0.887694 0.523918 0.150688
H13   H     H_    0.871975 0.700303 0.642426 0.122899
H14   H     H_    0.372413 0.610556 0.182928 0.341083
H15   H     H_    0.061913 0.633800 0.803643 0.205930
H16   H     H_    0.921511 0.694561 0.904680 0.144967
H17   H     H_    0.886370 0.653218 0.801186 0.140965
H18   H     H_    0.115314 0.216894 0.981394 0.356369
H19   H     H_    0.321899 0.228518 0.691525 0.140692
H20   H     H_    0.148095 0.203620 0.689856 0.188073
H21   H     H_    0.183351 0.162747 0.791608 0.162821
H22   H     H_    0.087485 0.331122 0.564603 0.077854
H23   H     H_    0.882412 0.308618 0.508094 0.096093
H24   H     H_    0.866282 0.496550 0.202746 0.207987
H25   H     H_    0.540046 0.553741 0.785597 0.169503
H26   H     H_    0.328791 0.386723 0.168330 0.193895
H27   H     H_    0.715255 0.477163 0.818052 0.161707
H28   H     H_    0.117849 0.326175 0.173305 0.335290
N1    N     N_2   0.148330 0.498670 0.499030 0.060142
N2    N     N_2   0.852680 0.498640 0.499000 0.125765
O1    O     O_R   0.386950 0.680940 0.500010 -0.631314
O2    O     O_3   0.611441 0.132926 0.610343 -0.632501
O3    O     O_3   0.480078 0.063903 0.424480 -0.591531
O4    O     O_3   0.333951 0.923158 0.573016 -0.760915
O5    O     O_3   0.140432 0.562299 0.426120 -0.597044
O6    O     O_3   0.890684 0.610545 0.522046 -0.459332
O7    O     O_3   0.407970 0.566668 0.227016 -0.752476
O8    O     O_3   0.920701 0.502742 0.878080 -0.550487
O9    O     O_3   0.086788 0.288320 0.950263 -0.697088
O10   O     O_3   0.158483 0.353975 0.769097 -0.539600
O11   O     O_R   0.613110 0.680900 0.499990 -0.609880
O12   O     O_R   0.322330 0.500030 0.632270 -0.585490
O13   O     O_R   0.548480 0.499990 0.632240 -0.634703
O14   O     O_R   0.386890 0.319100 0.500010 -0.623611
O15   O     O_R   0.613050 0.319060 0.499990 -0.607340
O16   O     O_R   0.451520 0.500010 0.367760 -0.552195
O17   O     O_R   0.677670 0.499970 0.367730 -0.616458
O18   O     O_3   0.126463 0.331348 0.107731 -0.773199
Zn1   Zn    Zn3+2 0.349000 0.500030 0.500020 1.007430
Zn2   Zn    Zn3+2 0.651000 0.499970 0.499980 1.001197

loop_
_geom_bond_atom_site_label_1
_geom_bond_atom_site_label_2
_ccdc_geom_bond_type
C14   H23   S    
C19   C20   A    
C1    C11   S    
O11   Zn2   S    
C25   H10   S    
C7    O7    S    
C27   H21   S    
H8    O4    S    
C15   O14   A    
C22   H2    S    
C12   C23   A    
C12   C28   A    
C1    O11   A    
C28   C29   A    
C3    C7    A    
C26   H17   S    
C30   C31   A    
C15   O15   A    
C17   C20   A    
C25   H11   S    
C3    C29   A    
C9    O3    S    
C4    O12   A    
O15   Zn2   S    
C13   N1    D    
N2    O6    S    
C8    C9    D    
C24   H5    S    
C24   O3    S    
N1    Zn1   S    
C8    O2    S    
C13   C14   S    
C30   H26   S    
H9    O5    S    
C26   O8    S    
C6    H24   S    
C19   O9    S    
O17   Zn2   S    
O13   Zn2   S    
C11   O4    S    
C6    C18   A    
C28   C32   A    
C26   H16   S    
H14   O7    S    
C12   C21   A    
C17   C21   A    
N2    Zn2   S    
C16   O17   A    
C23   C31   A    
C19   C23   A    
C22   O2    S    
C29   C30   A    
C7    C18   A    
C5    H1    S    
C10   H12   S    
O1    Zn1   S    
C4    C17   S    
C2    C33   A    
C16   C18   S    
C2    C5    A    
C25   O6    S    
H18   O9    S    
C32   H27   S    
C1    O1    A    
C27   H19   S    
O16   Zn1   S    
C27   H20   S    
O12   Zn1   S    
C26   H15   S    
C22   H3    S    
C31   O18   S    
N1    O5    S    
C16   O16   A    
C32   C33   A    
C2    C3    A    
C9    C15   S    
C21   H25   S    
H28   O18   S    
C22   H4    S    
C5    C6    A    
O14   Zn1   S    
C14   N2    D    
C25   H13   S    
C24   H7    S    
C20   O10   S    
C4    O13   A    
C10   C11   D    
C33   O8    S    
C8    C10   S    
C27   O10   S    
C24   H6    S    
C13   H22   S    
