data_mof_unit_21207.cif
_audit_creation_date              2012-10-26T21:21:54-0400
_audit_creation_method            fapswitch 2.2
_symmetry_space_group_name_H-M    P1
_symmetry_Int_Tables_number       1
_space_group_crystal_system       triclinic
_cell_length_a                    18.415836
_cell_length_b                    18.449075
_cell_length_c                    11.647703
_cell_angle_alpha                 89.758758
_cell_angle_beta                  76.480301
_cell_angle_gamma                 90.009403
_cell_volume                      3847.66995269

loop_
_atom_site_label
_atom_site_type_symbol
_atom_type_description
_atom_site_fract_x
_atom_site_fract_y
_atom_site_fract_z
_atom_type_partial_charge
C1    C     C_R   0.398883 0.099670 0.520562 0.566603
C2    C     C_R   0.464868 0.992626 0.037759 -0.030446
C3    C     C_R   0.035072 0.507386 0.962172 -0.032353
C4    C     C_R   0.964930 0.492507 0.037816 -0.031800
C5    C     C_R   0.411930 0.987818 0.864689 0.021549
C6    C     C_R   0.587822 0.013290 0.135291 0.039642
C7    C     C_R   0.912291 0.486084 0.864594 0.037415
C8    C     C_R   0.087749 0.513740 0.135359 0.038466
C9    C     C_R   0.402126 0.984691 0.988845 0.214927
C10   C     C_R   0.597068 0.018274 0.011785 0.213503
C11   C     C_R   0.903194 0.480326 0.987964 0.216525
C12   C     C_R   0.599928 0.899287 0.479221 0.552838
C13   C     C_R   0.096867 0.519332 0.011974 0.215190
C14   C     C_R   0.541489 0.009534 0.838528 0.064432
C15   C     C_R   0.458782 0.989096 0.161284 0.042125
C16   C     C_R   0.041390 0.510207 0.838597 0.062242
C17   C     C_R   0.958604 0.489769 0.161403 0.065719
C18   C     C_R   0.657487 0.156379 0.467590 0.009763
C19   C     C_R   0.343220 0.842959 0.532742 0.000476
C20   C     C_R   0.339112 0.152756 0.530288 0.010723
C21   C     C_R   0.655821 0.842275 0.467586 0.000493
C22   C     C_R   0.157407 0.656461 0.467491 0.002044
C23   C     C_R   0.600476 0.100302 0.478983 0.565722
C24   C     C_R   0.843867 0.342367 0.532502 0.004752
C25   C     C_R   0.842721 0.656474 0.532074 0.009681
C26   C     C_R   0.159221 0.346457 0.468069 0.006554
C27   C     C_R   0.237287 0.780991 0.655129 -0.158313
C28   C     C_R   0.762898 0.218875 0.344766 -0.157277
C29   C     C_R   0.760673 0.779992 0.344437 -0.149593
C30   C     C_R   0.222291 0.201157 0.643227 -0.144008
C31   C     C_R   0.739334 0.278881 0.655647 -0.157494
C32   C     C_R   0.263329 0.718489 0.345077 -0.143656
C33   C     C_R   0.277588 0.300993 0.358248 -0.150734
C34   C     C_R   0.399746 0.899505 0.521058 0.548558
C35   C     C_R   0.735630 0.716372 0.654424 -0.143868
C36   C     C_R   0.295260 0.830251 0.643379 -0.209594
C37   C     C_R   0.704767 0.169792 0.356609 -0.200961
C38   C     C_R   0.702897 0.829324 0.356529 -0.204883
C39   C     C_R   0.282481 0.154651 0.634012 -0.206829
C40   C     C_R   0.797140 0.328308 0.643701 -0.209149
C41   C     C_R   0.205221 0.669357 0.356787 -0.208293
C42   C     C_R   0.218371 0.348369 0.368141 -0.200685
C43   C     C_R   0.794007 0.667616 0.642457 -0.207430
C44   C     C_R   0.335369 0.802938 0.433392 0.253952
C45   C     C_R   0.899826 0.600557 0.520728 0.559832
C46   C     C_R   0.666550 0.195180 0.567510 0.245591
C47   C     C_R   0.663606 0.801596 0.566732 0.255706
C48   C     C_R   0.336116 0.198788 0.434340 0.249701
C49   C     C_R   0.835171 0.303254 0.432685 0.246726
C50   C     C_R   0.165556 0.696158 0.567042 0.246934
C51   C     C_R   0.158419 0.295874 0.559314 0.254505
C52   C     C_R   0.835064 0.697357 0.433134 0.268447
C53   C     C_R   0.275069 0.755188 0.444256 0.016589
C54   C     C_R   0.726841 0.242939 0.556311 0.014718
C55   C     C_R   0.723989 0.753938 0.555586 0.015229
C56   C     C_R   0.100884 0.400471 0.479188 0.555935
C57   C     C_R   0.277737 0.249259 0.446819 0.008977
C58   C     C_R   0.775235 0.255035 0.444025 0.014427
C59   C     C_R   0.225734 0.744055 0.556054 0.012539
C60   C     C_R   0.218968 0.248473 0.550186 0.016792
C61   C     C_R   0.773537 0.743798 0.443784 0.008547
C62   C     C_3   0.557250 0.230440 0.689801 0.000919
C63   C     C_3   0.503270 0.215679 0.807951 -0.371068
C64   C     C_3   0.446328 0.767295 0.316421 -0.002336
C65   C     C_3   0.503333 0.783137 0.201690 -0.348671
C66   C     C_3   0.371972 0.163841 0.240625 0.005371
C67   C     C_R   0.100626 0.600155 0.478948 0.548887
C68   C     C_3   0.432434 0.174089 0.127845 -0.368553
C69   C     C_3   0.552043 0.766069 0.682740 -0.002388
C70   C     C_3   0.495126 0.781069 0.797665 -0.347480
C71   C     C_3   0.055380 0.731591 0.686678 -0.005101
C72   C     C_3   0.999991 0.716476 0.803347 -0.359790
C73   C     C_3   0.944651 0.268850 0.310117 -0.007006
C74   C     C_3   0.997906 0.283098 0.191122 -0.359446
C75   C     C_3   0.934947 0.749145 0.301618 -0.025882
C76   C     C_3   0.012509 0.726859 0.312816 -0.351206
C77   C     C_3   0.041465 0.253575 0.640677 -0.001697
C78   C     C_R   0.899958 0.399311 0.520977 0.554492
C79   C     C_3   0.975759 0.259124 0.747333 -0.363875
C80   C     C_3   0.280013 0.022093 0.047708 -0.025104
C81   C     C_3   0.216307 0.022977 0.157590 -0.372065
C82   C     C_3   0.682059 0.106889 0.944249 -0.016408
C83   C     C_3   0.754701 0.124266 0.855327 -0.353280
C84   C     C_3   0.819503 0.390517 0.054268 -0.018259
C85   C     C_3   0.747040 0.371995 0.142683 -0.347380
C86   C     C_3   0.180948 0.608454 0.943409 -0.016364
C87   C     C_3   0.253489 0.626047 0.854447 -0.350618
C88   C     C_R   0.535178 0.006661 0.962037 -0.035431
Cu1   Cu    Cu3+1 0.507800 1.000000 0.383250 0.940421
Cu2   Cu    Cu3+1 0.492200 0.000000 0.616750 0.944153
Cu3   Cu    Cu3+1 0.007800 0.500000 0.383250 0.945255
Cu4   Cu    Cu3+1 0.992200 0.500000 0.616750 0.945828
H1    H     H_    0.405189 0.978934 0.220891 0.189543
H2    H     H_    0.798728 0.227469 0.257786 0.151536
H3    H     H_    0.795909 0.771478 0.257190 0.155943
H4    H     H_    0.178731 0.200226 0.723847 0.159714
H5    H     H_    0.635535 0.020937 0.173263 0.132456
H6    H     H_    0.364760 0.979294 0.825867 0.122206
H7    H     H_    0.135471 0.521405 0.173312 0.131417
H8    H     H_    0.864606 0.478311 0.826596 0.131958
H9    H     H_    0.526933 0.221399 0.618717 0.145218
H10   H     H_    0.575233 0.288173 0.687751 0.120990
H11   H     H_    0.531616 0.224631 0.881039 0.130369
H12   H     H_    0.595253 0.019003 0.778919 0.199566
H13   H     H_    0.454611 0.252731 0.819442 0.098849
H14   H     H_    0.482984 0.158850 0.811583 0.176260
H15   H     H_    0.429220 0.709400 0.316325 0.116311
H16   H     H_    0.473875 0.776358 0.390834 0.118896
H17   H     H_    0.552023 0.746409 0.193411 0.092905
H18   H     H_    0.477876 0.774656 0.125245 0.148933
H19   H     H_    0.522984 0.840064 0.200927 0.187300
H20   H     H_    0.318804 0.185374 0.224562 0.103479
H21   H     H_    0.363878 0.105018 0.259522 0.152015
H22   H     H_    0.486227 0.151601 0.139322 0.167939
H23   H     H_    0.904953 0.479652 0.220935 0.198506
H24   H     H_    0.416424 0.145983 0.053422 0.083635
H25   H     H_    0.439833 0.232694 0.106112 0.142566
H26   H     H_    0.568431 0.707928 0.681758 0.115761
H27   H     H_    0.524670 0.776626 0.608457 0.118356
H28   H     H_    0.445508 0.745686 0.804367 0.085953
H29   H     H_    0.520056 0.770094 0.874071 0.146263
H30   H     H_    0.477046 0.838553 0.800186 0.188615
H31   H     H_    0.026306 0.722321 0.614182 0.125680
H32   H     H_    0.072918 0.789434 0.685297 0.117006
H33   H     H_    0.026921 0.725552 0.878045 0.132739
H34   H     H_    0.095035 0.520350 0.779063 0.196173
H35   H     H_    0.951210 0.753229 0.812971 0.097468
H36   H     H_    0.980147 0.659519 0.805974 0.183698
H37   H     H_    0.927154 0.210921 0.313668 0.113725
H38   H     H_    0.975410 0.278957 0.380227 0.122106
H39   H     H_    0.047039 0.246676 0.180012 0.089965
H40   H     H_    0.969280 0.272842 0.118740 0.131471
H41   H     H_    0.017515 0.340190 0.185891 0.183034
H42   H     H_    0.916595 0.797350 0.358783 0.107924
H43   H     H_    0.939034 0.766963 0.209125 0.135027
H44   H     H_    0.032535 0.679931 0.254589 0.182810
H45   H     H_    0.703700 0.270045 0.742709 0.153318
H46   H     H_    0.052085 0.772680 0.286527 0.083783
H47   H     H_    0.010832 0.712097 0.405753 0.138905
H48   H     H_    0.058326 0.195640 0.628193 0.111389
H49   H     H_    0.022354 0.272870 0.561940 0.109703
H50   H     H_    0.928051 0.226732 0.732129 0.086441
H51   H     H_    0.991939 0.238191 0.827355 0.139294
H52   H     H_    0.957973 0.316538 0.762037 0.179212
H53   H     H_    0.697898 0.141099 0.278857 0.126781
H54   H     H_    0.301401 0.859727 0.720821 0.134416
H55   H     H_    0.283753 0.118607 0.707224 0.123810
H56   H     H_    0.299605 0.726706 0.258328 0.164627
H57   H     H_    0.696264 0.858679 0.278874 0.142540
H58   H     H_    0.198816 0.640158 0.279231 0.126542
H59   H     H_    0.804019 0.356922 0.721518 0.125248
H60   H     H_    0.800049 0.637441 0.719676 0.142400
H61   H     H_    0.219872 0.388158 0.298890 0.136359
H62   H     H_    0.256771 0.007860 0.970795 0.122861
H63   H     H_    0.304182 0.077830 0.035077 0.109624
H64   H     H_    0.237889 0.037549 0.235920 0.142470
H65   H     H_    0.173892 0.063603 0.146758 0.086517
H66   H     H_    0.189498 0.968717 0.172059 0.163592
H67   H     H_    0.323489 0.305764 0.281233 0.157659
H68   H     H_    0.688517 0.122429 0.033633 0.109194
H69   H     H_    0.636842 0.140065 0.921111 0.148992
H70   H     H_    0.749020 0.112097 0.764490 0.183310
H71   H     H_    0.768377 0.182604 0.860557 0.083325
H72   H     H_    0.800995 0.091448 0.874746 0.151029
H73   H     H_    0.865097 0.357851 0.077247 0.149456
H74   H     H_    0.813452 0.375133 0.964610 0.105918
H75   H     H_    0.700341 0.404182 0.123284 0.156337
H76   H     H_    0.734328 0.313478 0.136837 0.087375
H77   H     H_    0.752342 0.384130 0.233703 0.185645
H78   H     H_    0.698956 0.723465 0.741021 0.165520
H79   H     H_    0.187039 0.624766 0.032642 0.110012
H80   H     H_    0.135469 0.640852 0.919482 0.151197
H81   H     H_    0.248110 0.612963 0.763789 0.182479
H82   H     H_    0.266466 0.684616 0.858611 0.092903
H83   H     H_    0.300076 0.594070 0.874696 0.153540
H84   H     H_    0.200835 0.773019 0.741788 0.154234
N1    N     N_R   0.519530 0.000000 0.207810 -0.283682
N2    N     N_R   0.480470 0.000000 0.792190 -0.282640
N3    N     N_R   0.019530 0.500000 0.207810 -0.281055
N4    N     N_R   0.980470 0.500000 0.792190 -0.281359
O1    O     O_R   0.430030 0.075530 0.417420 -0.474250
O2    O     O_R   0.583140 0.924490 0.385390 -0.528666
O3    O     O_R   0.583140 0.075510 0.385390 -0.520804
O4    O     O_R   0.416860 0.924490 0.614610 -0.535129
O5    O     O_R   0.916860 0.575510 0.614610 -0.528928
O6    O     O_R   0.083140 0.424490 0.385390 -0.527184
O7    O     O_R   0.083140 0.575510 0.385390 -0.540463
O8    O     O_R   0.916860 0.424490 0.614610 -0.535894
O9    O     O_3   0.619224 0.183573 0.677438 -0.568333
O10   O     O_3   0.384028 0.813275 0.324259 -0.544771
O11   O     O_3   0.394319 0.199609 0.334164 -0.550677
O12   O     O_R   0.569970 0.924470 0.582580 -0.450558
O13   O     O_3   0.614907 0.811240 0.675858 -0.544249
O14   O     O_3   0.117533 0.685170 0.676556 -0.565973
O15   O     O_3   0.882261 0.315189 0.322663 -0.564736
O16   O     O_3   0.885592 0.688977 0.325075 -0.542523
O17   O     O_3   0.101153 0.296012 0.660588 -0.545215
O18   O     O_3   0.332999 0.969619 0.062683 -0.569477
O19   O     O_3   0.666876 0.032026 0.939966 -0.571049
O20   O     O_3   0.833592 0.465537 0.059585 -0.571483
O21   O     O_3   0.166620 0.533376 0.940272 -0.573161
O22   O     O_R   0.569970 0.075530 0.582580 -0.462745
O23   O     O_R   0.430030 0.924470 0.417420 -0.462991
O24   O     O_R   0.930030 0.575530 0.417420 -0.446301
O25   O     O_R   0.069970 0.424470 0.582580 -0.451385
O26   O     O_R   0.069970 0.575530 0.582580 -0.461707
O27   O     O_R   0.930030 0.424470 0.417420 -0.461637
O28   O     O_R   0.416860 0.075510 0.614610 -0.524858

loop_
_geom_bond_atom_site_label_1
_geom_bond_atom_site_label_2
_ccdc_geom_bond_type
C66   C68   S    
C83   H72   S    
Cu2   N2    S    
C8    C13   A    
C66   H21   S    
C74   H40   S    
C73   C74   S    
C52   O16   S    
C77   H48   S    
C10   O19   S    
C25   C43   A    
C76   H44   S    
C75   H42   S    
C48   C57   A    
Cu2   O12   S    
C84   O20   S    
C5    C9    A    
C26   C42   A    
C81   H64   S    
C72   H36   S    
C86   H80   S    
C50   C59   A    
Cu1   O3    S    
C71   H31   S    
C18   C37   A    
C83   H71   S    
C52   C61   A    
C75   H43   S    
C22   C41   A    
Cu4   N4    S    
C74   H41   S    
C69   H26   S    
C70   H29   S    
C31   C40   A    
C28   H2    S    
C1    O28   A    
C78   O27   A    
C65   H19   S    
C48   O11   S    
C30   H4    S    
C84   H73   S    
C51   O17   S    
C44   O10   S    
C11   O20   S    
C44   C53   A    
C12   O2    A    
C56   O25   A    
C70   H28   S    
Cu3   N3    S    
C29   C38   A    
C7    N4    A    
C32   C41   A    
C34   O4    A    
Cu4   O25   S    
Cu1   N1    S    
C31   H45   S    
C35   C43   A    
C38   H57   S    
Cu3   O24   S    
C3    C13   A    
C19   C44   A    
C22   C50   A    
C62   H9    S    
C75   O16   S    
C17   N3    A    
C21   C47   A    
C74   H39   S    
C12   O12   A    
C18   C46   A    
C67   O7    A    
C64   H16   S    
C62   O9    S    
C73   H37   S    
C77   C79   S    
C53   C59   A    
C87   H81   S    
C29   C61   A    
C81   H65   S    
C7    H8    S    
C21   C38   A    
C72   H35   S    
C35   C55   A    
C18   C23   S    
C85   H75   S    
C6    H5    S    
C5    N2    A    
C71   H32   S    
C42   H61   S    
Cu4   O26   S    
C84   C85   S    
C63   H11   S    
Cu3   Cu4   S    
C29   H3    S    
C20   C39   A    
C1    O1    A    
Cu4   O5    S    
C71   O14   S    
C41   H58   S    
C49   O15   S    
C47   O13   S    
C12   C21   S    
C69   H27   S    
C85   H77   S    
C49   C58   A    
C86   H79   S    
C40   H59   S    
C30   C60   A    
C22   C67   S    
C4    C11   A    
Cu1   O1    S    
C7    C11   A    
C75   C76   S    
C23   O3    A    
C62   C63   S    
C79   H51   S    
C68   H25   S    
C82   H68   S    
C70   H30   S    
C14   H12   S    
C79   H52   S    
C34   O23   A    
C80   O18   S    
C66   O11   S    
C46   C54   A    
C69   O13   S    
C14   N2    A    
C5    H6    S    
C63   H14   S    
C2    C88   A    
C2    C15   A    
C86   O21   S    
C65   H17   S    
C20   C48   A    
C67   O26   A    
C68   H24   S    
Cu2   O28   S    
C4    C17   A    
C24   C78   S    
Cu1   O23   S    
Cu3   O6    S    
C56   O6    A    
C76   H46   S    
C15   N1    A    
C6    N1    A    
C63   H13   S    
C33   C42   A    
C46   O9    S    
C3    C4    A    
C25   C45   S    
C32   C53   A    
C9    O18   S    
C17   H23   S    
C64   H15   S    
C47   C55   A    
C54   C58   A    
C76   H47   S    
C36   H54   S    
C24   C49   A    
C87   H82   S    
Cu3   O7    S    
C73   H38   S    
C1    C20   S    
C33   C57   A    
C81   H66   S    
C86   C87   S    
C85   H76   S    
C8    H7    S    
Cu2   O4    S    
C80   C81   S    
C57   C60   A    
C19   C34   S    
C26   C56   S    
C27   H84   S    
C15   H1    S    
Cu3   O27   S    
Cu4   O8    S    
C80   H62   S    
C23   O22   A    
C32   H56   S    
C82   H69   S    
C28   C58   A    
C27   C36   A    
C87   H83   S    
C83   H70   S    
C72   H33   S    
C19   C36   A    
C37   H53   S    
Cu1   O2    S    
C73   O15   S    
C25   C52   A    
C14   C88   A    
C71   C72   S    
C27   C59   A    
C26   C51   A    
C64   C65   S    
C50   O14   S    
C8    N3    A    
C45   O5    A    
C16   H34   S    
C28   C37   A    
C45   O24   A    
C55   C61   A    
Cu2   O22   S    
C24   C40   A    
C13   O21   S    
C30   C39   A    
C31   C54   A    
C69   C70   S    
C77   H49   S    
C65   H18   S    
C84   H74   S    
C6    C10   A    
C43   H60   S    
C79   H50   S    
C10   C88   A    
C16   N4    A    
C82   O19   S    
C78   O8    A    
C64   O10   S    
C82   C83   S    
C39   H55   S    
C80   H63   S    
C35   H78   S    
C51   C60   A    
C66   H20   S    
Cu1   Cu2   S    
C2    C9    A    
C77   O17   S    
C3    C16   A    
C33   H67   S    
C68   H22   S    
C62   H10   S    
