data_mof_unit_21316.cif
_audit_creation_date              2012-10-26T19:48:10-0400
_audit_creation_method            fapswitch 2.2
_symmetry_space_group_name_H-M    P1
_symmetry_Int_Tables_number       1
_space_group_crystal_system       triclinic
_cell_length_a                    10.762727
_cell_length_b                    9.524094
_cell_length_c                    10.642851
_cell_angle_alpha                 89.636425
_cell_angle_beta                  90.325198
_cell_angle_gamma                 90.104302
_cell_volume                      1090.90654915

loop_
_atom_site_label
_atom_site_type_symbol
_atom_type_description
_atom_site_fract_x
_atom_site_fract_y
_atom_site_fract_z
_atom_type_partial_charge
C1    C     C_R   0.260032 0.499955 0.501076 0.589619
C2    C     C_3   0.925004 0.500474 0.354882 0.198878
C3    C     C_3   0.628676 0.084192 0.519510 0.767195
C4    C     C_3   0.628165 0.916977 0.523836 0.761408
C5    C     C_3   0.428762 0.082068 0.610577 0.263311
C6    C     C_3   0.423347 0.916419 0.606731 0.263831
C7    C     C_3   0.450304 0.082377 0.380472 0.522193
C8    C     C_3   0.455196 0.915028 0.379539 0.546603
C9    C     C_R   0.499356 0.500571 0.260028 0.534909
C10   C     C_R   0.739571 0.499956 0.501420 0.526123
C11   C     C_R   0.500603 0.499389 0.740239 0.590167
C12   C     C_3   0.499619 0.501878 0.123833 -0.040215
C13   C     C_3   0.492987 0.635243 0.040503 -0.087832
C14   C     C_3   0.400454 0.426540 0.043499 -0.063530
C15   C     C_3   0.396439 0.558166 0.957675 0.351358
C16   C     C_3   0.500901 0.497868 0.876916 0.082359
C17   C     C_3   0.596719 0.571048 0.960313 0.013107
C18   C     C_3   0.507317 0.369240 0.963508 0.063440
C19   C     C_3   0.606715 0.440447 0.045808 -0.103090
C20   C     C_3   0.071608 0.620280 0.581756 -0.262309
C21   C     C_3   0.070443 0.361269 0.555950 -0.261894
C22   C     C_3   0.929354 0.628484 0.570669 -0.261231
C23   C     C_3   0.928535 0.368210 0.568544 -0.256796
C24   C     C_3   0.073140 0.520236 0.356898 0.265795
C25   C     C_3   0.121693 0.500216 0.497142 0.038125
C26   C     C_3   0.877446 0.499592 0.496788 0.005221
Cu1   Cu    Cu3+1 0.499860 0.642410 0.500060 1.168268
Cu2   Cu    Cu3+1 0.499860 0.357590 0.500060 1.132688
F1    F     F_    0.288970 0.618069 0.910100 -0.611684
F2    F     F_    0.681631 0.134964 0.629538 -0.622084
F3    F     F_    0.674544 0.871031 0.638884 -0.628636
F4    F     F_    0.705226 0.128225 0.422473 -0.526590
F5    F     F_    0.710264 0.869683 0.433837 -0.530707
F6    F     F_    0.525134 0.126912 0.281874 -0.529486
F7    F     F_    0.538737 0.877473 0.286343 -0.535493
F8    F     F_    0.311582 0.139358 0.621709 -0.598511
F9    F     F_    0.301760 0.870599 0.601964 -0.600601
H1    H     H_    0.475173 0.110851 0.700068 0.189079
H2    H     H_    0.889196 0.630461 0.666879 0.183518
H3    H     H_    0.903920 0.375141 0.669849 0.164739
H4    H     H_    0.902889 0.729768 0.526489 0.211271
H5    H     H_    0.886944 0.268174 0.535942 0.234264
H6    H     H_    0.773442 0.589670 0.259968 0.252190
H7    H     H_    0.863914 0.708805 0.328703 0.282338
H8    H     H_    0.926935 0.279223 0.337123 0.252471
H9    H     H_    0.794590 0.354907 0.289123 0.282281
H10   H     H_    0.260702 0.121863 0.420628 0.266319
H11   H     H_    0.325097 0.233449 0.313350 0.289296
H12   H     H_    0.458993 0.876979 0.698572 0.183859
H13   H     H_    0.261506 0.888292 0.393112 0.254863
H14   H     H_    0.318751 0.873349 0.247873 0.252556
H15   H     H_    0.753259 0.684929 0.990908 0.267280
H16   H     H_    0.669845 0.737015 0.865623 0.290214
H17   H     H_    0.513884 0.160578 0.002244 0.287854
H18   H     H_    0.601923 0.211196 0.880682 0.272636
H19   H     H_    0.090800 0.671586 0.215756 0.280186
H20   H     H_    0.063611 0.741575 0.357338 0.221119
H21   H     H_    0.122904 0.315666 0.302138 0.216360
H22   H     H_    0.099988 0.428902 0.182282 0.275206
H23   H     H_    0.487428 0.745625 0.072634 0.204008
H24   H     H_    0.319901 0.365725 0.079306 0.153477
H25   H     H_    0.693405 0.391893 0.082316 0.164512
H26   H     H_    0.112260 0.723994 0.557818 0.224190
H27   H     H_    0.095856 0.268098 0.500001 0.165855
H28   H     H_    0.098193 0.599768 0.681484 0.189728
H29   H     H_    0.111973 0.344209 0.650900 0.196122
N1    N     N_3   0.500250 0.143650 0.502780 -0.300423
N2    N     N_3   0.135596 0.419333 0.273611 -0.608291
N3    N     N_3   0.500250 0.856350 0.502780 -0.297976
N4    N     N_3   0.866084 0.614279 0.280383 -0.586882
N5    N     N_3   0.891000 0.367538 0.291759 -0.589192
N6    N     N_3   0.324466 0.131402 0.348326 -0.616992
N7    N     N_3   0.336494 0.850034 0.342492 -0.484377
N8    N     N_3   0.703612 0.648448 0.912989 -0.593978
N9    N     N_3   0.514866 0.224286 0.921951 -0.576936
N10   N     N_3   0.110463 0.661107 0.311742 -0.567658
O1    O     O_R   0.317570 0.620260 0.500070 -0.431150
O2    O     O_R   0.317570 0.379740 0.500070 -0.490189
O3    O     O_R   0.499850 0.620240 0.316900 -0.433198
O4    O     O_R   0.499850 0.379760 0.316900 -0.461967
O5    O     O_R   0.682190 0.620260 0.500030 -0.435577
O6    O     O_R   0.682190 0.379740 0.500030 -0.440739
O7    O     O_R   0.499910 0.620280 0.683200 -0.484449
O8    O     O_R   0.499910 0.379720 0.683200 -0.471722

loop_
_geom_bond_atom_site_label_1
_geom_bond_atom_site_label_2
_ccdc_geom_bond_type
C6    N3    S    
C18   N9    S    
H19   N10   S    
C21   H29   S    
Cu2   O8    S    
C1    O1    A    
C14   C18   S    
H16   N8    S    
C5    N1    S    
C7    C8    S    
C13   H23   S    
C8    N3    S    
C23   H5    S    
H20   N10   S    
H15   N8    S    
C5    C6    S    
C22   H4    S    
H8    N5    S    
C20   C25   S    
C19   H25   S    
C23   H3    S    
C5    F8    S    
C18   C19   S    
C9    O3    A    
C23   C26   S    
C21   H27   S    
C16   C17   S    
H7    N4    S    
Cu2   O2    S    
Cu1   N3    S    
H18   N9    S    
C10   C26   S    
C5    H1    S    
C1    C25   S    
C1    O2    A    
H11   N6    S    
C4    N3    S    
C15   F1    S    
C21   C23   S    
Cu2   O6    S    
C20   H28   S    
Cu1   O5    S    
Cu2   N1    S    
C24   C25   S    
H13   N7    S    
C7    N6    S    
C24   N10   S    
C11   O7    A    
C14   H24   S    
C10   O6    A    
C3    C4    S    
C8    F7    S    
C3    F2    S    
H22   N2    S    
C11   C16   S    
C6    F9    S    
C2    C26   S    
H9    N5    S    
H21   N2    S    
C20   C22   S    
H6    N4    S    
C13   C15   S    
C2    C24   S    
C17   N8    S    
C7    F6    S    
C2    N5    S    
C21   C25   S    
C4    F5    S    
C3    N1    S    
H14   N7    S    
C12   C14   S    
Cu1   O1    S    
C11   O8    A    
C10   O5    A    
Cu1   O3    S    
C13   C17   S    
C20   H26   S    
Cu1   O7    S    
C22   H2    S    
C12   C19   S    
C8    N7    S    
C17   C19   S    
C6    H12   S    
C3    F4    S    
Cu2   O4    S    
C9    C12   S    
H10   N6    S    
C4    F3    S    
C24   N2    S    
C7    N1    S    
H17   N9    S    
C12   C13   S    
C16   C18   S    
C22   C26   S    
Cu1   Cu2   S    
C14   C15   S    
C2    N4    S    
C9    O4    A    
C15   C16   S    
