data_mof_unit_16375.cif
_audit_creation_date              2012-12-10T17:51:29-0500
_audit_creation_method            fapswitch 2.2
_symmetry_space_group_name_H-M    P1
_symmetry_Int_Tables_number       1
_space_group_crystal_system       triclinic
_cell_length_a                    9.985992
_cell_length_b                    10.633904
_cell_length_c                    16.805307
_cell_angle_alpha                 91.837496
_cell_angle_beta                  82.587846
_cell_angle_gamma                 90.239522
_cell_volume                      1768.73484851

loop_
_atom_site_label
_atom_site_type_symbol
_atom_type_description
_atom_site_fract_x
_atom_site_fract_y
_atom_site_fract_z
_atom_type_partial_charge
C1    C     C_R   0.500931 0.738996 0.496257 0.948970
C2    C     C_R   0.384618 0.417885 0.782762 -0.092795
C3    C     C_R   0.457025 0.373031 0.143818 0.477122
C4    C     C_R   0.437343 0.403932 0.224965 0.530254
C5    C     C_R   0.663355 0.493163 0.214855 -0.284234
C6    C     C_R   0.680778 0.466964 0.132573 0.668097
C7    C     C_R   0.575890 0.409886 0.096768 -0.329003
C8    C     C_2   0.478797 0.487943 0.986210 -0.318001
C9    C     C_2   0.575073 0.415827 0.010484 0.559714
C10   C     C_R   0.539958 0.465715 0.260939 -0.353578
C11   C     C_R   0.419319 0.867670 0.356118 0.601076
C12   C     C_R   0.479092 0.500885 0.652548 0.841514
C13   C     C_R   0.379856 0.933763 0.292653 -0.180983
C14   C     C_R   0.381305 0.064253 0.294826 -0.133408
C15   C     C_R   0.421744 0.129370 0.360724 -0.053749
C16   C     C_R   0.459278 0.064463 0.426568 0.011211
C17   C     C_R   0.459089 0.932362 0.424581 -0.042068
C18   C     C_R   0.502876 0.871388 0.490474 -0.086762
C19   C     C_R   0.549439 0.937635 0.554214 -0.108343
C20   C     C_R   0.547666 0.066144 0.556165 -0.123004
C21   C     C_R   0.501011 0.128366 0.493807 -0.065091
C22   C     C_R   0.847531 0.691785 0.586253 -0.242342
C23   C     C_R   0.499888 0.260858 0.499756 0.836260
C24   C     C_R   0.917945 0.793853 0.615309 0.532214
C25   C     C_R   0.056429 0.781613 0.619548 0.240258
C26   C     C_R   0.111876 0.660605 0.607768 0.314687
C27   C     C_R   0.061512 0.585528 0.547963 -0.135822
C28   C     C_R   0.919287 0.591121 0.544035 0.002949
C29   C     C_R   0.940891 0.410952 0.456608 0.323510
C30   C     C_R   0.083796 0.414773 0.456230 0.674731
C31   C     C_R   0.521505 0.493017 0.347051 1.063538
C32   C     C_R   0.465056 0.505938 0.738752 0.007467
C33   C     C_R   0.541660 0.594141 0.776980 -0.116229
C34   C     C_R   0.540896 0.592094 0.859291 -0.031788
C35   C     C_R   0.464830 0.500968 0.902677 0.139411
C36   C     C_R   0.383744 0.416057 0.865325 -0.014836
H1    H     H_    0.604181 0.662300 0.742838 0.157470
H2    H     H_    0.583369 0.889396 0.603878 0.187250
H3    H     H_    0.350006 0.883239 0.240807 0.195386
H4    H     H_    0.352594 0.115059 0.244867 0.237723
H5    H     H_    0.425330 0.230578 0.359055 0.194127
H6    H     H_    0.581107 0.117446 0.606848 0.189470
H7    H     H_    0.740224 0.694130 0.598439 0.213919
H8    H     H_    0.744041 0.539262 0.241939 0.233506
H9    H     H_    0.325454 0.345214 0.899498 0.193701
H10   H     H_    0.327704 0.347911 0.753022 0.178953
H11   H     H_    0.406840 0.538928 0.029532 0.183169
H12   H     H_    0.603528 0.657605 0.888674 0.181554
N1    N     N_R   0.857140 0.501200 0.500750 -0.162938
N2    N     N_R   0.142740 0.501280 0.500770 -0.171206
O1    O     O_R   0.385310 0.683220 0.500000 -0.580998
O2    O     O_R   0.614640 0.683250 0.500010 -0.662207
O3    O     O_R   0.371780 0.500010 0.615800 -0.560754
O4    O     O_R   0.601110 0.500030 0.615800 -0.627637
O5    O     O_R   0.385360 0.316750 0.499990 -0.582500
O6    O     O_R   0.614690 0.316780 0.500000 -0.536991
O7    O     O_R   0.398890 0.499970 0.384200 -0.500243
O8    O     O_R   0.628220 0.499990 0.384200 -0.594754
Zn1   Zn    Zn3+2 0.346870 0.499980 0.499990 1.107604
Zn2   Zn    Zn3+2 0.653130 0.500020 0.500010 1.038286
F1    F     F_    0.795215 0.505470 0.087360 -0.567997
F2    F     F_    0.421667 0.741203 0.347876 -0.687612
S1    S     S_3+6 0.880816 0.276605 0.404729 0.116295
O9    O     O_2   0.764821 0.305188 0.360208 -0.308477
O10   O     O_2   0.990740 0.221591 0.344197 -0.179919
O11   O     O_3   0.834808 0.166486 0.472563 -0.505843
H13   H     H_    0.812289 0.091231 0.440599 0.379270
F3    F     F_    0.850072 0.899160 0.644664 -0.595553
F4    F     F_    0.316978 0.374771 0.267526 -0.566960
S2    S     S_3+6 0.146901 0.905439 0.660114 0.111969
O12   O     O_2   0.078786 0.942412 0.742498 -0.190643
O13   O     O_2   0.289477 0.865107 0.665295 -0.320808
O14   O     O_3   0.148113 0.029467 0.600397 -0.481656
H14   H     H_    0.213016 0.089621 0.620428 0.380669
S3    S     S_3+6 0.105419 0.584853 0.700770 0.076286
O15   O     O_2   0.127016 0.445539 0.687760 -0.264270
O16   O     O_2   0.209475 0.639635 0.748876 -0.262442
O17   O     O_3   0.951746 0.606920 0.753543 -0.527736
H15   H     H_    0.955847 0.690495 0.780887 0.391906
F5    F     F_    0.165162 0.326896 0.415034 -0.560647
S4    S     S_3+6 0.699236 0.333895 0.943672 0.120401
O18   O     O_2   0.784852 0.255370 0.990192 -0.199263
O19   O     O_2   0.631688 0.249931 0.887189 -0.281269
O20   O     O_3   0.797595 0.438385 0.890483 -0.482665
H16   H     H_    0.858870 0.386802 0.851478 0.421484
F6    F     F_    0.355735 0.315840 0.109555 -0.587361

loop_
_geom_bond_atom_site_label_1
_geom_bond_atom_site_label_2
_ccdc_geom_bond_type
S1    O10   D    
C16   C21   A    
O5    Zn1   S    
O14   H14   S    
C19   C20   A    
C11   F2    S    
C29   S1    S    
S4    O18   D    
O3    Zn1   S    
C23   O6    A    
C29   N1    A    
C2    H10   S    
C26   C27   A    
N1    Zn2   S    
N2    Zn1   S    
C31   O8    A    
C18   C19   A    
C3    C7    A    
C5    C6    A    
O7    Zn1   S    
O8    Zn2   S    
C15   C16   A    
C2    C32   A    
C34   C35   A    
O2    Zn2   S    
C10   C31   S    
C35   C36   A    
C16   C17   A    
S2    O12   D    
C12   O3    A    
C27   N2    A    
C30   F5    S    
O11   H13   S    
C30   N2    A    
S1    O11   S    
C22   C28   A    
C13   C14   A    
C12   C32   S    
C3    F6    S    
C4    F4    S    
S4    O19   D    
C26   S3    S    
O20   H16   S    
C15   H5    S    
O17   H15   S    
C8    C9    D    
O4    Zn2   S    
S3    O17   S    
C33   H1    S    
O6    Zn2   S    
C8    C35   S    
S3    O15   D    
C29   C30   A    
C19   H2    S    
S3    O16   D    
C28   N1    A    
C22   H7    S    
S2    O14   S    
C17   C18   A    
C1    C18   S    
C36   H9    S    
C24   C25   A    
C1    O1    A    
C5    H8    S    
C21   C23   S    
C22   C24   A    
O1    Zn1   S    
C4    C10   A    
C3    C4    A    
S4    O20   S    
C6    F1    S    
C2    C36   A    
C7    C9    S    
C11   C17   A    
C20   H6    S    
C23   O5    A    
C6    C7    A    
C32   C33   A    
C31   O7    A    
C25   C26   A    
C8    H11   S    
C5    C10   A    
C11   C13   A    
C33   C34   A    
C1    O2    A    
C13   H3    S    
C24   F3    S    
C14   H4    S    
S1    O9    D    
C34   H12   S    
C20   C21   A    
C27   C28   A    
C14   C15   A    
S2    O13   D    
C25   S2    S    
C12   O4    A    
C9    S4    S    
