data_mof_unit_63401.cif
_audit_creation_date              2013-03-05T16:06:09-0500
_audit_creation_method            fapswitch 2.2
_symmetry_space_group_name_H-M    P1
_symmetry_Int_Tables_number       1
_space_group_crystal_system       triclinic
_cell_length_a                    16.109343
_cell_length_b                    16.120021
_cell_length_c                    16.111914
_cell_angle_alpha                 95.948299
_cell_angle_beta                  84.385105
_cell_angle_gamma                 90.181643
_cell_volume                      4141.39257872

loop_
_atom_site_label
_atom_site_type_symbol
_atom_site_description
_atom_site_fract_x
_atom_site_fract_y
_atom_site_fract_z
_atom_type_partial_charge
Zn1   Zn    Zn3+2 0.430930 0.430930 0.430910 1.053585
Zn2   Zn    Zn3+2 0.575680 0.561790 0.430230 1.023734
Zn3   Zn    Zn3+2 0.562480 0.430910 0.562480 1.043955
Zn4   Zn    Zn3+2 0.430910 0.576380 0.576380 1.019187
O1    O     O_3   0.500000 0.500000 0.500000 -0.513678
O2    O     O_R   0.458120 0.689530 0.559970 -0.622058
O3    O     O_R   0.445170 0.315580 0.445130 -0.625288
O4    O     O_R   0.559480 0.536070 0.314410 -0.627915
O5    O     O_R   0.537220 0.458810 0.680490 -0.612283
O6    O     O_R   0.689040 0.536050 0.444000 -0.631512
O7    O     O_R   0.315570 0.560650 0.560630 -0.639898
O8    O     O_R   0.679800 0.444450 0.536560 -0.620013
O9    O     O_R   0.315590 0.458850 0.458810 -0.602140
O10   O     O_R   0.458170 0.444480 0.314880 -0.613923
O11   O     O_R   0.445130 0.560630 0.690220 -0.629932
O12   O     O_R   0.559450 0.679320 0.457680 -0.630384
O13   O     O_R   0.537250 0.315570 0.537220 -0.608049
C1    C     C_R   0.510725 0.724164 0.510790 0.835855
C2    C     C_R   0.489262 0.275854 0.489236 0.825332
C3    C     C_R   0.510722 0.488104 0.274673 0.841269
C4    C     C_R   0.489329 0.511944 0.725307 0.819573
C5    C     C_R   0.724167 0.488147 0.488091 0.831641
C6    C     C_R   0.275803 0.511779 0.511888 0.832845
C7    C     C_1   0.813380 0.483230 0.482560 -0.087419
C8    C     C_2   0.978830 0.476669 0.469705 0.283017
C9    C     C_2   0.021955 0.530152 0.520539 -0.019600
C10   C     C_1   0.111930 0.522831 0.517949 0.096428
C11   C     C_1   0.888450 0.479838 0.477087 -0.037916
C12   C     C_1   0.186752 0.517518 0.515534 -0.091436
C13   C     C_1   0.515158 0.813282 0.515263 -0.052446
C14   C     C_2   0.523624 0.978250 0.523443 0.166690
C15   C     C_2   0.476294 0.021791 0.476894 0.166254
C16   C     C_1   0.481141 0.111805 0.481346 0.074072
C17   C     C_1   0.518814 0.888230 0.518929 0.072512
C18   C     C_1   0.484818 0.186746 0.484916 -0.040173
C19   C     C_1   0.514847 0.482807 0.185017 -0.043650
C20   C     C_2   0.519188 0.469469 0.019123 0.167398
C21   C     C_2   0.468635 0.517860 0.980649 0.167691
C22   C     C_1   0.477082 0.516654 0.890220 0.067099
C23   C     C_1   0.517179 0.477374 0.109653 0.076014
C24   C     C_1   0.483105 0.515046 0.814920 -0.050299
C25   C     C_3   0.975967 0.594186 0.585162 -0.451953
C26   C     C_3   0.033113 0.656628 0.630403 -0.333071
C27   C     C_3   0.982374 0.720366 0.691421 -0.761039
H1    H     H_    0.940746 0.756581 0.657292 0.267945
H2    H     H_    0.944115 0.688509 0.739640 0.266175
H3    H     H_    0.025208 0.764277 0.723367 0.265500
H4    H     H_    0.075370 0.622837 0.666167 0.237853
H5    H     H_    0.071565 0.690243 0.583627 0.244966
H6    H     H_    0.932152 0.630087 0.553012 0.221184
H7    H     H_    0.938720 0.560353 0.632626 0.221691
N1    N     N_R   0.019854 0.415293 0.407569 0.227978
O14   O     O_R   0.979454 0.349124 0.381487 -0.316236
O15   O     O_R   0.091788 0.430416 0.368038 -0.337716
N2    N     N_R   0.418746 0.981229 0.422633 0.218222
O16   O     O_R   0.398264 0.017371 0.358908 -0.311678
O17   O     O_R   0.377430 0.915608 0.442959 -0.362944
N3    N     N_R   0.581149 0.018810 0.577732 0.217823
O18   O     O_R   0.601629 0.982648 0.641446 -0.326132
O19   O     O_R   0.622418 0.084481 0.557472 -0.347303
N4    N     N_R   0.407256 0.574100 0.027500 0.217326
O20   O     O_R   0.382317 0.638661 0.994150 -0.322206
O21   O     O_R   0.367320 0.555082 0.097094 -0.349039
N5    N     N_R   0.578391 0.410973 0.972210 0.216318
O22   O     O_R   0.644009 0.389108 0.006058 -0.324938
O23   O     O_R   0.561418 0.370275 0.901895 -0.342865

loop_
_geom_bond_atom_site_label_1
_geom_bond_atom_site_label_2
_geom_bond_distance
_ccdc_geom_bond_type
N2    O16   1.301529 A    
C20   C21   1.363452 D    
C1    C13   1.432811 S    
O8    C5    1.272180 A    
C10   C12   1.205186 T    
Zn2   O12   1.913183 S    
C26   H4    1.111888 S    
C15   N2    1.444833 S    
C14   C15   1.364139 D    
C27   H3    1.110405 S    
O11   C4    1.271518 A    
C25   H7    1.112148 S    
C26   C27   1.526122 S    
C21   N4    1.444700 S    
C15   C16   1.447587 S    
Zn3   O1    1.924736 S    
Zn4   O11   1.913179 S    
N3    O18   1.301524 A    
C8    N1    1.444745 S    
C22   C24   1.205198 T    
N5    O23   1.301577 A    
C2    C18   1.432783 S    
C27   H1    1.110885 S    
Zn4   O7    1.912325 S    
O5    C4    1.271707 A    
C9    C10   1.450780 S    
O4    C3    1.271474 A    
C25   H6    1.112519 S    
Zn3   O5    1.911956 S    
C6    C12   1.432886 S    
C14   N3    1.444845 S    
O7    C6    1.270738 A    
C16   C18   1.204998 T    
O9    C6    1.270870 A    
N1    O15   1.301506 A    
Zn3   O13   1.912723 S    
C20   C23   1.448132 S    
O3    C2    1.271059 A    
N2    O17   1.301494 A    
N4    O20   1.301562 A    
O2    C1    1.270832 A    
Zn1   O1    1.922111 S    
C14   C17   1.447618 S    
Zn2   O1    1.923102 S    
Zn1   O9    1.912308 S    
C25   C26   1.537966 S    
C13   C17   1.205012 T    
N3    O19   1.301504 A    
Zn2   O6    1.912955 S    
O10   C3    1.270512 A    
Zn1   O10   1.912763 S    
C19   C23   1.205227 T    
C20   N5    1.444635 S    
C21   C22   1.448115 S    
N1    O14   1.301575 A    
C9    C25   1.526296 S    
O12   C1    1.270772 A    
Zn4   O2    1.913413 S    
C4    C24   1.433154 S    
C5    C7    1.433136 S    
N4    O21   1.301538 A    
C26   H5    1.111973 S    
Zn3   O8    1.912007 S    
O13   C2    1.271392 A    
C8    C9    1.363064 D    
Zn1   O3    1.914141 S    
O6    C5    1.271332 A    
Zn2   O4    1.912203 S    
C7    C11   1.204894 T    
C27   H2    1.110906 S    
Zn4   O1    1.922445 S    
C8    C11   1.449801 S    
N5    O22   1.301547 A    
C3    C19   1.433204 S    
