data_mof_unit_35433.cif
_audit_creation_date              2013-03-05T16:43:42-0500
_audit_creation_method            fapswitch 2.2
_symmetry_space_group_name_H-M    P1
_symmetry_Int_Tables_number       1
_space_group_crystal_system       triclinic
_cell_length_a                    15.728715
_cell_length_b                    10.676024
_cell_length_c                    9.860323
_cell_angle_alpha                 90.063304
_cell_angle_beta                  89.9963
_cell_angle_gamma                 90.002636
_cell_volume                      1655.74579126

loop_
_atom_site_label
_atom_site_type_symbol
_atom_site_description
_atom_site_fract_x
_atom_site_fract_y
_atom_site_fract_z
_atom_type_partial_charge
O1    O     O_R   0.500010 0.316790 0.614690 -0.617171
O2    O     O_R   0.500000 0.316760 0.385350 -0.621952
C1    C     C_R   0.497180 0.259930 0.499984 0.886975
O3    O     O_R   0.376780 0.500010 0.614650 -0.616009
O4    O     O_R   0.376770 0.499970 0.385310 -0.617963
C2    C     C_R   0.337901 0.499776 0.499995 0.903525
Zn1   Zn    Zn3+2 0.500010 0.500020 0.653130 0.956610
Zn2   Zn    Zn3+2 0.499990 0.499980 0.346870 0.952783
O5    O     O_R   0.500000 0.683240 0.614650 -0.622925
O6    O     O_R   0.499990 0.683210 0.385310 -0.629777
O7    O     O_R   0.623230 0.500030 0.614690 -0.605734
O8    O     O_R   0.623220 0.499990 0.385350 -0.610170
C3    C     C_R   0.497243 0.740109 0.500043 0.875899
C4    C     C_R   0.662101 0.500008 0.500022 0.909264
C5    C     C_3   0.973231 0.389720 0.553552 0.371458
C6    C     C_3   0.028798 0.397645 0.426017 -0.221666
H1    H     H_    0.053521 0.317220 0.366427 0.163833
H2    H     H_    0.946994 0.515049 0.267840 0.163300
C7    C     C_1   0.249020 0.498300 0.500092 -0.185855
C8    C     C_1   0.750992 0.498592 0.500101 -0.147194
C9    C     C_3   0.028813 0.484453 0.629891 -0.224544
C10   C     C_3   0.082961 0.495352 0.500885 0.146225
C11   C     C_3   0.971979 0.592253 0.575671 -0.206853
C12   C     C_3   0.917123 0.495057 0.501091 0.088093
C13   C     C_3   0.028150 0.603306 0.447120 -0.122442
C14   C     C_3   0.971946 0.505825 0.372673 -0.212610
C15   C     C_1   0.173756 0.496840 0.500383 -0.033954
C16   C     C_1   0.826261 0.496943 0.500467 0.016954
H3    H     H_    0.053090 0.691641 0.403105 0.151967
H4    H     H_    0.947049 0.671912 0.636235 0.168441
H5    H     H_    0.053543 0.474032 0.734730 0.161430
C17   C     C_R   0.480881 0.064128 0.622919 0.120804
C18   C     C_R   0.482961 0.128655 0.500338 -0.098278
C19   C     C_R   0.468238 0.064650 0.378273 -0.217661
H6    H     H_    0.463020 0.113420 0.282358 0.166689
C20   C     C_R   0.468276 0.935142 0.378336 -0.219604
H7    H     H_    0.463024 0.886114 0.282440 0.170969
C21   C     C_R   0.483045 0.871443 0.500467 -0.098672
C22   C     C_R   0.480889 0.936331 0.623006 0.142497
C23   C     C_3   0.538843 0.929523 0.742993 -0.489415
C24   C     C_3   0.538907 0.071530 0.742782 -0.456131
H8    H     H_    0.506723 0.888938 0.833256 0.201458
H9    H     H_    0.601831 0.888038 0.718204 0.208521
H10   H     H_    0.506988 0.112735 0.832990 0.198630
H11   H     H_    0.601914 0.112740 0.717663 0.223871
C25   C     C_R   0.466850 0.400981 0.071093 0.218693
N1    N     N_R   0.499430 0.499140 0.142800 -0.107032
C26   C     C_R   0.539822 0.591928 0.072091 -0.125049
H12   H     H_    0.570635 0.667361 0.126457 0.150067
C27   C     C_R   0.539927 0.591834 0.928088 -0.122802
H13   H     H_    0.571034 0.666946 0.873892 0.146632
N2    N     N_R   0.499430 0.499180 0.857150 -0.105773
C28   C     C_R   0.466837 0.401029 0.928556 0.214432
C29   C     C_3   0.377458 0.355000 0.922619 -0.501733
C30   C     C_3   0.377433 0.354958 0.076699 -0.509604
H14   H     H_    0.333119 0.424884 0.878126 0.226359
H15   H     H_    0.373168 0.259543 0.878023 0.201866
H16   H     H_    0.333068 0.424799 0.121385 0.226111
H17   H     H_    0.373078 0.259448 0.120878 0.197054
N3    N     N_R   0.944037 0.272073 0.612172 0.204899
O9    O     O_R   0.999275 0.189780 0.653107 -0.391505
O10   O     O_R   0.863280 0.248416 0.623994 -0.396230

loop_
_geom_bond_atom_site_label_1
_geom_bond_atom_site_label_2
_geom_bond_distance
_ccdc_geom_bond_type
C25   C30   1.490793 S    
O4    Zn2   1.974784 S    
C27   N2    1.368186 A    
C11   C12   1.536327 S    
O6    C3    1.284213 A    
C23   C24   1.516075 S    
C30   H17   1.111373 S    
C7    C15   1.183918 T    
C5    N3    1.457396 S    
N1    C26   1.368371 A    
H2    C14   1.110187 S    
Zn2   O8    1.975063 S    
C17   C18   1.392274 A    
C23   H9    1.112294 S    
C26   C27   1.419923 A    
O2    C1    1.284223 A    
Zn2   N1    2.012226 S    
O1    Zn1   1.992139 S    
C28   C29   1.490332 S    
C20   C21   1.403038 A    
Zn1   O7    1.974782 S    
C2    C7    1.398071 S    
C9    H5    1.110236 S    
C3    C21   1.419813 S    
C21   C22   1.392526 A    
C20   H7    1.083429 S    
O3    Zn1   1.975062 S    
C6    C14   1.552952 S    
C25   C28   1.405458 A    
C23   H8    1.111707 S    
C26   H12   1.081592 S    
O7    C4    1.285342 A    
C12   C14   1.536338 S    
Zn1   N2    2.011753 S    
C18   C19   1.402645 A    
C19   C20   1.382623 A    
C10   C15   1.428183 S    
C11   C13   1.549632 S    
C9    C11   1.552722 S    
C13   H3    1.110171 S    
O4    C2    1.285475 A    
C24   H10   1.111683 S    
C29   H14   1.111884 S    
C17   C22   1.364363 A    
O3    C2    1.285361 A    
C6    H1    1.110207 S    
C1    C18   1.419221 S    
C17   C24   1.495319 S    
C5    C6    1.533789 S    
C11   H4    1.110186 S    
C4    C8    1.398233 S    
C5    C9    1.533647 S    
O5    C3    1.284150 A    
N2    C28   1.363120 A    
N3    O10   1.300307 A    
C19   H6    1.083232 S    
C25   N1    1.363482 A    
C30   H16   1.111899 S    
C22   C23   1.495414 S    
Zn1   O5    1.992933 S    
C24   H11   1.112291 S    
C29   C30   1.519273 S    
C5    C12   1.520694 S    
C6    C10   1.535291 S    
C8    C16   1.184024 T    
C27   H13   1.081144 S    
C13   C14   1.549742 S    
C9    C10   1.535310 S    
C10   C13   1.534300 S    
Zn2   O6    1.992139 S    
O2    Zn2   1.992931 S    
C12   C16   1.429298 S    
O8    C4    1.285518 A    
N3    O9    1.300204 A    
O1    C1    1.283823 A    
C29   H15   1.111537 S    
