data_mof_unit_37341.cif
_audit_creation_date              2013-03-05T15:46:21-0500
_audit_creation_method            fapswitch 2.2
_symmetry_space_group_name_H-M    P1
_symmetry_Int_Tables_number       1
_space_group_crystal_system       triclinic
_cell_length_a                    11.008318
_cell_length_b                    10.980264
_cell_length_c                    18.768373
_cell_angle_alpha                 90.485811
_cell_angle_beta                  90.692828
_cell_angle_gamma                 59.1791
_cell_volume                      1948.07421965

loop_
_atom_site_label
_atom_site_type_symbol
_atom_site_description
_atom_site_fract_x
_atom_site_fract_y
_atom_site_fract_z
_atom_type_partial_charge
O1    O     O_R   0.748800 0.497470 0.428000 -0.528899
O2    O     O_R   0.476420 0.724060 0.429470 -0.511000
C1    C     C_R   0.359239 0.769814 0.397110 0.541988
O3    O     O_R   0.264580 0.744340 0.416750 -0.503534
O4    O     O_R   0.309380 0.472470 0.418200 -0.492884
C2    C     C_R   0.381928 0.351311 0.390112 0.540639
O5    O     O_R   0.501710 0.260430 0.414300 -0.536203
O6    O     O_R   0.728090 0.305600 0.428960 -0.502167
C3    C     C_R   0.780471 0.376225 0.403995 0.529729
O7    O     O_R   0.738760 0.495930 0.588610 -0.524190
O8    O     O_R   0.467110 0.722640 0.578360 -0.507577
C4    C     C_R   0.345696 0.767429 0.605148 0.548262
O9    O     O_R   0.254530 0.742800 0.577360 -0.523060
O10   O     O_R   0.300070 0.471040 0.567100 -0.511960
C5    C     C_R   0.368624 0.350696 0.595330 0.544864
O11   O     O_R   0.491670 0.258900 0.574910 -0.518759
O12   O     O_R   0.718780 0.304180 0.577850 -0.504207
C6    C     C_R   0.768001 0.373735 0.609303 0.545240
Cr1   Cr    Cr6+3 0.601770 0.606860 0.505860 1.001952
Cr2   Cr    Cr6+3 0.291380 0.601660 0.495070 1.022554
Cr3   Cr    Cr6+3 0.606880 0.291510 0.499120 1.009710
O13   O     O_3   0.500010 0.500010 0.500020 -0.245253
C7    C     C_R   0.794005 0.755186 0.156971 -0.139849
C8    C     C_R   0.766955 0.872370 0.116937 -0.071238
C9    C     C_R   0.659938 0.009198 0.137007 0.292373
C10   C     C_R   0.562670 0.027670 0.191045 0.018415
H1    H     H_    0.535390 0.118403 0.318965 0.137654
C11   C     C_R   0.327823 0.277122 0.175508 0.038894
C12   C     C_R   0.446024 0.197112 0.288112 -0.149658
C13   C     C_R   0.443264 0.170318 0.216450 0.003195
C14   C     C_R   0.085664 0.694496 0.279652 -0.070137
C15   C     C_R   0.975464 0.822585 0.306200 -0.088943
C16   C     C_R   0.598626 0.907761 0.233092 -0.153871
C17   C     C_R   0.714732 0.774051 0.217270 -0.128690
C18   C     C_R   0.225019 0.404292 0.207716 -0.147926
C19   C     C_R   0.230303 0.428919 0.279797 -0.036416
C20   C     C_R   0.892729 0.822975 0.362102 -0.110661
C21   C     C_R   0.920953 0.694952 0.392051 -0.106689
C22   C     C_R   0.031936 0.566523 0.366134 -0.053870
C23   C     C_R   0.115413 0.565062 0.309618 0.050187
C24   C     C_R   0.344710 0.324232 0.320004 0.000273
H2    H     H_    0.741966 0.684355 0.251285 0.138291
H3    H     H_    0.954701 0.921529 0.283604 0.119332
H4    H     H_    0.882339 0.651446 0.144029 0.146205
H5    H     H_    0.840243 0.857899 0.075136 0.146488
H6    H     H_    0.148593 0.696226 0.236166 0.132751
H7    H     H_    0.537856 0.918555 0.279994 0.127983
H8    H     H_    0.135905 0.484271 0.177200 0.133749
H9    H     H_    0.807008 0.922442 0.382260 0.111020
H10   H     H_    0.857198 0.695202 0.435574 0.118692
H11   H     H_    0.053903 0.468687 0.390775 0.102122
C25   C     C_R   0.977515 0.293036 0.318583 -0.147544
H12   H     H_    0.053787 0.262897 0.361664 0.097929
C26   C     C_R   0.021576 0.278765 0.248207 -0.175435
H13   H     H_    0.132669 0.232230 0.237536 0.093540
C27   C     C_R   0.923591 0.316688 0.192182 0.042449
C28   C     C_R   0.780541 0.374737 0.206856 -0.063147
H14   H     H_    0.703505 0.410167 0.164036 0.200639
C29   C     C_R   0.738361 0.378046 0.276463 -0.147931
H15   H     H_    0.628664 0.412780 0.286865 0.129450
C30   C     C_R   0.835594 0.342494 0.332518 0.025059
C31   C     C_R   0.465179 0.725256 0.279489 -0.144681
H16   H     H_    0.562151 0.640722 0.301587 0.129206
C32   C     C_R   0.452987 0.748210 0.206245 -0.133897
H17   H     H_    0.538227 0.678694 0.171057 0.133760
C33   C     C_R   0.331580 0.865336 0.179914 0.035304
C34   C     C_R   0.216795 0.947368 0.225340 -0.144398
H18   H     H_    0.115834 0.026999 0.204019 0.166741
C35   C     C_R   0.227302 0.922420 0.297436 -0.155777
H19   H     H_    0.136900 0.984698 0.331346 0.123614
C36   C     C_R   0.352747 0.812945 0.324721 0.030657
C37   C     C_R   0.378592 0.199484 0.692724 -0.137030
H20   H     H_    0.439654 0.105282 0.660473 0.130600
C38   C     C_R   0.366406 0.185657 0.764722 -0.123286
H21   H     H_    0.414233 0.079567 0.786441 0.157420
C39   C     C_R   0.297228 0.306798 0.808509 0.021815
C40   C     C_R   0.228987 0.442032 0.778962 -0.149148
H22   H     H_    0.172033 0.535663 0.812057 0.138118
C41   C     C_R   0.239830 0.456009 0.706362 -0.132017
H23   H     H_    0.194180 0.561882 0.684698 0.147432
C42   C     C_R   0.320702 0.334499 0.663891 0.026064
C43   C     C_R   0.908137 0.391542 0.707539 -0.111535
H24   H     H_    0.923090 0.466315 0.677191 0.138645
C44   C     C_R   0.945353 0.373078 0.778883 -0.096702
H25   H     H_    0.988138 0.433787 0.802141 0.150622
C45   C     C_R   0.919631 0.284199 0.820963 0.024913
C46   C     C_R   0.865109 0.205521 0.789664 -0.128361
H26   H     H_    0.845787 0.135103 0.821179 0.148052
C47   C     C_R   0.826094 0.225119 0.717882 -0.135848
H27   H     H_    0.775163 0.171067 0.695550 0.140763
C48   C     C_R   0.841823 0.323216 0.677421 0.021709
C49   C     C_R   0.196237 0.858791 0.710947 -0.156184
H28   H     H_    0.103017 0.884368 0.679437 0.142645
C50   C     C_R   0.185445 0.868584 0.784064 -0.180020
H29   H     H_    0.081899 0.908727 0.806929 0.145704
C51   C     C_R   0.304122 0.835452 0.826691 0.018494
C52   C     C_R   0.437790 0.783321 0.795351 0.185960
C53   C     C_R   0.446833 0.775820 0.721360 -0.127725
H30   H     H_    0.549820 0.732608 0.697207 0.176427
C54   C     C_R   0.326748 0.812224 0.679091 -0.018612
O14   O     O_R   0.186690 0.923650 0.086970 -0.507139
O15   O     O_R   0.957250 0.194250 0.084630 -0.381942
C55   C     C_R   0.970418 0.291726 0.118614 0.519710
O16   O     O_R   0.934970 0.407490 0.085330 -0.528364
O17   O     O_R   0.203780 0.365190 0.067090 -0.511874
C56   C     C_R   0.303971 0.256035 0.101584 0.548954
O18   O     O_R   0.417600 0.174890 0.067840 -0.450886
O19   O     O_R   0.375320 0.946260 0.070860 -0.515003
C57   C     C_R   0.307255 0.898353 0.105051 0.536486
O20   O     O_R   0.160600 0.919630 0.926660 -0.532326
O21   O     O_R   0.933060 0.190520 0.936020 -0.460662
C58   C     C_R   0.947902 0.280184 0.897214 0.561044
O22   O     O_R   0.908880 0.403460 0.925020 -0.444396
O23   O     O_R   0.179600 0.361450 0.918490 -0.525134
C59   C     C_R   0.292553 0.285203 0.883857 0.556460
O24   O     O_R   0.391510 0.170860 0.907530 -0.488324
O25   O     O_R   0.351130 0.942530 0.922260 -0.468962
C60   C     C_R   0.276942 0.891357 0.898761 0.569279
Cr4   Cr    Cr6+3 0.062440 0.063090 0.008210 1.104144
Cr5   Cr    Cr6+3 0.062880 0.375170 0.998920 1.039685
Cr6   Cr    Cr6+3 0.374700 0.061720 0.992470 1.087161
O26   O     O_3   0.166667 0.166667 0.999870 -0.356642
N1    N     N_R   0.564423 0.734402 0.837625 0.086456
O27   O     O_R   0.672564 0.736551 0.811867 -0.363316
O28   O     O_R   0.578766 0.671334 0.898203 -0.293096
S1    S     S_3+6 0.693368 0.143587 0.115366 0.023721
O29   O     O_2   0.734311 0.132546 0.038448 -0.226957
O30   O     O_2   0.572331 0.290229 0.130770 -0.298669
O31   O     O_3   0.832327 0.106602 0.167697 -0.547749
H31   H     H_    0.797547 0.113188 0.216806 0.318970

loop_
_geom_bond_atom_site_label_1
_geom_bond_atom_site_label_2
_geom_bond_distance
_ccdc_geom_bond_type
C22   H11   1.079784 S    
C46   H26   1.082710 S    
O11   Cr3   2.068262 S    
H1    C12   1.083293 S    
C45   C58   1.457083 S    
O21   C58   1.306272 A    
C17   H2    1.082086 S    
O19   Cr6   1.947927 S    
O20   C60   1.271561 A    
C52   C53   1.392171 A    
N1    O27   1.301670 A    
C5    C42   1.442985 S    
O4    Cr2   1.953753 S    
C40   H22   1.083492 S    
C14   C23   1.405556 A    
O8    Cr1   1.937393 S    
C20   C21   1.396496 A    
C38   C39   1.408273 A    
C3    C30   1.444310 S    
C8    H5    1.083268 S    
C51   C60   1.450340 S    
C44   C45   1.399270 A    
C25   C30   1.393622 A    
C21   C22   1.398268 A    
C28   C29   1.385721 A    
C56   O18   1.275604 A    
O14   C57   1.251697 A    
C59   O24   1.247667 A    
C39   C59   1.441756 S    
O19   C57   1.292734 A    
O21   Cr4   1.940471 S    
C35   C36   1.380763 A    
O25   Cr6   1.956264 S    
C31   C32   1.392137 A    
C18   C19   1.383724 A    
C11   C18   1.406734 A    
Cr5   O26   1.966462 S    
O6    C3    1.274493 A    
C14   H6    1.083423 S    
C7    C8    1.388245 A    
O17   Cr5   1.958321 S    
C47   C48   1.405351 A    
C37   C42   1.390653 A    
C33   C34   1.407699 A    
C29   H15   1.083667 S    
Cr3   O13   1.966094 S    
C19   C24   1.408964 A    
O15   C55   1.310944 A    
C18   H8    1.083398 S    
C58   O22   1.298735 A    
C25   C26   1.392318 A    
O12   C6    1.278297 A    
C39   C40   1.391981 A    
C40   C41   1.385896 A    
C26   C27   1.400806 A    
C29   C30   1.398738 A    
O1    Cr1   2.057460 S    
C38   H21   1.083850 S    
C34   H18   1.076692 S    
O14   Cr4   2.060015 S    
O10   Cr2   1.944982 S    
C19   C23   1.487641 S    
Cr1   O13   1.996240 S    
O1    C3    1.270783 A    
C8    C9    1.405137 A    
C37   C38   1.376867 A    
O24   Cr6   2.068472 S    
C11   C56   1.447601 S    
C22   C23   1.406406 A    
C41   C42   1.410679 A    
C45   C46   1.402088 A    
S1    O31   1.674346 S    
C9    C10   1.420036 A    
O5    Cr3   2.083785 S    
C2    C24   1.446658 S    
O12   Cr3   1.961701 S    
C43   C48   1.399758 A    
C34   C35   1.374560 A    
C32   C33   1.384886 A    
C1    C36   1.431487 S    
C9    S1    1.745894 S    
C12   C13   1.377650 A    
O22   Cr5   2.074852 S    
C20   H9    1.082571 S    
C10   C16   1.410319 A    
C14   C15   1.397291 A    
O7    Cr1   2.064715 S    
C7    C17   1.385603 A    
C51   C52   1.411021 A    
C31   H16   1.074056 S    
C49   C50   1.377386 A    
C16   C17   1.398648 A    
C15   C20   1.396190 A    
C44   H25   1.080998 S    
C50   C51   1.404205 A    
Cr6   O26   1.972946 S    
Cr2   O13   1.974569 S    
C10   C13   1.516987 S    
C53   C54   1.405404 A    
C46   C47   1.393570 A    
C16   H7    1.080591 S    
C27   C28   1.393160 A    
C6    C48   1.458609 S    
C1    O3    1.268722 A    
C25   H12   1.082424 S    
C49   C54   1.394935 A    
O31   H31   0.990130 S    
Cr4   O26   1.994716 S    
C26   H13   1.077343 S    
S1    O30   1.501510 D    
O9    Cr2   2.069295 S    
C12   C24   1.398999 A    
O2    Cr1   1.944100 S    
C27   C55   1.453737 S    
C37   H20   1.083919 S    
O6    Cr3   1.948271 S    
O20   Cr4   2.060705 S    
O8    C4    1.272611 A    
O23   C59   1.270092 A    
C2    O5    1.259143 A    
C21   H10   1.082439 S    
O17   C56   1.308974 A    
C43   C44   1.381356 A    
C32   H17   1.082481 S    
C11   C13   1.430123 A    
O2    C1    1.267845 A    
C52   N1    1.440307 S    
O25   C60   1.278481 A    
C28   H14   1.080345 S    
O4    C2    1.262986 A    
O7    C6    1.271986 A    
S1    O29   1.502886 D    
C49   H28   1.083751 S    
C15   H3    1.078628 S    
C31   C36   1.403569 A    
C33   C57   1.441319 S    
C50   H29   1.082368 S    
C35   H19   1.083335 S    
C4    C54   1.449737 S    
N1    O28   1.301589 A    
C7    H4    1.080789 S    
C41   H23   1.083392 S    
O3    Cr2   2.063283 S    
C4    O9    1.270971 A    
C53   H30   1.083286 S    
C55   O16   1.287458 A    
O18   Cr6   2.079320 S    
O10   C5    1.255667 A    
C43   H24   1.083638 S    
C47   H27   1.083210 S    
O23   Cr5   1.948602 S    
O15   Cr4   1.941233 S    
C5    O11   1.266705 A    
O16   Cr5   2.066926 S    
