data_mof_unit_5287.cif
_audit_creation_date              2012-12-10T17:04:31-0500
_audit_creation_method            fapswitch 2.2
_symmetry_space_group_name_H-M    P1
_symmetry_Int_Tables_number       1
_space_group_crystal_system       triclinic
_cell_length_a                    14.886787
_cell_length_b                    10.810609
_cell_length_c                    10.027658
_cell_angle_alpha                 89.346138
_cell_angle_beta                  89.952939
_cell_angle_gamma                 90.796337
_cell_volume                      1613.54176165

loop_
_atom_site_label
_atom_site_type_symbol
_atom_type_description
_atom_site_fract_x
_atom_site_fract_y
_atom_site_fract_z
_atom_type_partial_charge
C1    C     C_R   0.495790 0.262414 0.500759 0.887512
C2    C     C_R   0.185991 0.385520 0.484732 -0.251456
C3    C     C_R   0.232031 0.497111 0.500578 -0.035883
C4    C     C_R   0.327182 0.498266 0.500101 0.880433
C5    C     C_R   0.188131 0.607677 0.519143 -0.237864
C6    C     C_2   0.488529 0.933764 0.389404 -0.180920
C7    C     C_2   0.512081 0.868516 0.496985 -0.338318
C8    C     C_2   0.495665 0.067098 0.392134 -0.250152
C9    C     C_2   0.475922 0.131643 0.502000 0.070681
C10   C     C_2   0.551484 0.572317 0.924015 -0.123097
C11   C     C_2   0.547859 0.576903 0.074006 -0.127308
C12   C     C_R   0.908126 0.610973 0.521403 0.116234
C13   C     C_R   0.502616 0.737230 0.499175 0.915646
C14   C     C_R   0.672812 0.501524 0.499940 0.876253
C15   C     C_R   0.814728 0.611028 0.519271 -0.251189
C16   C     C_R   0.767948 0.501014 0.500028 -0.067627
C17   C     C_R   0.811014 0.389693 0.482963 -0.219938
C18   C     C_R   0.904332 0.386395 0.484767 0.048658
C19   C     C_R   0.953205 0.497794 0.502948 -0.041201
C20   C     C_3   0.458775 0.082097 0.742393 -0.764894
C21   C     C_3   0.886396 0.112289 0.333578 -0.786582
C22   C     C_3   0.890930 0.862151 0.694257 -0.817991
C23   C     C_R   0.948960 0.273730 0.471432 0.201352
C24   C     C_R   0.043116 0.271288 0.473185 0.027263
C25   C     C_R   0.092323 0.383166 0.486461 0.053170
C26   C     C_R   0.046857 0.496222 0.503099 0.025226
C27   C     C_R   0.095337 0.608246 0.520160 0.117108
C28   C     C_R   0.050802 0.719303 0.538199 -0.293923
C29   C     C_R   0.957326 0.721329 0.540296 0.208207
H1    H     H_    0.777637 0.695761 0.531654 0.162092
H2    H     H_    0.226505 0.692854 0.532097 0.127441
H3    H     H_    0.088598 0.804784 0.551582 0.151016
H4    H     H_    0.467549 0.889762 0.297429 0.180493
H5    H     H_    0.378586 0.008678 0.587384 0.239889
H6    H     H_    0.456674 0.987079 0.785751 0.222675
H7    H     H_    0.417628 0.142927 0.805746 0.248307
H8    H     H_    0.529763 0.115403 0.743528 0.246161
H9    H     H_    0.917943 0.098114 0.536268 0.239490
H10   H     H_    0.951858 0.083391 0.291774 0.250342
H11   H     H_    0.855867 0.182672 0.266601 0.248510
H12   H     H_    0.538872 0.912258 0.585528 0.182074
H13   H     H_    0.840602 0.030429 0.338658 0.242679
H14   H     H_    0.126976 0.140571 0.546472 0.183691
H15   H     H_    0.127570 0.156319 0.377122 0.187908
H16   H     H_    0.947748 0.907279 0.511200 0.235700
H17   H     H_    0.953146 0.874881 0.754077 0.244500
H18   H     H_    0.849562 0.785848 0.738618 0.253075
H19   H     H_    0.851392 0.948331 0.698040 0.239349
H20   H     H_    0.524041 0.111879 0.303802 0.165785
H21   H     H_    0.598700 0.634236 0.873556 0.158368
H22   H     H_    0.453047 0.446988 0.898527 0.162514
H23   H     H_    0.588408 0.647207 0.122706 0.159683
H24   H     H_    0.466096 0.430686 0.103083 0.162435
H25   H     H_    0.770878 0.306306 0.469254 0.162679
H26   H     H_    0.224173 0.301902 0.471913 0.129881
N1    N     N_2   0.500970 0.501330 0.852150 -0.192404
N2    N     N_2   0.500990 0.501360 0.147810 -0.192321
N3    N     N_2   0.422066 0.080935 0.608515 -0.310061
N4    N     N_2   0.898296 0.161753 0.465843 -0.312268
N5    N     N_3   0.086906 0.154335 0.462174 -0.478392
N6    N     N_2   0.913384 0.835582 0.557234 -0.317058
O1    O     O_R   0.499990 0.319060 0.613040 -0.599747
O2    O     O_R   0.500010 0.319100 0.386900 -0.639445
O3    O     O_R   0.367830 0.499950 0.613080 -0.611332
O4    O     O_R   0.367860 0.499990 0.386940 -0.612244
O5    O     O_R   0.499990 0.680900 0.613100 -0.619258
O6    O     O_R   0.500010 0.680940 0.386960 -0.612249
O7    O     O_R   0.632140 0.500010 0.613060 -0.612580
O8    O     O_R   0.632170 0.500050 0.386920 -0.608573
Zn1   Zn    Zn3+2 0.499980 0.499970 0.650990 0.948206
Zn2   Zn    Zn3+2 0.500020 0.500030 0.349010 0.943588

loop_
_geom_bond_atom_site_label_1
_geom_bond_atom_site_label_2
_ccdc_geom_bond_type
C22   H19   S    
C23   C24   A    
C6    H4    S    
C6    C7    D    
C14   C16   S    
O3    Zn1   S    
C12   C29   A    
C10   N1    D    
C4    O3    A    
N1    Zn1   S    
C18   C19   A    
C21   H10   S    
C12   C15   A    
C28   H3    S    
C24   N5    S    
C1    O1    A    
C2    C3    A    
H5    N3    S    
C5    C27   A    
N2    Zn2   S    
C22   N6    S    
C23   N4    S    
C20   H8    S    
C26   C27   A    
O5    Zn1   S    
C21   H11   S    
H14   N5    S    
H15   N5    S    
C6    C8    S    
C15   C16   A    
C1    O2    A    
C12   C19   A    
H16   N6    S    
C28   C29   A    
C22   H17   S    
O2    Zn2   S    
C2    H26   S    
C21   N4    S    
C2    C25   A    
O6    Zn2   S    
C13   O5    A    
C7    H12   S    
C4    O4    A    
C14   O8    A    
C29   N6    S    
C8    H20   S    
C16   C17   A    
C10   C11   S    
C20   N3    S    
C18   C23   A    
C20   H7    S    
C10   H21   S    
C7    C13   S    
C1    C9    S    
C24   C25   A    
O1    Zn1   S    
C15   H1    S    
C17   C18   A    
H22   N1    S    
C13   O6    A    
C27   C28   A    
O8    Zn2   S    
O7    Zn1   S    
C14   O7    A    
C9    N3    S    
H24   N2    S    
C11   H23   S    
C3    C5    A    
C25   C26   A    
C11   N2    D    
C20   H6    S    
C17   H25   S    
C22   H18   S    
C3    C4    S    
C21   H13   S    
H9    N4    S    
O4    Zn2   S    
C8    C9    D    
C5    H2    S    
C19   C26   A    
