data_mof_unit_32905.cif
_audit_creation_date              2012-12-10T18:50:51-0500
_audit_creation_method            fapswitch 2.2
_symmetry_space_group_name_H-M    P1
_symmetry_Int_Tables_number       1
_space_group_crystal_system       triclinic
_cell_length_a                    10.591181
_cell_length_b                    9.942626
_cell_length_c                    15.745461
_cell_angle_alpha                 90.249287
_cell_angle_beta                  91.85344
_cell_angle_gamma                 89.844129
_cell_volume                      1657.17375551

loop_
_atom_site_label
_atom_site_type_symbol
_atom_type_description
_atom_site_fract_x
_atom_site_fract_y
_atom_site_fract_z
_atom_type_partial_charge
C1    C     C_R   0.260800 0.500161 0.500103 0.923121
C2    C     C_3   0.649951 0.513692 0.951180 0.174918
C3    C     C_3   0.647998 0.509807 0.053245 0.169328
C4    C     C_1   0.503563 0.502034 0.824894 -0.035636
C5    C     C_1   0.500826 0.501672 0.174927 -0.015865
C6    C     C_1   0.500125 0.499745 0.250068 -0.201840
C7    C     C_R   0.061315 0.518109 0.422187 0.118795
C8    C     C_R   0.068975 0.482738 0.578347 0.134266
C9    C     C_R   0.929947 0.517807 0.422834 0.060739
C10   C     C_R   0.937522 0.482044 0.577655 0.043974
C11   C     C_R   0.871585 0.499590 0.500225 -0.103222
C12   C     C_R   0.127924 0.500502 0.500247 -0.087649
C13   C     C_R   0.573863 0.071867 0.558337 0.270533
C14   C     C_R   0.569907 0.927825 0.560452 0.257194
C15   C     C_R   0.499675 0.499779 0.338633 0.910533
C16   C     C_R   0.429969 0.928361 0.441007 -0.130695
C17   C     C_R   0.428664 0.071309 0.441710 -0.127674
C18   C     C_R   0.739106 0.499852 0.500248 0.962658
C19   C     C_R   0.500695 0.500270 0.661320 0.906291
C20   C     C_3   0.427665 0.638611 0.050752 0.156230
C21   C     C_3   0.428399 0.371180 0.049347 0.207583
C22   C     C_3   0.443696 0.361154 0.948056 0.311715
C23   C     C_3   0.426206 0.636738 0.948159 0.362706
C24   C     C_1   0.502255 0.501032 0.749770 -0.223869
C25   C     C_3   0.501707 0.505136 0.082939 0.074356
C26   C     C_3   0.504677 0.503281 0.916796 0.119508
H1    H     H_    0.373459 0.874732 0.393541 0.143883
H2    H     H_    0.371027 0.124641 0.394868 0.150452
N1    N     N_R   0.499970 0.857200 0.499980 -0.096080
N2    N     N_R   0.499970 0.142800 0.499980 -0.098037
O1    O     O_R   0.316750 0.614620 0.499990 -0.615600
O2    O     O_R   0.316750 0.385380 0.499990 -0.617575
O3    O     O_R   0.499990 0.614720 0.377140 -0.619724
O4    O     O_R   0.499990 0.385280 0.377140 -0.607914
O5    O     O_R   0.683220 0.614710 0.500000 -0.625867
O6    O     O_R   0.683220 0.385290 0.500000 -0.626410
O7    O     O_R   0.499980 0.614620 0.622860 -0.622446
O8    O     O_R   0.499980 0.385380 0.622860 -0.623817
Zn1   Zn    Zn3+2 0.499980 0.653120 0.500000 0.939783
Zn2   Zn    Zn3+2 0.499980 0.346880 0.500000 0.946266
C27   C     C_3   0.287907 0.642805 0.908026 -0.886649
H3    H     H_    0.216601 0.586579 0.941848 0.219654
H4    H     H_    0.246783 0.745657 0.909861 0.227425
H5    H     H_    0.284500 0.612446 0.840128 0.247376
C28   C     C_3   0.317394 0.322756 0.897989 -0.907589
H6    H     H_    0.240911 0.395882 0.895630 0.224402
H7    H     H_    0.334840 0.300298 0.830087 0.258333
H8    H     H_    0.275962 0.230385 0.925127 0.226507
N3    N     N_3   0.297932 0.643019 0.082996 -0.471246
H9    H     H_    0.253309 0.732884 0.064840 0.181878
H10   H     H_    0.299872 0.643663 0.149420 0.196066
N4    N     N_3   0.294003 0.379133 0.073008 -0.431430
H11   H     H_    0.236281 0.430876 0.030337 0.200580
H12   H     H_    0.252880 0.283794 0.075782 0.175692
N5    N     N_3   0.476411 0.249834 0.095271 -0.446089
H13   H     H_    0.426128 0.164333 0.075311 0.169430
H14   H     H_    0.570597 0.225566 0.089808 0.205465
N6    N     N_3   0.491036 0.760250 0.085527 -0.496086
H15   H     H_    0.438441 0.846301 0.069733 0.181386
H16   H     H_    0.494497 0.758155 0.151934 0.184703
C29   C     C_3   0.526308 0.235206 0.923717 -0.856464
H17   H     H_    0.474898 0.139118 0.932673 0.220091
H18   H     H_    0.550782 0.237696 0.855637 0.247258
H19   H     H_    0.614386 0.221240 0.961603 0.253210
C30   C     C_3   0.482843 0.771540 0.912524 -0.838990
H20   H     H_    0.418193 0.858664 0.920227 0.212098
H21   H     H_    0.569434 0.807539 0.946015 0.252077
H22   H     H_    0.500525 0.763956 0.843576 0.240574
N7    N     N_3   0.718427 0.625445 0.091208 -0.484029
H23   H     H_    0.705817 0.633689 0.156554 0.189333
H24   H     H_    0.701549 0.718234 0.062724 0.226191
N8    N     N_3   0.717280 0.390130 0.084322 -0.468701
H25   H     H_    0.712190 0.383914 0.150395 0.186065
H26   H     H_    0.813828 0.401448 0.074352 0.193960
N9    N     N_3   0.710003 0.637766 0.921080 -0.490484
H27   H     H_    0.711224 0.638468 0.854686 0.185653
H28   H     H_    0.804828 0.641352 0.941840 0.186101
N10   N     N_3   0.727802 0.402764 0.917659 -0.467372
H29   H     H_    0.823015 0.416105 0.935218 0.174409
H30   H     H_    0.725387 0.403522 0.851232 0.183913
C31   C     C_3   0.131762 0.535693 0.340392 -0.923269
H31   H     H_    0.191460 0.627221 0.345008 0.241116
H32   H     H_    0.193357 0.446937 0.330038 0.238628
H33   H     H_    0.069411 0.546412 0.283058 0.237242
C32   C     C_3   0.147398 0.466311 0.660234 -0.923680
H34   H     H_    0.207889 0.375330 0.655918 0.251800
H35   H     H_    0.208708 0.555743 0.670398 0.236047
H36   H     H_    0.090663 0.455413 0.717580 0.232942
N11   N     N_3   0.853466 0.534815 0.346480 -0.472066
H37   H     H_    0.873637 0.457247 0.303943 0.187007
H38   H     H_    0.874540 0.627510 0.319320 0.195021
N12   N     N_3   0.868497 0.464957 0.654009 -0.495325
H39   H     H_    0.891773 0.542961 0.696360 0.184903
H40   H     H_    0.893222 0.372579 0.681389 0.192983
C33   C     C_3   0.661921 0.143078 0.621111 -0.858335
H41   H     H_    0.669280 0.250674 0.613204 0.297073
H42   H     H_    0.631445 0.125482 0.686979 0.217467
H43   H     H_    0.759966 0.106126 0.613581 0.211359
C34   C     C_3   0.635259 0.853258 0.633396 -0.839825
H44   H     H_    0.683914 0.762622 0.611721 0.276891
H45   H     H_    0.710952 0.909714 0.667466 0.202959
H46   H     H_    0.564778 0.828499 0.681441 0.239448

loop_
_geom_bond_atom_site_label_1
_geom_bond_atom_site_label_2
_ccdc_geom_bond_type
N5    H13   S    
C11   C18   S    
C27   H3    S    
C33   H41   S    
C31   H31   S    
C33   H43   S    
C14   C34   S    
C28   H6    S    
O3    Zn1   S    
C13   C33   S    
O4    Zn2   S    
C3    N7    S    
C2    C3    S    
C5    C6    T    
C4    C24   T    
N10   H30   S    
C32   H36   S    
C20   C25   S    
N6    H16   S    
C1    O1    A    
C29   H18   S    
C8    C32   S    
C23   C26   S    
N7    H24   S    
C19   O7    A    
C6    C15   S    
C16   C17   A    
N3    H10   S    
C34   H46   S    
N11   H38   S    
C18   O5    A    
C15   O4    A    
C16   H1    S    
C28   H7    S    
C10   N12   S    
C21   C22   S    
C17   N2    A    
C27   H4    S    
N7    H23   S    
C1    C12   S    
C31   H32   S    
N4    H12   S    
C32   H35   S    
C7    C12   A    
C13   N2    A    
O6    Zn2   S    
N8    H26   S    
C9    N11   S    
C21   N5    S    
N10   H29   S    
C30   H21   S    
N6    H15   S    
C32   H34   S    
C1    O2    A    
C29   H19   S    
O5    Zn1   S    
N9    H27   S    
C20   N3    S    
C2    N10   S    
C19   O8    A    
N9    H28   S    
C34   H44   S    
C20   C23   S    
C3    C25   S    
C8    C12   A    
C30   H22   S    
N1    Zn1   S    
N12   H40   S    
N2    Zn2   S    
C2    C26   S    
C9    C11   A    
C5    C25   S    
C7    C31   S    
N3    H9    S    
N5    H14   S    
C27   H5    S    
C14   N1    A    
C20   N6    S    
C31   H33   S    
N4    H11   S    
C28   H8    S    
C7    C9    A    
C21   C25   S    
C34   H45   S    
C17   H2    S    
N8    H25   S    
C4    C26   S    
C33   H42   S    
C23   C27   S    
C23   C30   S    
C19   C24   S    
C16   N1    A    
O7    Zn1   S    
C22   C29   S    
O8    Zn2   S    
N12   H39   S    
O1    Zn1   S    
C3    N8    S    
O2    Zn2   S    
C29   H17   S    
C10   C11   A    
C22   C28   S    
C8    C10   A    
C30   H20   S    
C22   C26   S    
N11   H37   S    
C13   C14   A    
C18   O6    A    
C15   O3    A    
C21   N4    S    
C2    N9    S    
