data_mof_unit_54232.cif
_audit_creation_date              2012-12-10T18:47:04-0500
_audit_creation_method            fapswitch 2.2
_symmetry_space_group_name_H-M    P1
_symmetry_Int_Tables_number       1
_space_group_crystal_system       triclinic
_cell_length_a                    10.693245
_cell_length_b                    9.848534
_cell_length_c                    14.886461
_cell_angle_alpha                 90.21537
_cell_angle_beta                  89.974307
_cell_angle_gamma                 89.833927
_cell_volume                      1567.71686925

loop_
_atom_site_label
_atom_site_type_symbol
_atom_type_description
_atom_site_fract_x
_atom_site_fract_y
_atom_site_fract_z
_atom_type_partial_charge
C1    C     C_R   0.259937 0.500124 0.499875 0.865192
C2    C     C_R   0.127505 0.500201 0.499781 -0.014970
C3    C     C_R   0.582103 0.071957 0.552403 -0.062303
C4    C     C_R   0.417897 0.928042 0.447597 -0.062303
C5    C     C_R   0.417900 0.071888 0.447592 -0.060598
C6    C     C_R   0.582100 0.928112 0.552408 -0.060598
C7    C     C_R   0.500324 0.499703 0.327061 0.886631
C8    C     C_R   0.499676 0.500297 0.672939 0.886631
C9    C     C_R   0.608756 0.531549 0.813136 -0.236485
C10   C     C_R   0.391244 0.468451 0.186864 -0.236485
C11   C     C_R   0.498875 0.501444 0.768134 -0.056121
C12   C     C_R   0.740063 0.499875 0.500125 0.865191
C13   C     C_R   0.501125 0.498556 0.231866 -0.056120
C14   C     C_R   0.388100 0.473374 0.813018 -0.209129
C15   C     C_R   0.611900 0.526626 0.186982 -0.209131
C16   C     C_R   0.384575 0.477721 0.906628 0.040443
C17   C     C_R   0.615425 0.522280 0.093372 0.040441
C18   C     C_R   0.498595 0.501837 0.953229 0.054983
C19   C     C_R   0.501406 0.498164 0.046770 0.054984
C20   C     C_R   0.610212 0.529444 0.905982 0.110424
C21   C     C_R   0.389789 0.470556 0.094018 0.110423
C22   C     C_R   0.272327 0.454797 0.955069 -0.036090
C23   C     C_R   0.277504 0.448451 0.048541 -0.257225
C24   C     C_R   0.727674 0.545204 0.044931 -0.036090
C25   C     C_2   0.147223 0.442160 0.912300 0.923209
C26   C     C_2   0.852778 0.557843 0.087700 0.923239
C27   C     C_R   0.722497 0.551550 0.951459 -0.257228
C28   C     C_R   0.064370 0.381468 0.475880 -0.179662
C29   C     C_R   0.935630 0.618532 0.524119 -0.179662
C30   C     C_R   0.936313 0.381255 0.476140 -0.168279
C31   C     C_R   0.063687 0.618745 0.523860 -0.168278
C32   C     C_R   0.872495 0.499799 0.500219 -0.014971
H1    H     H_    0.693432 0.552893 0.775516 0.138036
H2    H     H_    0.112382 0.710690 0.543157 0.161576
H3    H     H_    0.647755 0.126444 0.594322 0.133549
H4    H     H_    0.352245 0.873555 0.405678 0.133549
H5    H     H_    0.352253 0.126320 0.405667 0.128609
H6    H     H_    0.647747 0.873680 0.594333 0.128609
H7    H     H_    0.976490 0.355411 0.915287 0.343463
H8    H     H_    0.023507 0.644592 0.084715 0.343466
H9    H     H_    0.306568 0.447107 0.224484 0.138036
H10   H     H_    0.306585 0.447187 0.773695 0.170658
H11   H     H_    0.693415 0.552813 0.226305 0.170658
H12   H     H_    0.192487 0.430577 0.086498 0.195624
H13   H     H_    0.807513 0.569424 0.913502 0.195622
H14   H     H_    0.113604 0.289610 0.456417 0.154020
H15   H     H_    0.886396 0.710390 0.543582 0.154020
H16   H     H_    0.887618 0.289310 0.456843 0.161576
N1    N     N_R   0.500000 0.857200 0.500000 -0.083867
N2    N     N_R   0.500000 0.142800 0.500000 -0.083867
O1    O     O_R   0.316770 0.614620 0.499990 -0.628325
O2    O     O_R   0.059252 0.352848 0.948466 -0.784139
O3    O     O_2   0.881478 0.485993 0.151293 -0.634421
O4    O     O_R   0.940745 0.647153 0.051538 -0.784148
O5    O     O_R   0.683230 0.385380 0.500010 -0.628325
O6    O     O_R   0.683230 0.614620 0.500010 -0.629894
O7    O     O_R   0.316770 0.385380 0.499990 -0.629894
O8    O     O_R   0.499980 0.614680 0.367850 -0.615268
O9    O     O_R   0.500020 0.385320 0.632150 -0.615268
O10   O     O_R   0.500020 0.614680 0.632150 -0.610501
O11   O     O_R   0.499980 0.385320 0.367850 -0.610502
O12   O     O_2   0.118524 0.514014 0.848706 -0.634416
Zn1   Zn    Zn3+2 0.500000 0.653120 0.500000 0.960850
Zn2   Zn    Zn3+2 0.500000 0.346880 0.500000 0.960850

loop_
_geom_bond_atom_site_label_1
_geom_bond_atom_site_label_2
_ccdc_geom_bond_type
O11   Zn2   S    
C9    H1    S    
C4    H4    S    
N1    Zn1   S    
C20   C27   A    
C1    O7    A    
C9    C11   A    
C2    C31   A    
C7    O8    A    
H8    O4    S    
C24   C27   A    
C3    H3    S    
C4    N1    A    
C14   H10   S    
C3    C6    A    
O5    Zn2   S    
C27   H13   S    
C6    H6    S    
H7    O2    S    
C25   O2    S    
C15   H11   S    
C8    O9    A    
C16   C18   A    
C12   C32   S    
C10   H9    S    
C30   C32   A    
C1    O1    A    
C28   H14   S    
O9    Zn2   S    
C12   O6    A    
C29   H15   S    
O10   Zn1   S    
N2    Zn2   S    
C26   O4    S    
C28   C30   A    
C17   C19   A    
C3    N2    A    
C24   C26   S    
C1    C2    S    
C29   C32   A    
C18   C20   A    
C25   O12   D    
C13   C15   A    
C10   C21   A    
C11   C14   A    
C14   C16   A    
C5    N2    A    
O6    Zn1   S    
C12   O5    A    
C5    H5    S    
C8    C11   S    
C17   C24   A    
C26   O3    D    
C7    C13   S    
C31   H2    S    
O7    Zn2   S    
C29   C31   A    
C18   C19   A    
C30   H16   S    
O8    Zn1   S    
C15   C17   A    
O1    Zn1   S    
C22   C23   A    
C7    O11   A    
C2    C28   A    
C9    C20   A    
C19   C21   A    
C21   C23   A    
C10   C13   A    
C8    O10   A    
C6    N1    A    
C16   C22   A    
C4    C5    A    
C23   H12   S    
C22   C25   S    
