data_mof_unit_33905.cif
_audit_creation_date              2012-12-10T17:35:02-0500
_audit_creation_method            fapswitch 2.2
_symmetry_space_group_name_H-M    P1
_symmetry_Int_Tables_number       1
_space_group_crystal_system       triclinic
_cell_length_a                    12.374305
_cell_length_b                    13.19675
_cell_length_c                    13.831385
_cell_angle_alpha                 105.513284
_cell_angle_beta                  73.208261
_cell_angle_gamma                 116.622924
_cell_volume                      1907.80538358

loop_
_atom_site_label
_atom_site_type_symbol
_atom_type_description
_atom_site_fract_x
_atom_site_fract_y
_atom_site_fract_z
_atom_type_partial_charge
C1    C     C_R   0.145210 0.712286 0.501430 0.787114
C2    C     C_1   0.968563 0.499930 0.791706 -0.172349
C3    C     C_R   0.745713 0.965978 0.404795 -0.216060
C4    C     C_R   0.775582 0.163784 0.470744 -0.049108
C5    C     C_R   0.182066 0.914875 0.507356 -0.195040
C6    C     C_R   0.258634 0.030792 0.513469 -0.154890
C7    C     C_R   0.385152 0.066495 0.501195 -0.183902
C8    C     C_R   0.438869 0.985427 0.474760 0.077989
C9    C     C_R   0.360945 0.866981 0.456887 0.086886
C10   C     C_R   0.567888 0.018198 0.461752 0.074411
C11   C     C_R   0.618514 0.934610 0.419486 0.167643
C12   C     C_R   0.982808 0.502978 0.686499 0.839837
C13   C     C_R   0.542277 0.821344 0.389081 -0.250339
C14   C     C_R   0.416096 0.788498 0.405352 -0.202681
C15   C     C_R   0.648204 0.131660 0.490197 -0.264242
C16   C     C_R   0.824078 0.080219 0.429480 -0.203536
C17   C     C_R   0.230550 0.832133 0.487207 -0.104766
C18   C     C_R   0.641290 0.683696 0.655280 -0.131595
C19   C     C_R   0.252007 0.350240 0.364489 0.068645
C20   C     C_R   0.350750 0.317176 0.334469 -0.266902
C21   C     C_R   0.449986 0.373900 0.384844 -0.199776
C22   C     C_R   0.451715 0.465111 0.466307 0.010747
C23   C     C_R   0.856118 0.286177 0.486700 0.791008
C24   C     C_R   0.347517 0.495237 0.494424 0.279420
C25   C     C_R   0.551877 0.527318 0.521173 -0.050682
C26   C     C_R   0.545537 0.619493 0.600529 0.105444
C27   C     C_R   0.441844 0.645349 0.626547 -0.267420
C28   C     C_R   0.345573 0.584222 0.575744 -0.165895
C29   C     C_R   0.658319 0.502775 0.500729 -0.005299
C30   C     C_R   0.739564 0.650310 0.636259 0.121719
C31   C     C_R   0.016590 0.496058 0.313350 0.818288
C32   C     C_1   0.028372 0.495192 0.207603 -0.175645
C33   C     C_2   0.045367 0.494511 0.011932 0.377539
C34   C     C_2   0.947365 0.492288 0.986025 0.372511
C35   C     C_1   0.956994 0.496417 0.880053 -0.083572
C36   C     C_1   0.037611 0.494801 0.118711 -0.083863
Cu1   Cu    Cu3+1 0.899780 0.525060 0.522890 0.939985
Cu2   Cu    Cu3+1 0.100220 0.474940 0.477110 0.919255
H1    H     H_    0.364667 0.702100 0.371374 0.183946
H2    H     H_    0.432110 0.712604 0.688897 0.172425
H3    H     H_    0.670374 0.435331 0.440441 0.135597
H4    H     H_    0.175666 0.305605 0.324742 0.126235
H5    H     H_    0.523916 0.344917 0.358442 0.136376
H6    H     H_    0.350413 0.247352 0.271794 0.144729
H7    H     H_    0.270773 0.610139 0.603888 0.212277
H8    H     H_    0.922466 0.103356 0.414286 0.153271
H9    H     H_    0.580413 0.757787 0.351537 0.148752
H10   H     H_    0.784784 0.902454 0.372188 0.138127
H11   H     H_    0.613561 0.196908 0.527977 0.151651
H12   H     H_    0.084684 0.889853 0.516899 0.147973
H13   H     H_    0.438727 0.157861 0.507398 0.129200
H14   H     H_    0.219428 0.093653 0.529510 0.146132
N1    N     N_R   0.748810 0.563010 0.557590 -0.199922
N2    N     N_R   0.250540 0.437620 0.443020 -0.208510
O1    O     O_R   0.025040 0.682470 0.528790 -0.571438
O2    O     O_R   0.194310 0.640150 0.490130 -0.614156
O3    O     O_R   0.903380 0.524130 0.659910 -0.576025
O4    O     O_R   0.072660 0.481800 0.621240 -0.581959
O5    O     O_R   0.805690 0.359850 0.509870 -0.590984
O6    O     O_R   0.974960 0.317530 0.471210 -0.588924
O7    O     O_R   0.927340 0.518200 0.378760 -0.565204
O8    O     O_R   0.096620 0.475870 0.340090 -0.595734
O9    O     O_3   0.844990 0.493661 0.062439 -0.595599
C37   C     C_3   0.737035 0.453191 0.022860 0.063267
H15   H     H_    0.719942 0.367488 0.973816 0.137095
H16   H     H_    0.744118 0.515261 0.978135 0.139830
C38   C     C_3   0.627275 0.440671 0.111320 -0.778828
H17   H     H_    0.640791 0.524953 0.161483 0.250340
H18   H     H_    0.541731 0.409235 0.081297 0.191092
H19   H     H_    0.616932 0.378242 0.157095 0.247111
C39   C     C_R   0.831328 0.712986 0.703565 0.194098
C40   C     C_R   0.916581 0.825345 0.691670 -0.120781
C41   C     C_R   0.994557 0.891146 0.761353 -0.134987
C42   C     C_R   0.983661 0.847227 0.846649 -0.112868
C43   C     C_R   0.892591 0.738917 0.863601 -0.158499
C44   C     C_R   0.814883 0.672999 0.793557 -0.141414
H20   H     H_    0.917874 0.863240 0.630926 0.104161
H21   H     H_    0.061277 0.977125 0.750514 0.135981
H22   H     H_    0.043396 0.898374 0.901076 0.128389
H23   H     H_    0.881419 0.706738 0.931600 0.138874
H24   H     H_    0.742134 0.590663 0.809117 0.112880
C45   C     C_R   0.642654 0.789976 0.728643 0.089448
C46   C     C_R   0.672053 0.890089 0.691126 -0.150348
C47   C     C_R   0.674195 0.990469 0.758928 -0.131228
C48   C     C_R   0.646922 0.991494 0.864478 -0.113261
C49   C     C_R   0.617193 0.892038 0.902324 -0.119040
C50   C     C_R   0.614791 0.791412 0.834728 -0.138978
H25   H     H_    0.693544 0.890188 0.609481 0.142686
H26   H     H_    0.697077 0.067426 0.729623 0.132211
H27   H     H_    0.648760 0.069317 0.916929 0.120875
H28   H     H_    0.596048 0.892933 0.984059 0.126729
H29   H     H_    0.591922 0.715071 0.864898 0.120536
O10   O     O_3   0.147579 0.493706 0.934826 -0.594878
C51   C     C_3   0.246929 0.503030 0.972266 0.075078
H30   H     H_    0.219448 0.429019 0.011330 0.146334
H31   H     H_    0.280233 0.585279 0.025705 0.144756
C52   C     C_3   0.352406 0.501895 0.882565 -0.786972
H32   H     H_    0.380014 0.573131 0.840306 0.256445
H33   H     H_    0.432792 0.512435 0.910838 0.183249
H34   H     H_    0.323148 0.419133 0.829458 0.251502

loop_
_geom_bond_atom_site_label_1
_geom_bond_atom_site_label_2
_ccdc_geom_bond_type
C2    C35   T    
O10   C51   S    
C41   C42   A    
C31   O7    A    
C19   C20   A    
C18   C26   A    
C43   C44   A    
C2    C12   S    
C30   C39   S    
C7    C8    A    
C48   C49   A    
C23   O5    A    
C26   C27   A    
Cu1   Cu2   S    
C32   C36   T    
C21   C22   A    
C1    O2    A    
C49   H28   S    
C5    C6    A    
C5    C17   A    
C24   N2    A    
C45   C50   A    
C3    H10   S    
C33   C36   S    
C34   C35   S    
C20   H6    S    
C14   H1    S    
C21   H5    S    
C46   C47   A    
C8    C9    A    
C22   C25   A    
C41   H21   S    
C18   C30   A    
C43   H23   S    
C19   H4    S    
C12   O4    A    
C46   H25   S    
Cu2   O4    S    
C13   C14   A    
C31   O8    A    
C52   H33   S    
C52   H32   S    
C25   C29   A    
C23   O6    A    
C30   N1    A    
C28   H7    S    
C42   C43   A    
C38   H17   S    
C37   C38   S    
C47   C48   A    
C16   H8    S    
C13   H9    S    
C4    C23   S    
C49   C50   A    
C51   C52   S    
C25   C26   A    
C38   H18   S    
C37   H16   S    
C4    C16   A    
C9    C14   A    
C40   H20   S    
C31   C32   S    
Cu2   N2    S    
C27   H2    S    
C33   C34   D    
C51   H31   S    
Cu1   O5    S    
Cu2   O6    S    
C12   O3    A    
C19   N2    A    
C9    C17   A    
C42   H22   S    
C22   C24   A    
C5    H12   S    
C47   H26   S    
C52   H34   S    
C29   H3    S    
C24   C28   A    
C40   C41   A    
C33   O10   S    
C44   H24   S    
Cu1   O7    S    
C48   H27   S    
C6    C7    A    
C1    C17   S    
C10   C15   A    
C38   H19   S    
C37   H15   S    
C4    C15   A    
C1    O1    A    
Cu1   N1    S    
C39   C40   A    
C11   C13   A    
C39   C44   A    
C29   N1    A    
C34   O9    S    
C18   C45   S    
C15   H11   S    
C51   H30   S    
C3    C11   A    
C10   C11   A    
C7    H13   S    
O9    C37   S    
Cu1   O1    S    
Cu2   O2    S    
C20   C21   A    
C8    C10   A    
C45   C46   A    
C27   C28   A    
C6    H14   S    
C50   H29   S    
Cu1   O3    S    
C3    C16   A    
Cu2   O8    S    
