data_mof_unit_58035.cif
_audit_creation_date              2012-12-10T18:46:13-0500
_audit_creation_method            fapswitch 2.2
_symmetry_space_group_name_H-M    P1
_symmetry_Int_Tables_number       1
_space_group_crystal_system       triclinic
_cell_length_a                    9.856165
_cell_length_b                    10.650919
_cell_length_c                    13.205225
_cell_angle_alpha                 89.784446
_cell_angle_beta                  70.087509
_cell_angle_gamma                 89.606586
_cell_volume                      1303.33717805

loop_
_atom_site_label
_atom_site_type_symbol
_atom_type_description
_atom_site_fract_x
_atom_site_fract_y
_atom_site_fract_z
_atom_type_partial_charge
C1    C     C_R   0.498439 0.739648 0.502529 0.934299
C2    C     C_R   0.467535 0.547819 0.964482 -0.041614
C3    C     C_R   0.470637 0.475162 0.874369 -0.006689
C4    C     C_R   0.567764 0.517729 0.016285 -0.024186
C5    C     C_R   0.692707 0.445485 0.962149 -0.142526
C6    C     C_R   0.696968 0.378379 0.870716 -0.101949
C7    C     C_R   0.579444 0.381557 0.835399 0.303723
C8    C     C_R   0.532933 0.536728 0.126580 0.561053
C9    C     C_R   0.769011 0.459071 0.117549 0.598073
C10   C     C_R   0.372005 0.504815 0.821200 -0.154033
C11   C     C_R   0.387094 0.935908 0.584899 0.243191
C12   C     C_R   0.420312 0.495312 0.704129 0.967152
C13   C     C_R   0.387468 0.065977 0.583180 0.249919
C14   C     C_R   0.498207 0.127606 0.501777 -0.235396
C15   C     C_R   0.605278 0.061996 0.421414 0.262643
C16   C     C_R   0.604527 0.933394 0.424352 -0.208174
C17   C     C_R   0.496376 0.871786 0.504949 -0.183446
C18   C     C_R   0.961793 0.429040 0.427742 0.647557
C19   C     C_R   0.105417 0.428998 0.427846 -0.110082
C20   C     C_R   0.038496 0.570848 0.572388 -0.161990
C21   C     C_R   0.894805 0.571152 0.572283 0.602880
C22   C     C_R   0.500154 0.260126 0.499607 0.972513
C23   C     C_R   0.579983 0.502672 0.295720 0.985802
C24   C     C_R   0.799446 0.426959 0.009729 0.201994
C25   C     C_R   0.630780 0.503453 0.178161 -0.409490
C26   C     C_R   0.254055 0.583725 0.870466 -0.265772
C27   C     C_R   0.252638 0.657326 0.957290 0.683115
C28   C     C_R   0.366017 0.648517 0.997802 0.278636
H1    H     H_    0.685943 0.881114 0.362145 0.200286
H2    H     H_    0.186622 0.372131 0.370074 0.206945
H3    H     H_    0.066234 0.627418 0.630260 0.209082
H4    H     H_    0.782088 0.310812 0.834689 0.212510
H5    H     H_    0.174983 0.603170 0.832071 0.226299
N1    N     N_R   0.142790 0.500030 0.500030 -0.144935
N2    N     N_R   0.857180 0.499940 0.500010 -0.203254
O1    O     O_R   0.385370 0.683250 0.500010 -0.592379
O2    O     O_R   0.614700 0.683220 0.500010 -0.583733
O3    O     O_R   0.328400 0.499990 0.653620 -0.604517
O4    O     O_R   0.557730 0.499960 0.653620 -0.571088
O5    O     O_R   0.385300 0.316780 0.499990 -0.611721
O6    O     O_R   0.614630 0.316750 0.499990 -0.550780
O7    O     O_R   0.442270 0.500040 0.346380 -0.559320
O8    O     O_R   0.671600 0.500010 0.346380 -0.534927
Zn1   Zn    Zn3+2 0.346870 0.500020 0.500000 1.047854
Zn2   Zn    Zn3+2 0.653130 0.499980 0.500000 1.124103
F1    F     F_    0.868265 0.433475 0.165270 -0.529154
Br1   Br    Br    0.238435 0.157618 0.692844 -0.287656
Br2   Br    Br    0.746662 0.142385 0.301191 -0.263220
F2    F     F_    0.928210 0.358278 0.354900 -0.540282
F3    F     F_    0.794103 0.643465 0.644372 -0.610267
Br3   Br    Br    0.981527 0.346877 0.934895 -0.299961
F4    F     F_    0.394689 0.567624 0.186334 -0.609650
Br4   Br    Br    0.396434 0.793712 0.074560 -0.241739
F5    F     F_    0.150666 0.748512 0.992672 -0.562564
Br5   Br    Br    0.565060 0.242408 0.747595 -0.406494
Br6   Br    Br    0.242382 0.846928 0.698411 -0.366640

loop_
_geom_bond_atom_site_label_1
_geom_bond_atom_site_label_2
_ccdc_geom_bond_type
C2    C4    A    
C28   Br4   S    
C9    C24   A    
O3    Zn1   S    
C6    C7    A    
C21   N2    A    
C7    Br5   S    
O8    Zn2   S    
C18   N2    A    
C8    F4    S    
C26   H5    S    
C1    C17   S    
C1    O2    A    
C4    C8    A    
C22   O5    A    
C10   C26   A    
C12   O4    A    
C2    C3    A    
C27   F5    S    
C9    C25   A    
C9    F1    S    
C3    C10   A    
C13   C14   A    
C8    C25   A    
C11   C13   A    
C14   C22   S    
C26   C27   A    
C19   H2    S    
C5    C24   A    
O7    Zn1   S    
C15   Br2   S    
C24   Br3   S    
C4    C5    A    
C10   C12   S    
C21   F3    S    
C3    C7    A    
C23   C25   S    
C12   O3    A    
C5    C6    A    
O1    Zn1   S    
C22   O6    A    
O2    Zn2   S    
C15   C16   A    
N2    Zn2   S    
O5    Zn1   S    
N1    Zn1   S    
C20   C21   A    
C18   F2    S    
C18   C19   A    
C20   N1    A    
C27   C28   A    
C13   Br1   S    
O6    Zn2   S    
C14   C15   A    
C11   C17   A    
C2    C28   A    
C16   H1    S    
C23   O8    A    
O4    Zn2   S    
C19   N1    A    
C11   Br6   S    
C23   O7    A    
C1    O1    A    
C16   C17   A    
C6    H4    S    
C20   H3    S    
