data_mof_unit_36794.cif
_audit_creation_date              2012-12-10T16:38:07-0500
_audit_creation_method            fapswitch 2.2
_symmetry_space_group_name_H-M    P1
_symmetry_Int_Tables_number       1
_space_group_crystal_system       triclinic
_cell_length_a                    28.120202
_cell_length_b                    18.414257
_cell_length_c                    16.823716
_cell_angle_alpha                 89.936851
_cell_angle_beta                  61.241312
_cell_angle_gamma                 89.833556
_cell_volume                      7636.96557123

loop_
_atom_site_label
_atom_site_type_symbol
_atom_type_description
_atom_site_fract_x
_atom_site_fract_y
_atom_site_fract_z
_atom_type_partial_charge
C1    C     C_R   0.700357 0.264607 0.677604 0.893672
C2    C     C_R   0.075900 0.500108 0.583829 -0.010693
C3    C     C_R   0.196060 0.198172 0.904858 0.030070
C4    C     C_R   0.666648 0.411215 0.982051 -0.196882
C5    C     C_R   0.333552 0.590424 0.017767 -0.196559
C6    C     C_R   0.360703 0.359457 0.969526 -0.217017
C7    C     C_R   0.603971 0.693389 0.053936 -0.199126
C8    C     C_R   0.111774 0.823436 0.053517 -0.191638
C9    C     C_R   0.889210 0.178287 0.945990 -0.196347
C10   C     C_R   0.876831 0.828142 0.956540 -0.192521
C11   C     C_R   0.116879 0.174335 0.048828 -0.183869
C12   C     C_R   0.700105 0.403014 0.022005 0.182590
C13   C     C_R   0.405140 0.003014 0.482301 -0.025781
C14   C     C_R   0.300147 0.599255 0.977843 0.183475
C15   C     C_R   0.340806 0.329415 0.915220 0.187858
C16   C     C_R   0.625027 0.727126 0.105220 0.188920
C17   C     C_R   0.140068 0.808217 0.100867 0.184739
C18   C     C_R   0.861446 0.194630 0.898075 0.195682
C19   C     C_R   0.847346 0.813382 0.910700 0.196104
C20   C     C_R   0.146563 0.184431 0.095565 0.187293
C21   C     C_R   0.738536 0.191003 0.807307 0.200819
C22   C     C_R   0.262932 0.811134 0.191869 0.202538
C23   C     C_R   0.265419 0.178003 0.199647 0.205447
C24   C     C_R   0.594920 0.996868 0.517555 -0.025282
C25   C     C_R   0.734789 0.821547 0.798237 0.202085
C26   C     C_R   0.231632 0.673584 0.804016 0.184394
C27   C     C_R   0.768863 0.327712 0.195855 0.180830
C28   C     C_R   0.717294 0.788593 0.244745 0.165732
C29   C     C_R   0.279272 0.204997 0.762320 0.170560
C30   C     C_R   0.772821 0.183308 0.846058 -0.246656
C31   C     C_R   0.229059 0.819654 0.152390 -0.236360
C32   C     C_R   0.231108 0.167010 0.161429 -0.234068
C33   C     C_R   0.767553 0.831116 0.839248 -0.246805
C34   C     C_R   0.260365 0.656864 0.850808 -0.247818
C35   C     C_R   0.067841 0.369623 0.609446 0.142648
C36   C     C_R   0.740559 0.345248 0.148490 -0.247390
C37   C     C_R   0.690516 0.760008 0.200756 -0.232855
C38   C     C_R   0.306443 0.228918 0.808537 -0.219901
C39   C     C_R   0.070826 0.104066 0.937589 0.904747
C40   C     C_R   0.927034 0.897733 0.064138 0.903025
C41   C     C_R   0.927544 0.102628 0.064008 0.908415
C42   C     C_R   0.072432 0.897418 0.936007 0.917248
C43   C     C_R   0.571818 0.603282 0.936333 0.905528
C44   C     C_R   0.423138 0.402958 0.068033 0.914238
C45   C     C_R   0.420466 0.591577 0.071432 0.911855
C46   C     C_R   0.876567 0.627766 0.575240 0.119867
C47   C     C_R   0.579770 0.408942 0.928351 0.937961
C48   C     C_R   0.578916 0.109381 0.418673 0.100104
C49   C     C_R   0.421207 0.890410 0.581006 0.100184
C50   C     C_R   0.482011 0.114990 0.405124 0.093383
C51   C     C_R   0.518105 0.884798 0.594550 0.093517
C52   C     C_R   0.020782 0.631561 0.597669 0.098435
C53   C     C_R   0.927480 0.369063 0.575333 0.095306
C54   C     C_R   0.926054 0.630502 0.577858 0.096330
C55   C     C_R   0.021854 0.368374 0.595952 0.099215
C56   C     C_R   0.569697 0.165637 0.371066 -0.212794
C57   C     C_R   0.877809 0.371525 0.573292 0.119577
C58   C     C_R   0.430453 0.834102 0.628513 -0.212925
C59   C     C_R   0.522084 0.168831 0.365304 -0.213755
C60   C     C_R   0.478067 0.830904 0.634267 -0.214408
C61   C     C_R   0.991518 0.695964 0.606419 -0.211917
C62   C     C_R   0.947206 0.304053 0.592680 -0.215169
C63   C     C_R   0.944851 0.695346 0.597110 -0.215594
C64   C     C_R   0.993651 0.303643 0.602596 -0.206652
C65   C     C_R   0.490633 0.058018 0.453718 0.008307
C66   C     C_R   0.509491 0.941768 0.545944 0.008330
C67   C     C_R   0.538708 0.055702 0.461400 0.014002
C68   C     C_R   0.067257 0.630510 0.610018 0.143142
C69   C     C_R   0.461416 0.944083 0.538262 0.014240
C70   C     C_R   0.955034 0.565856 0.568239 0.017345
C71   C     C_R   0.002420 0.433886 0.578414 0.011309
C72   C     C_R   0.001854 0.566105 0.579330 0.011702
C73   C     C_R   0.955687 0.433973 0.567120 0.017310
C74   C     C_R   0.933720 0.499889 0.557464 -0.056346
C75   C     C_R   0.026843 0.500048 0.580191 -0.059770
C76   C     C_R   0.452298 0.001957 0.491801 -0.059769
C77   C     C_R   0.547809 0.997855 0.507914 -0.059669
C78   C     C_R   0.864781 0.433945 0.536957 0.047736
C79   C     C_R   0.565701 0.883576 0.604112 0.141722
C80   C     C_R   0.100196 0.566685 0.586172 0.052316
C81   C     C_R   0.100376 0.433543 0.586161 0.048368
C82   C     C_R   0.864360 0.565646 0.537618 0.047724
C83   C     C_R   0.368306 0.944555 0.515420 0.047998
C84   C     C_R   0.631734 0.055361 0.484498 0.047948
C85   C     C_R   0.606163 0.937367 0.559489 0.064795
C86   C     C_R   0.393865 0.062556 0.440458 0.065145
C87   C     C_R   0.826211 0.435573 0.503441 -0.103618
C88   C     C_R   0.155694 0.565520 0.566229 -0.121328
C89   C     C_R   0.155779 0.434603 0.566205 -0.121462
C90   C     C_R   0.434360 0.116287 0.395718 0.142672
C91   C     C_R   0.826091 0.564250 0.503615 -0.112585
C92   C     C_R   0.328949 0.939671 0.485304 -0.107895
C93   C     C_R   0.671042 0.060301 0.514729 -0.108929
C94   C     C_R   0.657858 0.935905 0.555962 -0.111810
C95   C     C_R   0.342127 0.064067 0.444120 -0.111101
C96   C     C_R   0.810366 0.499972 0.483095 -0.326739
C97   C     C_R   0.181444 0.500011 0.559511 -0.300309
C98   C     C_R   0.315405 0.000138 0.452387 -0.308180
C99   C     C_R   0.684558 0.999853 0.547730 -0.308181
C100  C     C_3   0.074099 0.310192 0.666358 -0.849621
C101  C     C_R   0.372399 0.894410 0.576245 0.125835
C102  C     C_3   0.831471 0.676276 0.640768 -0.797449
C103  C     C_3   0.833333 0.322328 0.638685 -0.793629
C104  C     C_3   0.073759 0.690052 0.666327 -0.850699
C105  C     C_3   0.568840 0.831957 0.672071 -0.860206
C106  C     C_3   0.431178 0.167922 0.327818 -0.864333
C107  C     C_3   0.322737 0.855501 0.647736 -0.834636
C108  C     C_3   0.677353 0.144407 0.352182 -0.837015
C109  C     C_3   0.710115 0.470807 0.062300 -0.936703
C110  C     C_3   0.288678 0.531891 0.938999 -0.948040
C111  C     C_3   0.354996 0.367302 0.826456 -0.937945
C112  C     C_R   0.299685 0.735472 0.322421 0.918236
C113  C     C_R   0.627683 0.105456 0.423584 0.126909
C114  C     C_3   0.582829 0.751726 0.198622 -0.946798
C115  C     C_3   0.109902 0.819056 0.202511 -0.942255
C116  C     C_3   0.892038 0.184426 0.796433 -0.965125
C117  C     C_3   0.880309 0.801635 0.809481 -0.958633
C118  C     C_3   0.114862 0.187500 0.197824 -0.932721
C119  C     C_3   0.732283 0.125409 0.759347 -0.852467
C120  C     C_3   0.269165 0.876135 0.240711 -0.859248
C121  C     C_3   0.268747 0.117061 0.256959 -0.850304
C122  C     C_3   0.734513 0.882578 0.738362 -0.838130
C123  C     C_3   0.233310 0.616318 0.738426 -0.829668
C124  C     C_R   0.734663 0.290517 0.938118 -0.024512
C125  C     C_3   0.766667 0.384280 0.262535 -0.825266
C126  C     C_3   0.681466 0.820934 0.336680 -0.798885
C127  C     C_3   0.313686 0.170604 0.671040 -0.806269
C128  C     C_R   0.266794 0.712329 0.060462 -0.024258
C129  C     C_R   0.284818 0.249944 0.041088 -0.026979
C130  C     C_R   0.705712 0.759492 0.966285 -0.024959
C131  C     C_R   0.205934 0.741207 0.969962 -0.025464
C132  C     C_R   0.795339 0.261431 0.028934 -0.025685
C133  C     C_R   0.766481 0.791291 0.055899 -0.028036
C134  C     C_R   0.225653 0.212940 0.951459 -0.027867
C135  C     C_R   0.773931 0.234901 0.907023 0.014580
C136  C     C_R   0.299938 0.263849 0.322730 0.897515
C137  C     C_R   0.227817 0.768270 0.091304 0.017989
C138  C     C_R   0.237921 0.206704 0.085263 0.021065
C139  C     C_R   0.756480 0.794387 0.919682 0.021337
C140  C     C_R   0.246757 0.687432 0.935964 0.023672
C141  C     C_R   0.754450 0.315235 0.062967 0.024724
C142  C     C_R   0.711685 0.766912 0.106649 0.030040
C143  C     C_R   0.278590 0.240251 0.902494 0.025470
C144  C     C_R   0.810069 0.228892 0.943770 0.052290
C145  C     C_R   0.191534 0.774239 0.054801 0.050857
C146  C     C_R   0.202969 0.200045 0.045853 0.045268
C147  C     C_R   0.700136 0.735789 0.676927 0.875757
C148  C     C_R   0.790261 0.800895 0.960807 0.044874
C149  C     C_R   0.271823 0.665829 0.989282 0.051524
C150  C     C_R   0.729336 0.336955 0.009643 0.050655
C151  C     C_R   0.680805 0.749475 0.061439 0.045233
C152  C     C_R   0.303062 0.271963 0.950414 0.047265
C153  C     C_R   0.664037 0.358129 0.924037 0.023092
C154  C     C_R   0.336658 0.643515 0.075308 0.027195
C155  C     C_R   0.352115 0.327248 0.052128 0.036650
C156  C     C_R   0.631606 0.695486 0.958846 0.030520
C157  C     C_R   0.134080 0.809362 0.959677 0.031315
C158  C     C_R   0.199933 0.763744 0.677659 0.871654
C159  C     C_R   0.866538 0.191914 0.039931 0.031560
C160  C     C_R   0.852344 0.828178 0.051647 0.040329
C161  C     C_R   0.141696 0.176620 0.953242 0.038054
C162  C     C_R   0.627032 0.362640 0.888832 -0.124749
C163  C     C_R   0.373484 0.638372 0.110771 -0.113839
C164  C     C_R   0.379815 0.349137 0.101220 -0.117977
C165  C     C_R   0.611101 0.662783 0.904540 -0.126519
C166  C     C_R   0.111578 0.837789 0.905702 -0.126473
C167  C     C_R   0.888511 0.162547 0.094244 -0.124820
C168  C     C_R   0.880904 0.848253 0.099897 -0.121683
C169  C     C_R   0.800121 0.236469 0.322354 0.898610
C170  C     C_R   0.114330 0.156869 0.903602 -0.124409
C171  C     C_R   0.634986 0.322203 0.814811 -0.299105
C172  C     C_R   0.365550 0.678605 0.184953 -0.303488
C173  C     C_R   0.366068 0.319359 0.184526 -0.304964
C174  C     C_R   0.632032 0.682280 0.814990 -0.301927
C175  C     C_R   0.131050 0.815457 0.817334 -0.308092
C176  C     C_R   0.868723 0.184423 0.182807 -0.307231
C177  C     C_R   0.860120 0.830766 0.189356 -0.304281
C178  C     C_R   0.135486 0.175593 0.813995 -0.305252
C179  C     C_R   0.678029 0.275128 0.775791 -0.131819
C180  C     C_R   0.792461 0.779728 0.328309 0.934550
C181  C     C_R   0.322553 0.725806 0.223997 -0.137657
C182  C     C_R   0.324648 0.269706 0.223782 -0.129830
C183  C     C_R   0.674247 0.731200 0.775516 -0.124258
C184  C     C_R   0.173678 0.767069 0.777715 -0.122744
C185  C     C_R   0.826392 0.233310 0.222275 -0.126216
C186  C     C_R   0.808215 0.804929 0.237316 -0.129375
C187  C     C_R   0.188322 0.198954 0.766048 -0.118623
C188  C     C_R   0.706397 0.254772 0.824728 0.075076
C189  C     C_R   0.294676 0.746992 0.174577 0.079967
C190  C     C_R   0.300902 0.239156 0.172190 0.070569
C191  C     C_R   0.206204 0.222148 0.673230 0.906781
C192  C     C_R   0.696577 0.763659 0.827946 0.063980
C193  C     C_R   0.195220 0.733765 0.831850 0.073354
C194  C     C_R   0.805235 0.267388 0.167924 0.071761
C195  C     C_R   0.773961 0.799956 0.196003 0.066220
C196  C     C_R   0.221658 0.201930 0.809040 0.064075
C197  C     C_R   0.696847 0.127410 0.517144 0.920341
C198  C     C_R   0.303145 0.872582 0.482878 0.917320
C199  C     C_R   0.309065 0.129613 0.462926 0.876801
C200  C     C_R   0.690918 0.870365 0.537169 0.877127
C201  C     C_R   0.191017 0.629578 0.537115 0.903879
C202  C     C_R   0.888941 0.499825 0.540749 -0.007888
C203  C     C_R   0.802636 0.371695 0.486164 0.915705
C204  C     C_R   0.802646 0.628315 0.486135 0.936012
C205  C     C_R   0.191057 0.370411 0.537026 0.925460
C206  C     C_R   0.701679 0.300894 0.895834 0.025550
C207  C     C_R   0.299483 0.701295 0.103113 0.026150
C208  C     C_R   0.313089 0.271603 0.088113 0.026970
C209  C     C_R   0.678359 0.738794 0.917273 0.031210
C210  C     C_R   0.178815 0.761852 0.919963 0.027862
C211  C     C_R   0.822002 0.239912 0.079426 0.028410
C212  C     C_R   0.797789 0.805497 0.100861 0.031923
H1    H     H_    0.007424 0.252013 0.614783 0.148162
H2    H     H_    0.223864 0.499941 0.542341 0.200088
H3    H     H_    0.799641 0.377197 0.280225 0.235554
H4    H     H_    0.726380 0.383710 0.324446 0.245552
H5    H     H_    0.772692 0.439088 0.231468 0.218435
H6    H     H_    0.660467 0.777042 0.386566 0.259663
H7    H     H_    0.704644 0.857167 0.358018 0.230825
H8    H     H_    0.649904 0.855702 0.333935 0.217560
H9    H     H_    0.289020 0.138756 0.648408 0.231126
H10   H     H_    0.337661 0.213027 0.620905 0.260502
H11   H     H_    0.342535 0.131420 0.675220 0.217528
H12   H     H_    0.280984 0.999074 0.439891 0.197175
H13   H     H_    0.718950 0.000937 0.560304 0.197295
H14   H     H_    0.609850 0.331586 0.783034 0.190735
H15   H     H_    0.390476 0.668736 0.217011 0.187747
H16   H     H_    0.385587 0.339124 0.222380 0.191674
H17   H     H_    0.616660 0.656194 0.774185 0.194732
H18   H     H_    0.114760 0.839951 0.776810 0.192994
H19   H     H_    0.884579 0.159220 0.223560 0.192717
H20   H     H_    0.884309 0.839797 0.222873 0.190049
H21   H     H_    0.923795 0.746242 0.604319 0.151662
H22   H     H_    0.111561 0.167219 0.779883 0.187887
H23   H     H_    0.645675 0.462482 0.991715 0.180776
H24   H     H_    0.353938 0.538782 0.008696 0.166354
H25   H     H_    0.380630 0.410392 0.945569 0.188402
H26   H     H_    0.562470 0.674553 0.089347 0.175281
H27   H     H_    0.070688 0.842642 0.093419 0.178479
H28   H     H_    0.930168 0.158469 0.906538 0.177077
H29   H     H_    0.920249 0.834929 0.916300 0.167611
H30   H     H_    0.073470 0.166997 0.088549 0.164402
H31   H     H_    0.796343 0.133837 0.832571 0.174734
H32   H     H_    0.927017 0.252926 0.597906 0.148906
H33   H     H_    0.205828 0.869375 0.165725 0.171952
H34   H     H_    0.202889 0.122161 0.185620 0.165702
H35   H     H_    0.797994 0.873329 0.813600 0.169898
H36   H     H_    0.292901 0.618000 0.819611 0.172077
H37   H     H_    0.708064 0.384251 0.179611 0.172815
H38   H     H_    0.651782 0.736445 0.243903 0.173142
H39   H     H_    0.350229 0.230911 0.772463 0.163194
H40   H     H_    0.086251 0.258171 0.628412 0.252931
H41   H     H_    0.034807 0.301884 0.728956 0.218905
H42   H     H_    0.103850 0.324798 0.689211 0.232480
H43   H     H_    0.004520 0.747511 0.620030 0.150693
H44   H     H_    0.837679 0.732637 0.614439 0.257870
H45   H     H_    0.791349 0.654723 0.655289 0.234624
H46   H     H_    0.830993 0.676964 0.707154 0.213177
H47   H     H_    0.792894 0.344113 0.654915 0.235201
H48   H     H_    0.839453 0.266344 0.611194 0.256292
H49   H     H_    0.833726 0.320277 0.704398 0.216901
H50   H     H_    0.103721 0.675375 0.688798 0.223635
H51   H     H_    0.085694 0.741923 0.628087 0.252627
H52   H     H_    0.034646 0.698614 0.729245 0.219009
H53   H     H_    0.574670 0.775347 0.646339 0.247629
H54   H     H_    0.482931 0.785279 0.670269 0.156151
H55   H     H_    0.601615 0.845630 0.688126 0.222337
H56   H     H_    0.530828 0.835348 0.737874 0.226641
H57   H     H_    0.398343 0.154301 0.311892 0.220267
H58   H     H_    0.425418 0.224535 0.353523 0.247628
H59   H     H_    0.469146 0.164481 0.261954 0.227777
H60   H     H_    0.284607 0.875014 0.650649 0.227738
H61   H     H_    0.327167 0.796130 0.635503 0.261690
H62   H     H_    0.318249 0.866422 0.715942 0.224043
H63   H     H_    0.681913 0.133466 0.283933 0.224706
H64   H     H_    0.715466 0.124944 0.349369 0.226412
H65   H     H_    0.517234 0.214436 0.329261 0.156763
H66   H     H_    0.672874 0.203775 0.364421 0.261613
H67   H     H_    0.713615 0.518744 0.019606 0.247648
H68   H     H_    0.675691 0.480577 0.131182 0.235366
H69   H     H_    0.749057 0.468139 0.063895 0.253707
H70   H     H_    0.286407 0.483528 0.980223 0.255762
H71   H     H_    0.248816 0.535047 0.940614 0.257855
H72   H     H_    0.321673 0.523161 0.868832 0.234024
H73   H     H_    0.374348 0.420788 0.820854 0.227017
H74   H     H_    0.385366 0.335428 0.768341 0.237539
H75   H     H_    0.318014 0.376988 0.819978 0.258725
H76   H     H_    0.401391 0.790897 0.660510 0.153918
H77   H     H_    0.544071 0.765313 0.199345 0.244615
H78   H     H_    0.574057 0.707648 0.248846 0.234653
H79   H     H_    0.595043 0.802826 0.218732 0.252005
H80   H     H_    0.067042 0.801486 0.230520 0.240552
H81   H     H_    0.126958 0.785691 0.237724 0.257946
H82   H     H_    0.110187 0.877392 0.218827 0.235020
H83   H     H_    0.934609 0.202965 0.769217 0.239547
H84   H     H_    0.892530 0.126108 0.779443 0.236060
H85   H     H_    0.874716 0.217341 0.761362 0.253829
H86   H     H_    0.919465 0.774606 0.792370 0.243068
H87   H     H_    0.598769 0.208826 0.339035 0.154328
H88   H     H_    0.859594 0.764948 0.783853 0.254726
H89   H     H_    0.889332 0.854548 0.773565 0.232444
H90   H     H_    0.072808 0.207063 0.220972 0.238512
H91   H     H_    0.112363 0.132502 0.226554 0.232743
H92   H     H_    0.133195 0.226308 0.225671 0.257358
H93   H     H_    0.697412 0.130512 0.746105 0.235594
H94   H     H_    0.770180 0.116185 0.694620 0.242939
H95   H     H_    0.724431 0.076591 0.802713 0.217985
H96   H     H_    0.231069 0.885461 0.305080 0.246775
H97   H     H_    0.303659 0.870241 0.254813 0.231948
H98   H     H_    0.783410 0.500055 0.453708 0.193629
H99   H     H_    0.277614 0.925190 0.197544 0.218233
H100  H     H_    0.303179 0.123858 0.271052 0.222944
H101  H     H_    0.230059 0.112744 0.321524 0.248650
H102  H     H_    0.275754 0.064888 0.219860 0.217047
H103  H     H_    0.773821 0.884495 0.674583 0.244017
H104  H     H_    0.700427 0.877845 0.723015 0.228445
H105  H     H_    0.728862 0.935199 0.774078 0.214928
H106  H     H_    0.200110 0.623113 0.721211 0.227353
H107  H     H_    0.273420 0.616384 0.676141 0.245040
H108  H     H_    0.227293 0.561818 0.770250 0.219995
O1    O     O_R   0.746490 0.236330 0.638080 -0.637017
O2    O     O_R   0.325830 0.813840 0.483730 -0.619955
O3    O     O_R   0.325830 0.186160 0.483730 -0.631342
O4    O     O_R   0.674170 0.813840 0.516270 -0.634659
O5    O     O_R   0.174170 0.686160 0.516270 -0.611796
O6    O     O_R   0.825830 0.313840 0.483730 -0.626685
O7    O     O_R   0.825830 0.686160 0.483730 -0.619990
O8    O     O_R   0.174170 0.313840 0.516270 -0.611604
O9    O     O_R   0.739960 0.127620 0.525000 -0.636569
O10   O     O_R   0.260040 0.872380 0.475000 -0.638233
O11   O     O_R   0.260040 0.127620 0.475000 -0.635086
O12   O     O_R   0.253510 0.763670 0.361920 -0.611530
O13   O     O_R   0.739960 0.872380 0.525000 -0.635627
O14   O     O_R   0.239960 0.627620 0.525000 -0.632814
O15   O     O_R   0.760040 0.372380 0.475000 -0.634949
O16   O     O_R   0.760040 0.627620 0.475000 -0.622662
O17   O     O_R   0.239960 0.372380 0.525000 -0.624862
O18   O     O_R   0.680700 0.294870 0.629350 -0.618069
O19   O     O_R   0.319300 0.705130 0.370650 -0.615806
O20   O     O_R   0.319300 0.294870 0.370650 -0.626565
O21   O     O_R   0.680700 0.705130 0.629350 -0.633078
O22   O     O_R   0.180700 0.794870 0.629350 -0.634640
O23   O     O_R   0.253510 0.236330 0.361920 -0.613112
O24   O     O_R   0.819300 0.205130 0.370650 -0.622633
O25   O     O_R   0.819300 0.794870 0.370650 -0.622085
O26   O     O_R   0.180700 0.205130 0.629350 -0.637761
O27   O     O_R   0.062020 0.072840 0.007170 -0.618987
O28   O     O_R   0.937980 0.927160 0.992830 -0.622360
O29   O     O_R   0.937980 0.072840 0.992830 -0.627479
O30   O     O_R   0.062020 0.927160 0.007170 -0.625619
O31   O     O_R   0.562020 0.572840 0.007170 -0.639603
O32   O     O_R   0.437980 0.427160 0.992830 -0.646963
O33   O     O_R   0.437980 0.572840 0.992830 -0.632602
O34   O     O_R   0.746490 0.763670 0.638080 -0.640557
O35   O     O_R   0.562020 0.427160 0.007170 -0.623758
O36   O     O_R   0.947860 0.073950 0.109290 -0.621042
O37   O     O_R   0.052140 0.926050 0.890710 -0.619672
O38   O     O_R   0.052140 0.073950 0.890710 -0.617857
O39   O     O_R   0.947860 0.926050 0.109290 -0.617094
O40   O     O_R   0.447860 0.573950 0.109290 -0.627374
O41   O     O_R   0.552140 0.426050 0.890710 -0.614862
O42   O     O_R   0.552140 0.573950 0.890710 -0.617115
O43   O     O_R   0.447860 0.426050 0.109290 -0.614177
O44   O     O_R   0.246490 0.736330 0.638080 -0.634149
O45   O     O_R   0.753510 0.263670 0.361920 -0.633672
O46   O     O_R   0.753510 0.736330 0.361920 -0.617610
O47   O     O_R   0.246490 0.263670 0.638080 -0.621588
O48   O     O_R   0.674170 0.186160 0.516270 -0.617932
Zn1   Zn    Zn3+2 0.792340 0.208750 0.507670 0.913247
Zn2   Zn    Zn3+2 0.494040 0.500000 0.919480 0.928298
Zn3   Zn    Zn3+2 0.005960 1.000000 0.080520 0.932156
Zn4   Zn    Zn3+2 0.994040 1.000000 0.919480 0.926633
Zn5   Zn    Zn3+2 0.207660 0.791250 0.492330 0.927847
Zn6   Zn    Zn3+2 0.207660 0.208750 0.492330 0.922952
Zn7   Zn    Zn3+2 0.792340 0.791250 0.507670 0.909502
Zn8   Zn    Zn3+2 0.292340 0.708750 0.507670 0.924379
Zn9   Zn    Zn3+2 0.707660 0.291250 0.492330 0.923990
Zn10  Zn    Zn3+2 0.707660 0.708750 0.492330 0.923478
Zn11  Zn    Zn3+2 0.292340 0.291250 0.507670 0.928876
Zn12  Zn    Zn3+2 0.505960 0.500000 0.080520 0.931027

loop_
_geom_bond_atom_site_label_1
_geom_bond_atom_site_label_2
_ccdc_geom_bond_type
C132  C144  A    
C101  C107  S    
C119  H94   S    
C120  H97   S    
C136  O23   A    
O32   Zn2   S    
C20   C118  S    
O34   Zn7   S    
C105  H56   S    
C22   C120  S    
C132  C211  A    
O42   Zn2   S    
C50   C59   A    
C52   C61   A    
C191  O47   A    
C54   C63   A    
C58   C60   A    
C184  C193  A    
C28   C195  A    
C159  C211  A    
C118  H90   S    
C39   O38   A    
C61   C63   A    
C62   C64   A    
C131  C140  A    
C91   C96   A    
C42   O30   A    
C50   C90   A    
C89   C205  S    
C162  C171  A    
C70   C74   A    
C4    C12   A    
C24   C85   A    
O18   Zn9   S    
C88   C97   A    
C4    C153  A    
C156  C209  A    
C49   C69   A    
C115  H82   S    
O11   Zn6   S    
C104  H50   S    
C100  H42   S    
C8    C157  A    
C126  H8    S    
C134  C146  A    
C205  O8    A    
C11   C20   A    
C37   C142  A    
C123  H107  S    
C12   C150  A    
O41   Zn2   S    
C129  C152  A    
C86   C90   A    
O4    Zn10  S    
C71   C73   A    
C179  C188  A    
C47   O41   A    
C177  C186  A    
C201  O5    A    
O20   Zn11  S    
C51   C66   A    
C108  C113  S    
O39   Zn3   S    
C52   C72   A    
C109  H69   S    
C154  C163  A    
C54   C70   A    
C9    H28   S    
C122  H103  S    
O21   Zn10  S    
C163  C172  A    
C170  C178  A    
C173  C182  A    
C97   H2    S    
C120  H99   S    
C20   C146  A    
C26   C123  S    
C112  O19   A    
C10   C160  A    
C79   C85   A    
C109  H68   S    
O10   Zn5   S    
C124  C135  A    
C107  H60   S    
C57   C78   A    
C41   O29   A    
O12   Zn5   S    
C25   C192  A    
C200  O4    A    
C19   C148  A    
C56   C59   A    
C121  H102  S    
C80   C88   A    
O46   Zn10  S    
C8    C17   A    
C125  H3    S    
C33   C139  A    
C121  H100  S    
C14   C149  A    
C34   C140  A    
C159  C167  A    
C16   C151  A    
C84   C93   A    
C160  C168  A    
C48   C67   A    
C45   C163  S    
C107  H61   S    
C86   C95   A    
C24   C77   A    
C21   C119  S    
C32   H34   S    
C115  H80   S    
O37   Zn4   S    
C2    C81   A    
C182  C190  A    
C55   C71   A    
C2    C75   A    
C168  C177  A    
C78   C87   A    
C116  H83   S    
C38   C143  A    
O44   Zn8   S    
C67   C77   A    
C198  O2    A    
C108  H63   S    
C58   H76   S    
C197  O9    A    
O15   Zn9   S    
C133  C142  A    
C119  H95   S    
C172  H15   S    
C110  H72   S    
C105  H53   S    
C69   C76   A    
C85   C94   A    
C46   C82   A    
C47   C162  S    
C203  O15   A    
C172  C181  A    
C7    C156  A    
C98   H12   S    
C29   C38   A    
C91   C204  S    
C134  C143  A    
C106  H59   S    
C61   H43   S    
C45   O33   A    
C87   C96   A    
C171  C179  A    
C10   H29   S    
O43   Zn12  S    
C72   C75   A    
C92   C198  S    
C141  C150  A    
C111  H73   S    
C197  O48   A    
C139  C148  A    
C114  H78   S    
C64   H1    S    
O23   Zn6   S    
C178  H22   S    
C129  C208  A    
C3    C161  A    
C165  C174  A    
C102  H46   S    
C93   C197  S    
C32   C138  A    
C199  O3    A    
C171  H14   S    
C27   C194  A    
C169  O45   A    
C180  C186  S    
C201  O14   A    
C116  H85   S    
C29   C127  S    
C31   C137  A    
C35   C100  S    
C17   C115  S    
C21   C188  A    
C203  O6    A    
C132  C141  A    
C14   C110  S    
C83   C101  A    
O1    Zn1   S    
C6    C155  A    
C60   H54   S    
O13   Zn7   S    
C16   C114  S    
C112  C181  S    
C110  H70   S    
C105  H55   S    
C104  H52   S    
C205  O17   A    
C3    C134  A    
C195  C212  A    
C193  C210  A    
C28   C37   A    
C138  C146  A    
O5    Zn5   S    
C111  H74   S    
C118  H91   S    
C131  C145  A    
C102  H44   S    
C50   C65   A    
C51   C79   A    
O38   Zn4   S    
C126  H6    S    
C9    C18   A    
C106  H57   S    
O8    Zn6   S    
C48   C113  A    
C130  C209  A    
O2    Zn8   S    
C51   C60   A    
C158  O44   A    
C1    O18   A    
C140  C149  A    
C23   C190  A    
C204  O16   A    
C96   H98   S    
C40   O39   A    
O31   Zn12  S    
C187  C196  A    
C115  H81   S    
C73   C74   A    
C185  C194  A    
C183  C192  A    
C177  H20   S    
C176  C185  A    
C23   C121  S    
C40   O28   A    
C188  C206  A    
C166  C175  A    
C65   C76   A    
O17   Zn11  S    
C137  C145  A    
C49   C101  A    
C37   H38   S    
C11   C161  A    
C103  H48   S    
O24   Zn1   S    
C127  H10   S    
C181  C189  A    
C65   C67   A    
C5    H24   S    
C119  H93   S    
C93   C99   A    
C81   C89   A    
C175  H18   S    
O36   Zn3   S    
C130  C139  A    
C87   C203  S    
C15   C152  A    
C109  H67   S    
C28   C126  S    
C43   C165  S    
C56   H87   S    
C57   C103  S    
C6    H25   S    
C95   C98   A    
C90   C106  S    
C155  C208  A    
C18   C116  S    
C53   C57   A    
C74   C202  A    
C176  H19   S    
O47   Zn11  S    
C117  H86   S    
C157  C166  A    
C17   C145  A    
C36   C141  A    
C158  O22   A    
C7    H26   S    
C10   C19   A    
C46   C54   A    
C36   H37   S    
C22   C189  A    
O28   Zn4   S    
C5    C14   A    
C99   H13   S    
C178  C187  A    
C7    C16   A    
C147  O34   A    
C59   H65   S    
C100  H41   S    
C29   C196  A    
C126  H7    S    
C82   C202  A    
C124  C150  A    
C116  H84   S    
C123  H108  S    
C103  H47   S    
C68   C104  S    
C108  H64   S    
C204  O7    A    
O3    Zn11  S    
C174  C183  A    
C1    O1    A    
O30   Zn3   S    
C62   H32   S    
C200  O13   A    
O40   Zn12  S    
O7    Zn7   S    
C27   C36   A    
C21   C30   A    
C13   C83   A    
C3    C196  A    
C153  C162  A    
C23   C32   A    
C18   C144  A    
O48   Zn9   S    
C27   C125  S    
O45   Zn9   S    
C156  C165  A    
C189  C207  A    
C39   O27   A    
C33   H35   S    
O22   Zn5   S    
C94   C200  S    
C66   C77   A    
C192  C209  A    
C82   C91   A    
C128  C149  A    
C19   C117  S    
C30   C135  A    
C117  H89   S    
C130  C151  A    
C169  O24   A    
C111  H75   S    
C44   C164  S    
O33   Zn2   S    
C136  O20   A    
C26   C193  A    
C158  C184  S    
C42   C166  S    
C175  C184  A    
C43   O42   A    
C125  H5    S    
C68   C80   A    
C84   C113  A    
C44   O32   A    
C45   O40   A    
O14   Zn8   S    
C35   C81   A    
C41   O36   A    
C92   C98   A    
O16   Zn10  S    
C199  O11   A    
C83   C92   A    
C46   C102  S    
C117  H88   S    
C114  H79   S    
O26   Zn6   S    
C191  O26   A    
C39   C170  S    
C125  H4    S    
C66   C69   A    
C9    C159  A    
C121  H101  S    
C42   O37   A    
O9    Zn1   S    
C79   C105  S    
C44   O43   A    
C107  H62   S    
C194  C211  A    
C26   C34   A    
C129  C138  A    
O25   Zn7   S    
C13   C86   A    
C128  C207  A    
C88   C201  S    
C25   C122  S    
C187  C191  S    
C52   C68   A    
C127  H11   S    
C6    C15   A    
C157  C210  A    
C123  H106  S    
C131  C210  A    
C108  H66   S    
C12   C109  S    
O6    Zn1   S    
C103  H49   S    
C160  C212  A    
C22   C31   A    
C35   C55   A    
C15   C111  S    
C186  C195  A    
C164  C173  A    
C112  O12   A    
C110  H71   S    
C49   C58   A    
C89   C97   A    
O29   Zn4   S    
O19   Zn8   S    
C198  O10   A    
C128  C137  A    
C63   H21   S    
C53   C62   A    
C38   H39   S    
C13   C76   A    
C55   C64   A    
C120  H96   S    
C118  H92   S    
C133  C148  A    
C180  O25   A    
C161  C170  A    
C190  C208  A    
C135  C144  A    
C104  H51   S    
C106  H58   S    
C30   H31   S    
C34   H36   S    
C4    H23   S    
C136  C182  S    
C47   O35   A    
C8    H27   S    
C147  C183  S    
C48   C56   A    
C143  C152  A    
C114  H77   S    
C124  C206  A    
C53   C73   A    
C78   C202  A    
C100  H40   S    
C173  H16   S    
C5    C154  A    
C43   O31   A    
C155  C164  A    
C142  C151  A    
C122  H104  S    
C102  H45   S    
C180  O46   A    
C24   C84   A    
C169  C185  S    
C71   C75   A    
C1    C179  S    
C94   C99   A    
C41   C167  S    
O35   Zn12  S    
O27   Zn3   S    
C174  H17   S    
C40   C168  S    
C2    C80   A    
C127  H9    S    
C153  C206  A    
C122  H105  S    
C95   C199  S    
C25   C33   A    
C11   H30   S    
C31   H33   S    
C70   C72   A    
C154  C207  A    
C133  C212  A    
C167  C176  A    
C147  O21   A    
