data_mof_unit_39486.cif
_audit_creation_date              2012-12-10T19:15:24-0500
_audit_creation_method            fapswitch 2.2
_symmetry_space_group_name_H-M    P1
_symmetry_Int_Tables_number       1
_space_group_crystal_system       triclinic
_cell_length_a                    10.618406
_cell_length_b                    9.815269
_cell_length_c                    23.168855
_cell_angle_alpha                 89.378651
_cell_angle_beta                  89.644771
_cell_angle_gamma                 89.893165
_cell_volume                      2414.52395316

loop_
_atom_site_label
_atom_site_type_symbol
_atom_type_description
_atom_site_fract_x
_atom_site_fract_y
_atom_site_fract_z
_atom_type_partial_charge
C1    C     C_R   0.258053 0.499860 0.502237 0.904554
C2    C     C_R   0.459301 0.266381 0.972362 -0.144537
C3    C     C_R   0.461562 0.264237 0.032380 -0.145573
C4    C     C_R   0.533970 0.359570 0.062241 -0.024099
C5    C     C_R   0.608937 0.453982 0.031407 -0.018088
C6    C     C_R   0.681999 0.549919 0.061095 -0.022882
C7    C     C_R   0.757606 0.642341 0.029871 -0.144609
C8    C     C_R   0.757230 0.642674 0.969702 -0.144353
C9    C     C_R   0.529646 0.366582 0.122331 0.521567
C10   C     C_R   0.673189 0.554158 0.121334 0.525293
C11   C     C_R   0.668326 0.450603 0.249955 -0.059554
C12   C     C_R   0.500968 0.500487 0.389471 0.901201
C13   C     C_R   0.643298 0.459121 0.308684 -0.220399
C14   C     C_R   0.523942 0.500128 0.327988 -0.046912
C15   C     C_R   0.429122 0.533798 0.288448 0.237531
C16   C     C_R   0.454949 0.525753 0.229683 -0.092594
C17   C     C_R   0.573768 0.482812 0.210469 0.240486
C18   C     C_R   0.603926 0.368407 0.755796 -0.052114
C19   C     C_R   0.577160 0.374456 0.697396 -0.109703
C20   C     C_R   0.526593 0.493880 0.672816 -0.046044
C21   C     C_R   0.504824 0.607891 0.707394 -0.166072
C22   C     C_R   0.529018 0.600549 0.766318 -0.074605
C23   C     C_R   0.741799 0.499626 0.502791 0.904528
C24   C     C_R   0.577826 0.480357 0.790665 0.277123
C25   C     C_3   0.072337 0.609911 0.546106 -0.376717
C26   C     C_3   0.072738 0.358589 0.526256 -0.370347
C27   C     C_3   0.928129 0.616433 0.543747 0.137262
C28   C     C_3   0.929149 0.355990 0.525347 0.137953
C29   C     C_3   0.071666 0.527390 0.442652 -0.388215
C30   C     C_3   0.121373 0.499131 0.504240 0.003579
C31   C     C_3   0.878078 0.498621 0.505200 0.021500
C32   C     C_3   0.927277 0.524810 0.442877 -0.535734
C33   C     C_3   0.393501 0.081915 0.463752 -0.119079
C34   C     C_3   0.395369 0.920105 0.462642 -0.127940
C35   C     C_3   0.619992 0.080666 0.476272 -0.308010
C36   C     C_3   0.621296 0.919930 0.477761 -0.304312
C37   C     C_3   0.483221 0.079720 0.558444 0.165848
C38   C     C_3   0.480595 0.917006 0.558263 0.160908
C39   C     C_R   0.504189 0.498946 0.610759 0.951958
C40   C     C_R   0.672478 0.554984 0.879500 0.521772
C41   C     C_R   0.522934 0.372928 0.881234 0.512814
C42   C     C_R   0.530293 0.363104 0.941243 -0.016011
C43   C     C_R   0.607651 0.455197 0.970735 -0.017146
C44   C     C_R   0.680622 0.551179 0.939760 -0.022941
H1    H     H_    0.400143 0.193667 0.950530 0.198827
H2    H     H_    0.597399 0.285874 0.671445 0.190016
H3    H     H_    0.467761 0.701483 0.689237 0.202340
H4    H     H_    0.507947 0.687263 0.793240 0.163359
H5    H     H_    0.110246 0.711827 0.533799 0.200144
H6    H     H_    0.108524 0.274877 0.498472 0.166383
H7    H     H_    0.104815 0.586519 0.590699 0.234671
H8    H     H_    0.108036 0.339082 0.570683 0.250292
H9    H     H_    0.902150 0.715484 0.523063 0.131704
H10   H     H_    0.900616 0.278500 0.493172 0.123282
H11   H     H_    0.104953 0.628719 0.426860 0.207441
H12   H     H_    0.108014 0.448831 0.412476 0.208709
H13   H     H_    0.890893 0.623519 0.425552 0.201991
H14   H     H_    0.893968 0.443509 0.413522 0.185556
H15   H     H_    0.403903 0.190152 0.055235 0.199003
H16   H     H_    0.303669 0.109922 0.485483 0.117852
H17   H     H_    0.304415 0.887095 0.482131 0.116889
H18   H     H_    0.639185 0.118537 0.431847 0.229446
H19   H     H_    0.646267 0.879650 0.434699 0.230032
H20   H     H_    0.564737 0.111504 0.585087 0.123197
H21   H     H_    0.558926 0.880336 0.586150 0.130399
H22   H     H_    0.699806 0.118267 0.502485 0.171966
H23   H     H_    0.698931 0.884879 0.506375 0.156954
H24   H     H_    0.815269 0.716335 0.051765 0.197794
H25   H     H_    0.814798 0.716773 0.946812 0.198530
H26   H     H_    0.759873 0.416472 0.235115 0.163635
H27   H     H_    0.716364 0.432092 0.339202 0.141060
H28   H     H_    0.381895 0.549403 0.198710 0.173723
H29   H     H_    0.642489 0.275639 0.774309 0.164937
N1    N     N_R   0.592662 0.468459 0.851753 -0.358110
N2    N     N_R   0.595346 0.465566 0.150229 -0.354219
N3    N     N_3   0.499750 0.138610 0.498760 -0.099589
N4    N     N_3   0.499750 0.861390 0.498760 -0.099214
O1    O     O_R   0.314910 0.616040 0.499990 -0.618536
O2    O     O_R   0.314910 0.383960 0.499990 -0.624613
O3    O     O_R   0.500080 0.616070 0.416130 -0.594795
O4    O     O_R   0.500080 0.383930 0.416130 -0.603971
O5    O     O_R   0.685320 0.616040 0.499970 -0.635947
O6    O     O_R   0.685320 0.383960 0.499970 -0.627647
O7    O     O_R   0.500150 0.616010 0.583820 -0.588409
O8    O     O_R   0.500150 0.383990 0.583820 -0.589956
O9    O     O_2   0.742918 0.644680 0.848842 -0.523465
O10   O     O_2   0.444321 0.289890 0.852572 -0.536840
O11   O     O_2   0.458563 0.277029 0.152801 -0.522429
O12   O     O_2   0.738688 0.648238 0.150698 -0.532265
Zn1   Zn    Zn3+2 0.500150 0.654960 0.499970 0.976680
Zn2   Zn    Zn3+2 0.500150 0.345040 0.499970 0.975767
Br1   Br    Br    0.854361 0.626436 0.621101 -0.427577
Br2   Br    Br    0.862102 0.287057 0.598939 -0.474976
C45   C     C_2   0.378533 0.149177 0.405020 0.504531
H30   H     H_    0.293619 0.207156 0.395814 0.037430
O13   O     O_2   0.459096 0.140070 0.367426 -0.506583
C46   C     C_2   0.387569 0.860243 0.402843 0.530844
H31   H     H_    0.301082 0.810853 0.389952 0.064309
O14   O     O_2   0.474144 0.868935 0.368093 -0.503188
Br3   Br    Br    0.337186 0.159531 0.599162 -0.436811
Br4   Br    Br    0.329150 0.839447 0.596033 -0.472279
Br5   Br    Br    0.261830 0.580688 0.312340 -0.565564

loop_
_geom_bond_atom_site_label_1
_geom_bond_atom_site_label_2
_ccdc_geom_bond_type
C22   H4    S    
C23   O5    A    
C41   C42   A    
C19   C20   A    
C16   H28   S    
C32   H14   S    
C33   C45   S    
C46   H31   S    
O8    Zn2   S    
C19   H2    S    
C7    C8    A    
O1    Zn1   S    
C8    H25   S    
C29   C30   S    
C23   O6    A    
C18   C24   A    
C39   O7    A    
C38   Br4   S    
C36   N4    S    
C26   H6    S    
C9    O11   S    
C5    C6    A    
C15   C16   A    
C34   C46   S    
C18   C19   A    
C40   O9    S    
C7    H24   S    
C35   C36   S    
C10   O12   S    
C16   C17   A    
C36   H19   S    
O2    Zn2   S    
C5    C43   A    
C21   C22   A    
C41   N1    A    
C1    O1    A    
O7    Zn1   S    
C32   H13   S    
C46   O14   D    
C2    H1    S    
C41   O10   S    
C35   N3    S    
C36   H23   S    
C27   C31   S    
C20   C39   S    
C28   H10   S    
C13   H27   S    
C35   H22   S    
C34   H17   S    
C28   Br2   S    
C23   C31   S    
C43   C44   A    
C25   H7    S    
C37   C38   S    
C26   H8    S    
C10   N2    A    
C33   N3    S    
C31   C32   S    
C38   H21   S    
C33   C34   S    
C27   Br1   S    
C45   O13   D    
C29   H12   S    
C37   N3    S    
C12   C14   S    
C26   C30   S    
C33   H16   S    
C1    O2    A    
C22   C24   A    
C25   C27   S    
C42   C43   A    
C39   O8    A    
C3    C4    A    
C37   H20   S    
O6    Zn2   S    
C25   C30   S    
C11   C17   A    
C28   C31   S    
C8    C44   A    
C4    C5    A    
C6    C10   A    
C27   H9    S    
C6    C7    A    
C38   N4    S    
C29   C32   S    
C29   H11   S    
C26   C28   S    
O5    Zn1   S    
C18   H29   S    
C2    C3    A    
C34   N4    S    
C11   C13   A    
C24   N1    S    
C2    C42   A    
C12   O3    A    
C1    C30   S    
C40   N1    A    
C12   O4    A    
C35   H18   S    
C15   Br5   S    
O3    Zn1   S    
C45   H30   S    
C25   H5    S    
N3    Zn2   S    
C11   H26   S    
O4    Zn2   S    
C40   C44   A    
C20   C21   A    
C17   N2    S    
N4    Zn1   S    
C14   C15   A    
C9    N2    A    
C4    C9    A    
C13   C14   A    
C37   Br3   S    
C21   H3    S    
C3    H15   S    
