data_mof_unit_59538.cif
_audit_creation_date              2012-12-11T14:27:05-0500
_audit_creation_method            fapswitch 2.2
_symmetry_space_group_name_H-M    P1
_symmetry_Int_Tables_number       1
_space_group_crystal_system       triclinic
_cell_length_a                    15.103593
_cell_length_b                    14.896019
_cell_length_c                    14.87951
_cell_angle_alpha                 109.310915
_cell_angle_beta                  109.321191
_cell_angle_gamma                 109.568848
_cell_volume                      2583.74686322

loop_
_atom_site_label
_atom_site_type_symbol
_atom_type_description
_atom_site_fract_x
_atom_site_fract_y
_atom_site_fract_z
_atom_type_partial_charge
C1    C     C_R   0.962296 0.778500 0.053675 -0.107735
C2    C     C_R   0.205562 0.802973 0.297127 -0.127024
C3    C     C_R   0.976287 0.407671 0.220521 -0.120917
C4    C     C_R   0.779950 0.230901 0.685509 -0.139050
C5    C     C_R   0.300379 0.591792 0.999331 -0.134998
C6    C     C_R   0.054118 0.499227 0.322586 0.134697
C7    C     C_R   0.301942 0.500397 0.938163 -0.005700
C8    C     C_R   0.297022 0.865751 0.297632 0.143564
C9    C     C_R   0.928130 0.130136 0.924153 -0.079448
C10   C     C_3   0.474408 0.398230 0.845897 -0.398762
C11   C     C_3   0.370211 0.397794 0.837272 -0.406025
C12   C     C_R   0.677736 0.190750 0.673788 0.130220
C13   C     C_3   0.563037 0.499387 0.053609 -0.403188
C14   C     C_3   0.576213 0.604241 0.950033 -0.377173
C15   C     C_3   0.573960 0.500583 0.954241 0.379135
C16   C     C_R   0.082501 0.591612 0.786164 -0.148196
C17   C     C_3   0.398596 0.500549 0.938887 0.386905
C18   C     C_3   0.460131 0.499845 0.044829 -0.383996
C19   C     C_3   0.471957 0.604083 0.940740 -0.400974
C20   C     C_2   0.381198 0.033688 0.468151 -0.107848
C21   C     C_2   0.373815 0.981751 0.371438 -0.198944
C22   C     C_2   0.486100 0.120683 0.563757 -0.115686
C23   C     C_R   0.046453 0.500489 0.689693 0.133745
C24   C     C_2   0.577290 0.121007 0.571213 -0.173731
C25   C     C_2   0.074014 0.419446 0.536298 -0.121729
C26   C     C_2   0.072553 0.503638 0.605002 -0.192769
C27   C     C_2   0.071773 0.412102 0.434762 -0.109033
C28   C     C_R   0.685378 0.408559 0.949621 -0.143633
C29   C     C_2   0.107691 0.502011 0.425542 -0.186546
C30   C     C_2   0.929944 0.963205 0.836253 -0.333585
C31   C     C_2   0.878430 0.010528 0.873502 0.557366
C32   C     C_2   0.941616 0.878629 0.858699 0.015504
C33   C     C_2   0.963253 0.889446 0.957794 -0.144009
C34   C     C_R   0.674188 0.500372 0.969374 0.003405
C35   C     C_R   0.994228 0.408841 0.695949 -0.119484
C36   C     C_R   0.775861 0.591993 0.040031 -0.127324
C37   C     C_R   0.687899 0.226896 0.776801 -0.084481
C38   C     C_R   0.048110 0.770970 0.956197 -0.136693
C39   C     C_R   0.990080 0.815854 0.988052 0.105640
C40   C     C_R   0.066933 0.591095 0.312362 -0.146989
C41   C     C_R   0.210315 0.408679 0.907915 -0.138407
C42   C     C_R   0.297336 0.801854 0.206865 -0.145001
C43   C     C_R   0.902993 0.194920 0.990169 -0.056730
C44   C     C_R   0.995769 0.196445 0.901392 -0.153387
H1    H     H_    0.926091 0.806874 0.099897 0.101344
H2    H     H_    0.481649 0.398963 0.774062 0.162136
H3    H     H_    0.325065 0.397006 0.760556 0.160368
H4    H     H_    0.800662 0.213904 0.621253 0.097536
H5    H     H_    0.318460 0.320881 0.832229 0.148429
H6    H     H_    0.560597 0.425046 0.057001 0.161361
H7    H     H_    0.408390 0.426069 0.044742 0.160945
H8    H     H_    0.645567 0.680864 0.025361 0.159567
H9    H     H_    0.584503 0.605884 0.878916 0.166825
H10   H     H_    0.428356 0.605459 0.864951 0.167078
H11   H     H_    0.495258 0.680543 0.012134 0.155799
H12   H     H_    0.182026 0.323381 0.855408 0.086944
H13   H     H_    0.633986 0.572462 0.131675 0.159349
H14   H     H_    0.481468 0.573458 0.118453 0.162073
H15   H     H_    0.315944 0.000440 0.483994 0.118039
H16   H     H_    0.139224 0.675389 0.814101 0.093204
H17   H     H_    0.437041 0.018897 0.354448 0.132357
H18   H     H_    0.486693 0.174490 0.634451 0.116050
H19   H     H_    0.578828 0.066280 0.502996 0.133783
H20   H     H_    0.059581 0.347221 0.545107 0.118737
H21   H     H_    0.084033 0.575396 0.596068 0.132804
H22   H     H_    0.021991 0.330873 0.362875 0.126137
H23   H     H_    0.349084 0.830180 0.174986 0.092807
H24   H     H_    0.163430 0.582541 0.498118 0.135597
H25   H     H_    0.990953 0.005728 0.819633 0.102499
H26   H     H_    0.947376 0.816891 0.800509 0.116574
H27   H     H_    0.623078 0.325560 0.914385 0.086922
H28   H     H_    0.961950 0.953665 0.018124 0.162506
H29   H     H_    0.968190 0.324884 0.641127 0.082731
H30   H     H_    0.796023 0.675583 0.085720 0.089288
H31   H     H_    0.624254 0.199342 0.795570 0.095177
H32   H     H_    0.087705 0.788564 0.910636 0.091355
H33   H     H_    0.121830 0.675757 0.376259 0.103318
H34   H     H_    0.840324 0.166062 0.010201 0.159411
H35   H     H_    0.652734 0.763125 0.814962 0.364268
H36   H     H_    0.016720 0.169446 0.838557 0.093792
H37   H     H_    0.172485 0.832369 0.346982 0.084400
H38   H     H_    0.947196 0.322476 0.198162 0.099129
H39   H     H_    0.356013 0.677222 0.032004 0.091515
H40   H     H_    0.468027 0.320690 0.842745 0.146285
N1    N     N_R   0.993980 0.704500 0.053430 -0.045064
N2    N     N_R   0.053690 0.556380 0.849240 -0.038771
N3    N     N_R   0.790390 0.443640 0.997160 -0.036339
N4    N     N_R   0.998260 0.443670 0.792970 -0.042393
N5    N     N_R   0.845830 0.556350 0.053430 -0.037547
N6    N     N_R   0.792820 0.295510 0.849240 -0.045368
N7    N     N_R   0.051260 0.704510 0.997160 -0.040570
N8    N     N_R   0.001740 0.556330 0.207030 -0.045226
N9    N     N_R   0.154170 0.443650 0.946570 -0.033725
N10   N     N_R   0.207180 0.704490 0.150760 -0.041189
N11   N     N_R   0.948740 0.295490 0.002840 -0.053642
N12   N     N_R   0.006020 0.295500 0.946570 -0.033150
N13   N     N_R   0.149890 0.704480 0.207030 -0.044416
N14   N     N_R   0.946310 0.443620 0.150760 -0.049383
N15   N     N_R   0.209610 0.556360 0.002840 -0.033887
N16   N     N_R   0.850110 0.295520 0.792970 -0.042407
Ni1   Ni    Ni4+2 0.997880 0.629240 0.129060 0.208948
Ni2   Ni    Ni4+2 0.002120 0.370760 0.870940 0.211157
Ni3   Ni    Ni4+2 0.129260 0.629260 0.000000 0.211517
Ni4   Ni    Ni4+2 0.870740 0.370740 0.000000 0.226727
O1    O     O_2   0.788041 0.963765 0.992005 -0.350902
O2    O     O_2   0.676110 0.962241 0.828632 -0.301033
O3    O     O_3   0.710873 0.798302 0.800598 -0.521687
S1    S     S_3+6 0.760596 0.933972 0.875647 -0.061081

loop_
_geom_bond_atom_site_label_1
_geom_bond_atom_site_label_2
_ccdc_geom_bond_type
C36   N5    A    
N15   Ni3   S    
N12   Ni2   S    
C27   C29   D    
C31   S1    S    
C11   H3    S    
N11   N12   A    
C3    C6    A    
N1    N7    A    
N8    N14   A    
C38   H32   S    
C43   H34   S    
C33   C39   S    
C13   C18   S    
C11   H5    S    
C8    C42   A    
C10   C15   S    
C38   C39   A    
C5    H39   S    
N2    N4    A    
C24   H19   S    
C13   H13   S    
C16   H16   S    
C23   C26   S    
C12   C37   A    
C33   H28   S    
C18   H14   S    
C41   N9    A    
C5    N15   A    
C2    N13   A    
C7    C17   S    
C10   H2    S    
C43   N11   A    
O3    S1    S    
C4    C12   A    
N9    N15   A    
C15   C34   S    
C21   H17   S    
C37   H31   S    
C28   C34   A    
C16   N2    A    
C28   N3    A    
N2    Ni3   S    
N6    N16   A    
C18   H7    S    
C8    C21   S    
C1    N1    A    
O1    S1    D    
C14   H8    S    
C9    C43   A    
C44   H36   S    
C5    C7    A    
C9    C31   S    
C32   H26   S    
N10   N13   A    
C25   C26   D    
C38   N7    A    
C13   H6    S    
C25   H20   S    
C41   H12   S    
C44   N12   A    
C22   H18   S    
C29   H24   S    
C35   N4    A    
C14   C15   S    
C6    C29   S    
C3    H38   S    
N16   Ni2   S    
C17   C18   S    
H35   O3    S    
C40   N8    A    
C20   H15   S    
N6    Ni4   S    
C36   H30   S    
N8    Ni1   S    
C37   N6    A    
C19   H10   S    
C20   C22   S    
N10   Ni3   S    
C16   C23   A    
C23   C35   A    
C4    N16   A    
C42   H23   S    
C6    C40   A    
C28   H27   S    
C30   H25   S    
N1    Ni1   S    
N11   Ni4   S    
C4    H4    S    
C19   H11   S    
C35   H29   S    
C9    C44   A    
N5    Ni1   S    
C42   N10   A    
C26   H21   S    
C14   C19   S    
C2    C8    A    
N7    Ni3   S    
C11   C17   S    
N9    Ni2   S    
N4    Ni2   S    
C25   C27   S    
C12   C24   S    
C32   C33   D    
C13   C15   S    
C27   H22   S    
C30   C32   S    
C3    N14   A    
C1    H1    S    
C30   C31   D    
O2    S1    D    
N14   Ni4   S    
C10   H40   S    
C17   C19   S    
C34   C36   A    
C22   C24   D    
C7    C41   A    
C10   C11   S    
C1    C39   A    
N3    Ni4   S    
C14   H9    S    
C20   C21   D    
N3    N5    A    
C40   H33   S    
C2    H37   S    
N13   Ni1   S    
