data_mof_unit_48686.cif
_audit_creation_date              2012-12-10T19:45:44-0500
_audit_creation_method            fapswitch 2.2
_symmetry_space_group_name_H-M    P1
_symmetry_Int_Tables_number       1
_space_group_crystal_system       triclinic
_cell_length_a                    10.824208
_cell_length_b                    14.901273
_cell_length_c                    14.682357
_cell_angle_alpha                 64.210379
_cell_angle_beta                  105.228907
_cell_angle_gamma                 101.431529
_cell_volume                      2047.80863361

loop_
_atom_site_label
_atom_site_type_symbol
_atom_type_description
_atom_site_fract_x
_atom_site_fract_y
_atom_site_fract_z
_atom_type_partial_charge
Br1   Br    Br    0.223803 0.177493 0.922919 -0.443284
Br2   Br    Br    0.777494 0.822271 0.076745 -0.442314
Br3   Br    Br    0.631176 0.715045 0.599540 -0.512826
Br4   Br    Br    0.368791 0.284926 0.400485 -0.512955
Br5   Br    Br    0.920520 0.300706 0.717325 -0.425804
Br6   Br    Br    0.079480 0.699274 0.282725 -0.425502
Br7   Br    Br    0.225344 0.842914 0.769710 -0.495237
Br8   Br    Br    0.775092 0.157465 0.230477 -0.495194
C1    C     C_R   0.472275 0.119665 0.311088 0.841149
C2    C     C_R   0.657118 0.771529 0.982068 0.219607
C3    C     C_R   0.377364 0.156962 0.120219 -0.104084
C4    C     C_R   0.622907 0.843019 0.879744 -0.103943
C5    C     C_R   0.482374 0.289814 0.173283 -0.151415
C6    C     C_R   0.517463 0.710204 0.826744 -0.151272
C7    C     C_R   0.468231 0.360754 0.070862 0.048701
C8    C     C_R   0.531690 0.639270 0.929178 0.048768
C9    C     C_R   0.387825 0.332325 0.991941 0.029474
C10   C     C_R   0.612253 0.667693 0.008050 0.029331
C11   C     C_R   0.524211 0.461779 0.047783 0.035855
C12   C     C_R   0.527725 0.880335 0.688913 0.841168
C13   C     C_R   0.475664 0.538249 0.952303 0.035906
C14   C     C_R   0.374479 0.510562 0.882288 -0.118357
C15   C     C_R   0.625356 0.489469 0.117829 -0.118257
C16   C     C_R   0.263522 0.999949 0.501720 0.824679
C17   C     C_R   0.736475 0.000054 0.498276 0.824710
C18   C     C_R   0.348039 0.410415 0.894131 -0.073672
C19   C     C_R   0.651901 0.589636 0.105901 -0.073520
C20   C     C_R   0.751160 0.298191 0.634707 0.176785
C21   C     C_R   0.248845 0.701811 0.365297 0.176885
C22   C     C_R   0.700671 0.210038 0.622243 0.026579
C23   C     C_R   0.870185 0.999203 0.497381 -0.043519
C24   C     C_R   0.299337 0.789968 0.377748 0.026682
C25   C     C_R   0.508352 0.283073 0.514898 0.357453
C26   C     C_R   0.491648 0.716926 0.485102 0.357390
C27   C     C_R   0.548585 0.370984 0.535269 -0.113116
C28   C     C_R   0.451420 0.629020 0.464724 -0.113043
C29   C     C_R   0.678015 0.381051 0.586212 0.024892
C30   C     C_R   0.321991 0.618954 0.413786 0.024884
C31   C     C_R   0.470913 0.452673 0.500258 0.097111
C32   C     C_R   0.529093 0.547333 0.499732 0.097144
C33   C     C_R   0.663390 0.557892 0.529546 -0.169274
C34   C     C_R   0.129808 0.000798 0.502618 -0.043562
C35   C     C_R   0.336618 0.442117 0.470444 -0.169548
C36   C     C_R   0.734768 0.475849 0.579655 -0.080967
C37   C     C_R   0.265240 0.524158 0.420341 -0.080962
C38   C     C_R   0.362027 0.014058 0.803704 -0.108761
C39   C     C_R   0.638439 0.986677 0.195791 -0.109378
C40   C     C_R   0.263047 0.983153 0.737401 0.261293
C41   C     C_R   0.737225 0.017314 0.262404 0.261147
C42   C     C_R   0.189206 0.054315 0.652173 0.010858
C43   C     C_R   0.810799 0.945966 0.347632 0.010740
C44   C     C_R   0.208778 0.155016 0.640057 0.001120
C45   C     C_R   0.906222 0.975271 0.425404 0.047538
C46   C     C_R   0.791110 0.845346 0.359491 0.000920
C47   C     C_R   0.312368 0.185589 0.703923 -0.123256
C48   C     C_R   0.687674 0.815036 0.295324 -0.123287
C49   C     C_R   0.389575 0.115374 0.784859 -0.118519
C50   C     C_R   0.610788 0.885439 0.214337 -0.118756
C51   C     C_R   0.964024 0.023588 0.571012 -0.167164
C52   C     C_R   0.035967 0.976413 0.428989 -0.167190
C53   C     C_1   0.284661 0.580649 0.804671 0.295972
C54   C     C_1   0.715026 0.419357 0.195617 0.296153
C55   C     C_1   0.120039 0.226164 0.565419 0.289548
C56   C     C_R   0.093770 0.024777 0.574565 0.047519
C57   C     C_1   0.879636 0.774039 0.434135 0.289605
C58   C     C_1   0.280952 0.394275 0.802340 0.361604
C59   C     C_1   0.718833 0.605851 0.197660 0.361368
C60   C     C_1   0.666356 0.947485 0.857003 0.345156
C61   C     C_1   0.334097 0.052467 0.142954 0.345434
C62   C     C_R   0.444813 0.188216 0.199449 -0.123818
C63   C     C_R   0.555202 0.811787 0.800552 -0.123655
C64   C     C_R   0.343260 0.228439 0.017858 0.219745
Cu1   Cu    Cu3+1 0.466270 0.918260 0.475690 1.009241
Cu2   Cu    Cu3+1 0.533730 0.081740 0.524310 1.009222
H1    H     H_    0.468037 0.139118 0.835219 0.169296
H2    H     H_    0.583212 0.041485 0.129388 0.154946
H3    H     H_    0.332568 0.263438 0.692123 0.160101
H4    H     H_    0.667348 0.737251 0.306932 0.160245
H5    H     H_    0.936203 0.041205 0.626778 0.158420
H6    H     H_    0.063791 0.958816 0.373211 0.158375
H7    H     H_    0.480934 0.685461 0.764979 0.190912
H8    H     H_    0.518690 0.314568 0.235051 0.191018
H9    H     H_    0.532475 0.861901 0.163730 0.169292
H10   H     H_    0.836851 0.488952 0.607098 0.206503
H11   H     H_    0.163159 0.511052 0.392901 0.206512
H12   H     H_    0.241587 0.852384 0.344112 0.174540
H13   H     H_    0.758432 0.147630 0.655861 0.174617
H14   H     H_    0.715527 0.629947 0.513355 0.180849
H15   H     H_    0.284481 0.370070 0.486639 0.180692
H16   H     H_    0.417486 0.959399 0.870096 0.154737
N1    N     N_R   0.584450 0.204570 0.560790 -0.221983
N2    N     N_1   0.299214 0.969297 0.159469 -0.242272
N3    N     N_R   0.415550 0.795430 0.439210 -0.221996
N4    N     N_1   0.212339 0.635206 0.742395 -0.171435
N5    N     N_1   0.787237 0.364793 0.258040 -0.171370
N6    N     N_1   0.047883 0.282468 0.505947 -0.216820
N7    N     N_1   0.951646 0.717627 0.493616 -0.217067
N8    N     N_1   0.228076 0.384797 0.727087 -0.219861
N9    N     N_1   0.771605 0.615381 0.272887 -0.220173
N10   N     N_1   0.701384 0.030632 0.840492 -0.242384
O1    O     O_R   0.455540 0.022090 0.338120 -0.593665
O2    O     O_R   0.544460 0.977910 0.661880 -0.593694
O3    O     O_R   0.512510 0.160150 0.379180 -0.528804
O4    O     O_R   0.487490 0.839850 0.620820 -0.528838
O5    O     O_R   0.291160 0.930970 0.479480 -0.584486
O6    O     O_R   0.708840 0.069030 0.520520 -0.584449
O7    O     O_R   0.348130 0.069020 0.520540 -0.547848
O8    O     O_R   0.651870 0.930980 0.479460 -0.547837

loop_
_geom_bond_atom_site_label_1
_geom_bond_atom_site_label_2
_ccdc_geom_bond_type
C17   C23   S    
C8    C13   A    
C42   C56   S    
Cu1   Cu2   S    
C27   C31   A    
C26   N3    A    
Cu1   N3    S    
C3    C62   A    
C39   C41   A    
C46   C57   S    
C16   C34   S    
C7    C11   A    
C4    C60   S    
C51   C56   A    
C35   H15   S    
C9    C18   A    
C11   C13   A    
C39   H2    S    
C21   C24   A    
C25   N1    A    
C47   H3    S    
C12   O2    A    
C5    C62   A    
C48   H4    S    
C6    C63   A    
C23   C51   A    
C30   C37   A    
Cu2   O7    S    
Cu1   O4    S    
C41   C43   A    
C21   C30   A    
C42   C44   A    
C12   C63   S    
C15   C19   A    
C61   N2    T    
C44   C47   A    
C59   N9    T    
Cu2   O2    S    
Cu1   O1    S    
C24   N3    A    
C13   C14   A    
C45   C52   A    
C17   O6    A    
C46   C48   A    
C15   C54   S    
C38   C40   A    
Br1   C64   S    
C18   C58   S    
C28   C32   A    
C1    C62   S    
C51   H5    S    
C31   C32   A    
C11   C15   A    
Cu1   O8    S    
C31   C35   A    
Br3   C26   S    
C55   N6    T    
C43   C45   S    
Cu2   N1    S    
C37   H11   S    
C60   N10   T    
Cu2   O6    S    
Br5   C20   S    
Cu1   O5    S    
C5    C7    A    
C1    O3    A    
C24   H12   S    
C16   O7    A    
C23   C45   A    
C40   C42   A    
C35   C37   A    
C2    C4    A    
C38   H16   S    
C1    O1    A    
C32   C33   A    
C4    C63   A    
C47   C49   A    
C38   C49   A    
C33   C36   A    
C6    C8    A    
C34   C52   A    
Br2   C2    S    
C34   C56   A    
C7    C9    A    
C33   H14   S    
Br4   C25   S    
C52   H6    S    
C27   C29   A    
C3    C64   A    
C10   C19   A    
C22   N1    A    
C36   H10   S    
C44   C55   S    
C3    C61   S    
C12   O4    A    
C43   C46   A    
Br7   C40   S    
C49   H1    S    
C29   C36   A    
C28   C30   A    
C57   N7    T    
C50   H9    S    
C14   C53   S    
C58   N8    T    
C20   C29   A    
C2    C10   A    
C5    H8    S    
C20   C22   A    
C53   N4    T    
C25   C27   A    
C48   C50   A    
C26   C28   A    
C19   C59   S    
Br6   C21   S    
C9    C64   A    
C8    C10   A    
C14   C18   A    
C16   O5    A    
C6    H7    S    
C22   H13   S    
C54   N5    T    
Br8   C41   S    
C17   O8    A    
Cu2   O3    S    
C39   C50   A    
