data_mof_unit_56581.cif
_audit_creation_date              2012-12-10T18:36:26-0500
_audit_creation_method            fapswitch 2.2
_symmetry_space_group_name_H-M    P1
_symmetry_Int_Tables_number       1
_space_group_crystal_system       triclinic
_cell_length_a                    13.899949
_cell_length_b                    15.108502
_cell_length_c                    15.780049
_cell_angle_alpha                 90.318855
_cell_angle_beta                  69.641496
_cell_angle_gamma                 89.573305
_cell_volume                      3106.71632179

loop_
_atom_site_label
_atom_site_type_symbol
_atom_type_description
_atom_site_fract_x
_atom_site_fract_y
_atom_site_fract_z
_atom_type_partial_charge
C1    C     C_R   0.499452 0.670097 0.500474 0.835895
C2    C     C_R   0.500227 0.330437 0.500150 0.905948
C3    C     C_R   0.375391 0.543528 0.097214 -0.303322
C4    C     C_R   0.621580 0.544769 0.903698 -0.304621
C5    C     C_R   0.302587 0.539146 0.054598 0.433975
C6    C     C_R   0.694349 0.544497 0.946459 0.412962
C7    C     C_R   0.446591 0.908220 0.460322 -0.217866
C8    C     C_R   0.482353 0.097627 0.584074 -0.206202
C9    C     C_R   0.444998 0.816314 0.457747 -0.100097
C10   C     C_R   0.482289 0.189701 0.583713 -0.114599
C11   C     C_R   0.497111 0.767060 0.504521 -0.246588
C12   C     C_R   0.500407 0.234444 0.501895 -0.223276
C13   C     C_R   0.547883 0.811557 0.555801 0.367864
C14   C     C_R   0.518745 0.187206 0.420906 0.323957
C15   C     C_R   0.554992 0.903884 0.552559 0.349317
C16   C     C_R   0.529243 0.094857 0.420094 0.364246
C17   C     C_R   0.502614 0.952469 0.505747 -0.040891
C18   C     C_R   0.506006 0.049647 0.502961 -0.040843
C19   C     C_R   0.918609 0.453159 0.434299 -0.312791
C20   C     C_R   0.087328 0.562133 0.550038 -0.294028
C21   C     C_R   0.816751 0.452140 0.436314 0.171792
C22   C     C_R   0.187805 0.560146 0.551438 0.180265
C23   C     C_R   0.437558 0.501325 0.672596 0.793840
C24   C     C_R   0.562371 0.502344 0.327423 0.817785
C25   C     C_R   0.764398 0.545698 0.565022 0.088067
C26   C     C_R   0.230375 0.438915 0.449610 0.060719
C27   C     C_R   0.864487 0.544774 0.567704 -0.286599
C28   C     C_R   0.129201 0.436288 0.449745 -0.289536
C29   C     C_R   0.945083 0.499184 0.500708 0.129772
C30   C     C_R   0.054826 0.499119 0.499941 0.131637
C31   C     C_R   0.400294 0.509017 0.771657 -0.035012
C32   C     C_R   0.599067 0.512240 0.228574 -0.056113
C33   C     C_R   0.263552 0.527848 0.915808 -0.172610
C34   C     C_R   0.734767 0.531008 0.084297 -0.166894
C35   C     C_R   0.295732 0.517687 0.822228 -0.194546
C36   C     C_R   0.703433 0.519485 0.177561 -0.187435
C37   C     C_R   0.472032 0.511638 0.815465 -0.224888
C38   C     C_R   0.526693 0.517976 0.185525 -0.230109
C39   C     C_R   0.442146 0.526623 0.908994 0.042902
C40   C     C_R   0.555779 0.530925 0.091989 0.060472
C41   C     C_R   0.335609 0.531349 0.960181 0.068529
C42   C     C_R   0.662101 0.535728 0.040583 0.067125
C43   C     C_R   0.515665 0.534490 0.952696 -0.000248
C44   C     C_R   0.481867 0.535678 0.048303 0.006251
Cu1   Cu    Cu3+1 0.403570 0.500010 0.500000 0.957342
Cu2   Cu    Cu3+1 0.596430 0.499990 0.500000 0.969295
H1    H     H_    0.976013 0.417617 0.380325 0.121466
H2    H     H_    0.035708 0.613350 0.588636 0.130204
H3    H     H_    0.704759 0.582196 0.616278 0.130674
H4    H     H_    0.286117 0.390956 0.409882 0.125767
H5    H     H_    0.876722 0.579125 0.623197 0.135151
H6    H     H_    0.110694 0.384085 0.411197 0.125933
H7    H     H_    0.447443 0.508971 0.226312 0.155018
H8    H     H_    0.551382 0.499794 0.775313 0.148544
H9    H     H_    0.760783 0.516094 0.209557 0.163480
H10   H     H_    0.238827 0.516236 0.789656 0.161744
H11   H     H_    0.181985 0.533038 0.953189 0.173451
H12   H     H_    0.816206 0.535213 0.046428 0.174378
H13   H     H_    0.345931 0.557239 0.168786 0.163502
H14   H     H_    0.650070 0.557295 0.832061 0.143395
H15   H     H_    0.404978 0.945757 0.425540 0.186765
H16   H     H_    0.463210 0.063182 0.647844 0.193198
N1    N     N_R   0.741310 0.499980 0.500000 -0.193454
N2    N     N_R   0.258690 0.500020 0.500000 -0.190191
O1    O     O_R   0.418570 0.628550 0.499990 -0.575786
O2    O     O_R   0.581430 0.371450 0.500010 -0.571387
O3    O     O_R   0.581440 0.628540 0.499990 -0.553105
O4    O     O_R   0.418560 0.371460 0.500010 -0.595841
O5    O     O_R   0.372890 0.500010 0.629830 -0.585109
O6    O     O_R   0.627110 0.499990 0.370170 -0.579240
O7    O     O_R   0.535760 0.500000 0.629840 -0.606522
O8    O     O_R   0.464240 0.500000 0.370160 -0.595070
O9    O     O_3   0.198929 0.550372 0.104339 -0.612965
C45   C     C_3   0.161415 0.477915 0.162985 0.047169
H17   H     H_    0.089794 0.500419 0.217012 0.178575
H18   H     H_    0.214389 0.455960 0.198059 0.130580
C46   C     C_3   0.135611 0.399870 0.112361 -0.369377
H19   H     H_    0.083388 0.422859 0.077149 0.224937
H20   H     H_    0.207152 0.373465 0.060969 0.218968
C47   C     C_3   0.083714 0.325634 0.176889 -0.902220
H21   H     H_    0.133913 0.302000 0.213725 0.254734
H22   H     H_    0.068500 0.269334 0.137962 0.262511
H23   H     H_    0.009496 0.349276 0.226361 0.255383
O10   O     O_3   0.796706 0.559735 0.896977 -0.613662
C48   C     C_3   0.839676 0.484438 0.843286 0.036610
H24   H     H_    0.806068 0.475565 0.789251 0.144982
H25   H     H_    0.826479 0.423670 0.885530 0.141431
C49   C     C_3   0.955323 0.497452 0.798608 -0.322188
H26   H     H_    0.969697 0.558139 0.756714 0.222511
H27   H     H_    0.990158 0.506288 0.851703 0.218281
C50   C     C_3   0.006491 0.418425 0.738839 -0.911296
H28   H     H_    0.994872 0.357244 0.779749 0.256274
H29   H     H_    0.090189 0.430139 0.707433 0.259467
H30   H     H_    0.974014 0.409193 0.684298 0.263933
C51   C     C_1   0.793428 0.397000 0.371457 0.260827
N3    N     N_1   0.775493 0.352092 0.319249 -0.295922
C52   C     C_1   0.213234 0.621374 0.610417 0.275449
N4    N     N_1   0.232825 0.670728 0.658269 -0.318580
C53   C     C_1   0.392387 0.774677 0.403742 0.301295
N5    N     N_1   0.350322 0.741323 0.360495 -0.281266
C54   C     C_1   0.460731 0.237084 0.668230 0.255486
N6    N     N_1   0.443499 0.275067 0.735876 -0.296509
O11   O     O_3   0.597860 0.765494 0.604328 -0.592884
C55   C     C_3   0.525876 0.734935 0.686566 0.081860
H31   H     H_    0.559722 0.675337 0.706580 0.156699
H32   H     H_    0.451832 0.713657 0.680516 0.118407
C56   C     C_3   0.505899 0.804965 0.761454 -0.332393
H33   H     H_    0.580244 0.829318 0.763724 0.244256
H34   H     H_    0.463025 0.861770 0.746893 0.227377
C57   C     C_3   0.443405 0.767146 0.853507 -0.890726
H35   H     H_    0.369969 0.739736 0.852202 0.267788
H36   H     H_    0.426019 0.820287 0.905694 0.262225
H37   H     H_    0.487775 0.714064 0.872193 0.264203
O12   O     O_3   0.534247 0.232322 0.341228 -0.604364
C58   C     C_3   0.444993 0.225405 0.318126 0.078353
H38   H     H_    0.374714 0.243419 0.376595 0.122135
H39   H     H_    0.437161 0.156908 0.295268 0.186153
C59   C     C_3   0.453681 0.288822 0.240970 -0.320705
H40   H     H_    0.461624 0.356818 0.263816 0.224413
H41   H     H_    0.523233 0.272052 0.181831 0.232518
C60   C     C_3   0.359360 0.285581 0.212666 -0.956526
H42   H     H_    0.350360 0.218161 0.188200 0.268507
H43   H     H_    0.368349 0.333300 0.157194 0.265052
H44   H     H_    0.289229 0.303862 0.270474 0.240898
O13   O     O_3   0.607905 0.946010 0.600734 -0.612572
C61   C     C_3   0.708940 0.962628 0.542359 0.077059
H45   H     H_    0.708517 0.016996 0.495304 0.134675
H46   H     H_    0.745534 0.902217 0.502855 0.151302
C62   C     C_3   0.772890 0.991958 0.598770 -0.306749
H47   H     H_    0.737007 0.051780 0.639071 0.225565
H48   H     H_    0.774589 0.938308 0.646181 0.227730
C63   C     C_3   0.882569 0.013372 0.538950 -0.926584
H49   H     H_    0.920596 0.953988 0.499177 0.260691
H50   H     H_    0.926954 0.034561 0.581861 0.260923
H51   H     H_    0.882636 0.067897 0.491969 0.256663
O14   O     O_3   0.555335 0.049937 0.338176 -0.619366
C64   C     C_3   0.658928 0.020975 0.309695 0.064378
H52   H     H_    0.669963 0.971491 0.254708 0.174815
H53   H     H_    0.677453 0.985871 0.363820 0.110724
C65   C     C_3   0.733642 0.097426 0.272192 -0.317515
H54   H     H_    0.713943 0.131345 0.217970 0.249743
H55   H     H_    0.727424 0.146223 0.326808 0.229441
C66   C     C_3   0.844393 0.064040 0.234014 -0.928640
H56   H     H_    0.865897 0.031024 0.287707 0.253908
H57   H     H_    0.896465 0.120767 0.207981 0.266649
H58   H     H_    0.854213 0.016508 0.177597 0.260691

loop_
_geom_bond_atom_site_label_1
_geom_bond_atom_site_label_2
_ccdc_geom_bond_type
C66   H58   S    
C54   N6    T    
C27   C29   A    
C11   C13   A    
O9    C45   S    
C23   O5    A    
C51   N3    T    
C1    C11   S    
C65   C66   S    
C2    C12   S    
C55   H32   S    
C52   N4    T    
C24   O6    A    
C39   C41   A    
C20   C30   A    
C46   H19   S    
C64   H53   S    
C61   H45   S    
C45   H18   S    
C32   C36   A    
C19   C21   A    
C65   H55   S    
Cu2   O2    S    
C2    O4    A    
C26   H4    S    
C48   H24   S    
C19   H1    S    
C48   C49   S    
C58   H38   S    
C60   H43   S    
C66   H57   S    
C25   N1    A    
C26   N2    A    
C59   H40   S    
C7    H15   S    
C60   H44   S    
C57   H36   S    
C1    O3    A    
C57   H35   S    
C63   H49   S    
C7    C17   A    
C45   C46   S    
C34   C42   A    
C1    O1    A    
C56   H33   S    
C14   C16   A    
C32   C38   A    
C13   O11   S    
C62   C63   S    
C40   C42   A    
C9    C53   S    
C22   C52   S    
Cu1   O8    S    
C56   H34   S    
C47   H23   S    
C55   H31   S    
C27   H5    S    
O12   C58   S    
C59   H41   S    
C48   H25   S    
C64   C65   S    
C3    C44   A    
C6    O10   S    
C45   H17   S    
Cu1   O5    S    
C23   O7    A    
O10   C48   S    
C4    C6    A    
C50   H28   S    
C47   H21   S    
C39   C43   A    
C21   C51   S    
C61   C62   S    
C58   H39   S    
Cu1   Cu2   S    
C8    C18   A    
C31   C37   A    
C59   C60   S    
C23   C31   S    
C43   C44   A    
C24   C32   S    
C29   C30   S    
C50   H29   S    
C53   N5    T    
C49   C50   S    
C58   C59   S    
C4    H14   S    
Cu1   O4    S    
C17   C18   S    
C60   H42   S    
C46   H20   S    
C65   H54   S    
C9    C11   A    
C57   H37   S    
Cu2   O7    S    
C20   H2    S    
C10   C12   A    
C63   H50   S    
C37   H8    S    
C16   C18   A    
C12   C14   A    
C13   C15   A    
Cu1   O1    S    
O13   C61   S    
C56   C57   S    
C31   C35   A    
C16   O14   S    
Cu2   O6    S    
C24   O8    A    
C62   H47   S    
C46   C47   S    
C15   C17   A    
C5    C41   A    
C61   H46   S    
C35   H10   S    
C10   C54   S    
C20   C22   A    
O14   C64   S    
C3    C5    A    
C2    O2    A    
C4    C43   A    
C33   H11   S    
C25   C27   A    
C64   H52   S    
Cu1   N2    S    
C26   C28   A    
C3    H13   S    
Cu2   N1    S    
C33   C41   A    
C28   C30   A    
C49   H27   S    
Cu2   O3    S    
C37   C39   A    
C36   H9    S    
C14   O12   S    
C50   H30   S    
C38   C40   A    
C28   H6    S    
C38   H7    S    
C63   H51   S    
C33   C35   A    
C47   H22   S    
C34   C36   A    
C5    O9    S    
C25   H3    S    
C21   N1    A    
C22   N2    A    
C7    C9    A    
C40   C44   A    
C49   H26   S    
C8    C10   A    
C6    C42   A    
O11   C55   S    
C34   H12   S    
C15   O13   S    
C55   C56   S    
C66   H56   S    
C8    H16   S    
C62   H48   S    
C19   C29   A    
