data_mof_unit_32656.cif
_audit_creation_date              2013-03-05T15:40:12-0500
_audit_creation_method            fapswitch 2.2
_symmetry_space_group_name_H-M    P1
_symmetry_Int_Tables_number       1
_space_group_crystal_system       triclinic
_cell_length_a                    33.854023
_cell_length_b                    33.888473
_cell_length_c                    33.831719
_cell_angle_alpha                 59.977891
_cell_angle_beta                  60.025343
_cell_angle_gamma                 60.021113
_cell_volume                      27450.5512162

loop_
_atom_site_label
_atom_site_type_symbol
_atom_site_description
_atom_site_fract_x
_atom_site_fract_y
_atom_site_fract_z
_atom_type_partial_charge
O1    O     O_R   0.716970 0.488630 0.223920 -0.564623
O2    O     O_R   0.223920 0.716970 0.488630 -0.564852
O3    O     O_R   0.488630 0.223920 0.716970 -0.565807
O4    O     O_R   0.223920 0.488630 0.716970 -0.568069
O5    O     O_R   0.488630 0.716970 0.223920 -0.567683
O6    O     O_R   0.716970 0.223920 0.488630 -0.566094
O7    O     O_R   0.783170 0.487770 0.157850 -0.568543
O8    O     O_R   0.157850 0.783170 0.487770 -0.571084
O9    O     O_R   0.487770 0.157850 0.783170 -0.570073
O10   O     O_R   0.157850 0.487770 0.783170 -0.575666
O11   O     O_R   0.487770 0.783170 0.157850 -0.575351
O12   O     O_R   0.783170 0.157850 0.487770 -0.574172
C1    C     C_R   0.734864 0.501397 0.175611 0.755311
C2    C     C_R   0.175724 0.734958 0.500846 0.749459
C3    C     C_R   0.501134 0.175699 0.734895 0.750697
C4    C     C_R   0.183340 0.477788 0.742459 0.805222
C5    C     C_R   0.478777 0.742026 0.182794 0.808941
C6    C     C_R   0.742520 0.183508 0.477565 0.807060
C7    C     C_R   0.707637 0.507665 0.148736 -0.069852
C8    C     C_R   0.148912 0.707854 0.506902 -0.068366
C9    C     C_R   0.507525 0.148802 0.707687 -0.069659
C10   C     C_R   0.159762 0.472615 0.719593 -0.070244
C11   C     C_R   0.474217 0.719061 0.158887 -0.070208
C12   C     C_R   0.719648 0.160171 0.472106 -0.070029
C13   C     C_R   0.728792 0.514968 0.099003 -0.205970
C14   C     C_R   0.099295 0.729139 0.513838 -0.207614
C15   C     C_R   0.515172 0.099043 0.728783 -0.206793
C16   C     C_R   0.111926 0.472381 0.743567 -0.195586
C17   C     C_R   0.474803 0.742736 0.110708 -0.193894
C18   C     C_R   0.743820 0.112641 0.471232 -0.195289
H1    H     H_    0.764961 0.517156 0.080123 0.141978
H2    H     H_    0.080475 0.765369 0.515777 0.140946
H3    H     H_    0.517451 0.080165 0.764958 0.140643
H4    H     H_    0.093107 0.473548 0.780137 0.144462
H5    H     H_    0.476388 0.779110 0.091719 0.144664
H6    H     H_    0.780501 0.093979 0.472033 0.144396
O13   O     O_R   0.224060 0.570410 0.716850 -0.565366
O14   O     O_R   0.716850 0.224060 0.570410 -0.570971
O15   O     O_R   0.570410 0.716850 0.224060 -0.568145
O16   O     O_R   0.716850 0.570410 0.224060 -0.568299
O17   O     O_R   0.570410 0.224060 0.716850 -0.565619
O18   O     O_R   0.224060 0.716850 0.570410 -0.565565
O19   O     O_R   0.157990 0.571150 0.783050 -0.568484
O20   O     O_R   0.783050 0.157990 0.571150 -0.568643
O21   O     O_R   0.571150 0.783050 0.157990 -0.568608
O22   O     O_R   0.783050 0.571150 0.157990 -0.572826
O23   O     O_R   0.571150 0.157990 0.783050 -0.567393
O24   O     O_R   0.157990 0.783050 0.571150 -0.565965
C19   C     C_R   0.184009 0.596520 0.742470 0.803894
C20   C     C_R   0.742534 0.184014 0.596544 0.759578
C21   C     C_R   0.596351 0.743000 0.184635 0.801432
C22   C     C_R   0.735754 0.591998 0.176585 0.734184
C23   C     C_R   0.590813 0.176213 0.735204 0.731882
C24   C     C_R   0.176160 0.735179 0.590630 0.731477
C25   C     C_R   0.159959 0.647153 0.717427 -0.080250
C26   C     C_R   0.717601 0.160031 0.647293 -0.068207
C27   C     C_R   0.647285 0.718589 0.161221 -0.075875
C28   C     C_R   0.712790 0.643954 0.153670 -0.066613
C29   C     C_R   0.642240 0.152678 0.711320 -0.071083
C30   C     C_R   0.152577 0.711092 0.641989 -0.069307
C31   C     C_R   0.116482 0.675482 0.742621 -0.170269
C32   C     C_R   0.742848 0.116680 0.675751 -0.178344
C33   C     C_R   0.675448 0.744716 0.118856 -0.181223
C34   C     C_R   0.736784 0.669948 0.106845 -0.181596
C35   C     C_R   0.667147 0.104655 0.733894 -0.189474
C36   C     C_R   0.104448 0.733405 0.666817 -0.192514
H7    H     H_    0.106512 0.663649 0.781280 0.134872
H8    H     H_    0.781471 0.106751 0.663894 0.129978
H9    H     H_    0.662548 0.783406 0.109073 0.134357
H10   H     H_    0.769466 0.650260 0.084704 0.142521
H11   H     H_    0.646171 0.082263 0.763846 0.140900
H12   H     H_    0.082076 0.763043 0.645687 0.141121
O25   O     O_R   0.488840 0.570440 0.223920 -0.586396
O26   O     O_R   0.223920 0.488840 0.570440 -0.590838
O27   O     O_R   0.570440 0.223920 0.488840 -0.584254
O28   O     O_R   0.223920 0.570440 0.488840 -0.560809
O29   O     O_R   0.570440 0.488840 0.223920 -0.560932
O30   O     O_R   0.488840 0.223920 0.570440 -0.575416
O31   O     O_R   0.487980 0.571180 0.157850 -0.593639
O32   O     O_R   0.157850 0.487980 0.571180 -0.598548
O33   O     O_R   0.571180 0.157850 0.487980 -0.592050
O34   O     O_R   0.157850 0.571180 0.487980 -0.563889
O35   O     O_R   0.571180 0.487980 0.157850 -0.562961
O36   O     O_R   0.487980 0.157850 0.571180 -0.577610
C37   C     C_R   0.477818 0.596432 0.183301 0.774624
C38   C     C_R   0.183570 0.477373 0.596460 0.733035
C39   C     C_R   0.596421 0.183660 0.477275 0.774591
C40   C     C_R   0.175407 0.587582 0.502364 0.809199
C41   C     C_R   0.587479 0.502527 0.175360 0.803448
C42   C     C_R   0.502516 0.175409 0.587454 0.793771
C43   C     C_R   0.473194 0.647892 0.159216 -0.058027
C44   C     C_R   0.159878 0.471993 0.648187 -0.048822
C45   C     C_R   0.648201 0.160173 0.471653 -0.058767
C46   C     C_R   0.148376 0.635628 0.508214 -0.074373
C47   C     C_R   0.635439 0.508687 0.148258 -0.073493
C48   C     C_R   0.508761 0.148301 0.635398 -0.067688
C49   C     C_R   0.473264 0.671971 0.111052 -0.200154
C50   C     C_R   0.112019 0.471327 0.672559 -0.202943
C51   C     C_R   0.672784 0.112552 0.470470 -0.201311
C52   C     C_R   0.098429 0.657276 0.515366 -0.198760
C53   C     C_R   0.656966 0.516177 0.098211 -0.199417
C54   C     C_R   0.516634 0.098254 0.656795 -0.200820
H13   H     H_    0.474632 0.653168 0.092024 0.146331
H14   H     H_    0.092965 0.472641 0.653785 0.145655
H15   H     H_    0.654123 0.093494 0.471665 0.145336
H16   H     H_    0.079148 0.638309 0.517398 0.138422
H17   H     H_    0.637968 0.518218 0.078921 0.137808
H18   H     H_    0.518934 0.078974 0.637658 0.138195
H19   H     H_    0.024606 0.196824 0.615625 0.156770
H20   H     H_    0.539914 0.053352 0.227319 0.155843
H21   H     H_    0.219168 0.537234 0.056822 0.159060
H22   H     H_    0.550878 0.212845 0.056743 0.159467
H23   H     H_    0.176652 0.024056 0.604527 0.161384
H24   H     H_    0.057852 0.532436 0.230805 0.154958
C55   C     C_R   0.203201 0.202535 0.539525 0.106831
C56   C     C_R   0.473638 0.223860 0.226057 0.109768
C57   C     C_R   0.226542 0.468442 0.226552 0.109811
H25   H     H_    0.185136 0.276344 0.592148 0.131923
H26   H     H_    0.531069 0.199767 0.298285 0.136891
H27   H     H_    0.335779 0.427362 0.239147 0.126357
H28   H     H_    0.430474 0.333847 0.237545 0.126513
H29   H     H_    0.311924 0.220334 0.483445 0.141029
H30   H     H_    0.200494 0.528345 0.297412 0.137607
C58   C     C_R   0.054672 0.203259 0.540083 -0.027510
C59   C     C_R   0.467041 0.078781 0.227819 -0.032538
C60   C     C_R   0.228830 0.461626 0.080881 -0.034792
C61   C     C_R   0.475294 0.224110 0.077664 -0.033656
C62   C     C_R   0.205521 0.059829 0.527689 -0.030619
C63   C     C_R   0.081115 0.460676 0.229754 -0.029936
H31   H     H_    0.143115 0.233787 0.593928 0.132077
H32   H     H_    0.524393 0.160037 0.259561 0.133846
H33   H     H_    0.297261 0.418754 0.200355 0.150279
H34   H     H_    0.424101 0.294021 0.198432 0.151930
H35   H     H_    0.269939 0.178504 0.484559 0.159036
H36   H     H_    0.162097 0.519766 0.258738 0.132708
C64   C     C_R   0.220328 0.149241 0.149057 -0.187126
C65   C     C_R   0.148143 0.220141 0.149004 -0.170265
C66   C     C_R   0.148789 0.148746 0.220626 -0.164220
H37   H     H_    0.256840 0.130586 0.129998 0.118587
H38   H     H_    0.129216 0.256686 0.130258 0.123699
H39   H     H_    0.130750 0.130465 0.257896 0.131476
C67   C     C_R   0.269980 0.057094 0.217122 -0.117150
C68   C     C_R   0.195387 0.247237 0.039950 -0.180450
C69   C     C_R   0.039995 0.194974 0.250283 -0.175569
C70   C     C_R   0.195908 0.040371 0.249557 -0.180381
C71   C     C_R   0.056281 0.269473 0.216768 -0.112127
C72   C     C_R   0.268259 0.219205 0.057147 -0.103428
C73   C     C_R   0.292864 0.008653 0.240177 -0.165671
C74   C     C_R   0.218169 0.269803 0.991312 -0.176825
C75   C     C_R   0.991590 0.217782 0.273231 -0.165552
C76   C     C_R   0.218794 0.991996 0.272483 -0.179296
C77   C     C_R   0.007842 0.292274 0.239767 -0.159947
C78   C     C_R   0.290943 0.242059 0.008503 -0.161716
O37   O     O_R   0.283280 0.775980 0.511290 -0.564713
O38   O     O_R   0.511290 0.283280 0.775980 -0.561943
O39   O     O_R   0.775980 0.511290 0.283280 -0.563367
O40   O     O_R   0.511290 0.775980 0.283280 -0.579560
O41   O     O_R   0.775980 0.283280 0.511290 -0.586814
O42   O     O_R   0.283280 0.511290 0.775980 -0.575560
O43   O     O_R   0.217080 0.842050 0.512160 -0.573618
O44   O     O_R   0.512160 0.217080 0.842050 -0.574072
O45   O     O_R   0.842050 0.512160 0.217080 -0.566251
O46   O     O_R   0.512160 0.842050 0.217080 -0.571267
O47   O     O_R   0.842050 0.217080 0.512160 -0.582509
O48   O     O_R   0.217080 0.512160 0.842050 -0.570679
C79   C     C_R   0.264378 0.823761 0.503663 0.750577
C80   C     C_R   0.500605 0.264689 0.824507 0.754469
C81   C     C_R   0.824611 0.499491 0.265074 0.756217
C82   C     C_R   0.499956 0.824415 0.265023 0.747397
C83   C     C_R   0.815628 0.256734 0.524323 0.748892
C84   C     C_R   0.265114 0.499127 0.824599 0.752845
C85   C     C_R   0.287008 0.848292 0.508359 -0.104925
C86   C     C_R   0.499780 0.288466 0.851623 -0.103105
C87   C     C_R   0.853159 0.492679 0.291503 -0.113376
C88   C     C_R   0.493576 0.852596 0.291422 -0.101033
C89   C     C_R   0.838612 0.278322 0.532586 -0.092418
C90   C     C_R   0.291503 0.492498 0.852934 -0.102871
C91   C     C_R   0.264552 0.897378 0.506275 -0.068514
C92   C     C_R   0.493785 0.266693 0.901989 -0.073991
C93   C     C_R   0.904026 0.484193 0.270803 -0.074700
C94   C     C_R   0.486206 0.903072 0.270266 -0.076787
C95   C     C_R   0.883756 0.251780 0.540663 -0.076782
C96   C     C_R   0.270786 0.483605 0.903735 -0.076782
O49   O     O_R   0.511420 0.429400 0.283150 -0.567305
O50   O     O_R   0.283150 0.511420 0.429400 -0.562840
O51   O     O_R   0.429400 0.283150 0.511420 -0.587135
O52   O     O_R   0.283150 0.429400 0.511420 -0.592918
O53   O     O_R   0.429400 0.511420 0.283150 -0.580476
O54   O     O_R   0.511420 0.283150 0.429400 -0.575920
O55   O     O_R   0.512280 0.428670 0.216950 -0.567092
O56   O     O_R   0.216950 0.512280 0.428670 -0.562038
O57   O     O_R   0.428670 0.216950 0.512280 -0.587325
O58   O     O_R   0.216950 0.428670 0.512280 -0.592176
O59   O     O_R   0.428670 0.512280 0.216950 -0.580769
O60   O     O_R   0.512280 0.216950 0.428670 -0.577216
C97   C     C_R   0.499871 0.410932 0.264979 0.747582
C98   C     C_R   0.265184 0.498299 0.412026 0.811883
C99   C     C_R   0.403487 0.257203 0.523294 0.777784
C100  C     C_R   0.257190 0.403439 0.523344 0.736252
C101  C     C_R   0.410983 0.499779 0.264990 0.730104
C102  C     C_R   0.498227 0.265199 0.412127 0.795279
C103  C     C_R   0.494739 0.362754 0.291476 -0.065528
C104  C     C_R   0.291556 0.493487 0.363605 -0.075342
C105  C     C_R   0.351530 0.279851 0.529813 -0.062752
C106  C     C_R   0.279719 0.351437 0.530043 -0.053789
C107  C     C_R   0.362852 0.494442 0.291501 -0.058123
C108  C     C_R   0.493528 0.291614 0.363727 -0.067195
C109  C     C_R   0.489130 0.340689 0.269630 -0.198534
C110  C     C_R   0.270006 0.487070 0.341848 -0.191463
C111  C     C_R   0.326134 0.254668 0.534138 -0.198013
C112  C     C_R   0.254462 0.325919 0.534549 -0.195162
C113  C     C_R   0.341156 0.487982 0.269915 -0.200520
C114  C     C_R   0.487770 0.269819 0.341818 -0.196423
H40   H     H_    0.488443 0.359418 0.232884 0.144728
H41   H     H_    0.234224 0.483956 0.361656 0.146061
H42   H     H_    0.344307 0.217385 0.535314 0.149651
H43   H     H_    0.217413 0.344212 0.534869 0.150475
H44   H     H_    0.360170 0.486776 0.233375 0.144270
H45   H     H_    0.484782 0.234003 0.361631 0.145563
H46   H     H_    0.940021 0.237884 0.617379 0.155070
H47   H     H_    0.546778 0.967892 0.266762 0.160142
H48   H     H_    0.257764 0.546823 0.970503 0.159806
H49   H     H_    0.564056 0.250174 0.969613 0.161988
H50   H     H_    0.221965 0.941963 0.600214 0.151202
H51   H     H_    0.971846 0.541645 0.269827 0.161284
O61   O     O_R   0.511410 0.775980 0.429490 -0.580885
O62   O     O_R   0.429490 0.511410 0.775980 -0.575269
O63   O     O_R   0.775980 0.429490 0.511410 -0.606868
O64   O     O_R   0.429490 0.775980 0.511410 -0.611396
O65   O     O_R   0.775980 0.511410 0.429490 -0.581701
O66   O     O_R   0.511410 0.429490 0.775980 -0.607005
O67   O     O_R   0.512270 0.842050 0.428760 -0.505060
O68   O     O_R   0.428760 0.512270 0.842050 -0.503210
O69   O     O_R   0.842050 0.428760 0.512270 -0.504627
O70   O     O_R   0.428760 0.842050 0.512270 -0.515110
O71   O     O_R   0.842050 0.512270 0.428760 -0.511716
O72   O     O_R   0.512270 0.428760 0.842050 -0.518073
C115  C     C_R   0.496949 0.824670 0.413030 0.811635
C116  C     C_R   0.412344 0.497729 0.824717 0.792864
C117  C     C_R   0.815723 0.403338 0.524256 0.801197
C118  C     C_R   0.403347 0.816249 0.523165 0.772635
C119  C     C_R   0.824702 0.497088 0.412899 0.808156
C120  C     C_R   0.515597 0.404105 0.819959 0.761706
C121  C     C_R   0.489995 0.852693 0.365243 -0.175903
C122  C     C_R   0.364292 0.491238 0.852834 -0.175749
C123  C     C_R   0.838609 0.350530 0.532569 -0.157880
C124  C     C_R   0.352266 0.841372 0.525624 -0.140791
C125  C     C_R   0.852888 0.490048 0.365118 -0.174792
C126  C     C_R   0.512482 0.354987 0.847649 -0.151459
C127  C     C_R   0.480226 0.903260 0.345223 0.306692
C128  C     C_R   0.343754 0.482212 0.903455 0.307095
C129  C     C_R   0.884077 0.324166 0.539863 0.323820
C130  C     C_R   0.326347 0.887422 0.531269 0.331872
C131  C     C_R   0.903582 0.479673 0.345505 0.305547
C132  C     C_R   0.510787 0.331662 0.896650 0.331913
O73   O     O_R   0.429600 0.775990 0.283160 -0.579023
O74   O     O_R   0.283160 0.429600 0.775990 -0.582202
O75   O     O_R   0.775990 0.283160 0.429600 -0.574832
O76   O     O_R   0.283160 0.775990 0.429600 -0.564448
O77   O     O_R   0.775990 0.429600 0.283160 -0.566886
O78   O     O_R   0.429600 0.283160 0.775990 -0.566317
O79   O     O_R   0.428860 0.842070 0.216970 -0.582179
O80   O     O_R   0.216970 0.428860 0.842070 -0.584956
O81   O     O_R   0.842070 0.216970 0.428860 -0.583873
O82   O     O_R   0.216970 0.842070 0.428860 -0.567249
O83   O     O_R   0.842070 0.428860 0.216970 -0.572302
O84   O     O_R   0.428860 0.216970 0.842070 -0.569616
C133  C     C_R   0.410708 0.824032 0.264823 0.734333
C134  C     C_R   0.264625 0.410314 0.823926 0.730344
C135  C     C_R   0.824356 0.265091 0.412056 0.797212
C136  C     C_R   0.264944 0.824143 0.411222 0.754488
C137  C     C_R   0.823826 0.410002 0.264655 0.744564
C138  C     C_R   0.410405 0.264657 0.824028 0.743684
C139  C     C_R   0.361950 0.850391 0.290581 -0.056089
C140  C     C_R   0.289799 0.361213 0.849942 -0.053867
C141  C     C_R   0.850598 0.290699 0.363113 -0.066827
C142  C     C_R   0.290688 0.850427 0.362370 -0.065412
C143  C     C_R   0.849932 0.360986 0.290358 -0.061842
C144  C     C_R   0.361238 0.289908 0.850148 -0.063029
C145  C     C_R   0.338839 0.899120 0.267655 -0.210919
C146  C     C_R   0.266402 0.337945 0.898371 -0.211931
C147  C     C_R   0.899352 0.267746 0.340276 -0.188900
C148  C     C_R   0.267802 0.899130 0.339404 -0.208700
C149  C     C_R   0.898238 0.337236 0.267151 -0.216017
C150  C     C_R   0.337771 0.266762 0.898720 -0.210206
H52   H     H_    0.357002 0.917488 0.230500 0.140345
H53   H     H_    0.229656 0.356639 0.916878 0.141285
H54   H     H_    0.918511 0.231858 0.359882 0.144336
H55   H     H_    0.231301 0.917687 0.358434 0.139791
H56   H     H_    0.916182 0.354560 0.229480 0.139089
H57   H     H_    0.355918 0.229769 0.917213 0.138981
H58   H     H_    0.987011 0.258430 0.466730 0.172091
H59   H     H_    0.402240 0.004245 0.275501 0.170418
H60   H     H_    0.284504 0.397485 0.003870 0.173782
H61   H     H_    0.415077 0.280260 0.997160 0.170593
H62   H     H_    0.286796 0.999824 0.446380 0.184758
H63   H     H_    0.003462 0.399715 0.275576 0.172972
C151  C     C_R   0.179843 0.230831 0.569411 -0.165367
C152  C     C_R   0.503295 0.197845 0.254930 -0.168136
C153  C     C_R   0.275858 0.443018 0.221197 -0.136238
C154  C     C_R   0.447694 0.273186 0.220013 -0.135287
C155  C     C_R   0.251193 0.199069 0.508824 -0.131170
C156  C     C_R   0.199892 0.498945 0.254614 -0.166537
C157  C     C_R   0.203883 0.255129 0.568485 -0.163054
C158  C     C_R   0.507098 0.220627 0.277109 -0.159844
C159  C     C_R   0.297916 0.447954 0.243416 -0.170703
C160  C     C_R   0.451400 0.295983 0.242324 -0.172103
C161  C     C_R   0.275253 0.223117 0.508101 -0.166260
C162  C     C_R   0.221913 0.503873 0.276799 -0.158015
C163  C     C_R   0.251894 0.251441 0.537882 0.100715
C164  C     C_R   0.481215 0.269958 0.271089 0.104577
C165  C     C_R   0.271191 0.478460 0.271505 0.103740
Cu1   Cu    Cu3+1 0.500020 0.500020 0.260100 0.965674
Cu2   Cu    Cu3+1 0.260100 0.500020 0.500020 0.960994
Cu3   Cu    Cu3+1 0.500020 0.260100 0.500020 0.957218
Cu4   Cu    Cu3+1 0.500030 0.500030 0.180750 0.963815
Cu5   Cu    Cu3+1 0.180750 0.500030 0.500030 0.961740
Cu6   Cu    Cu3+1 0.500030 0.180750 0.500030 0.956007
Cu7   Cu    Cu3+1 0.260230 0.739800 0.500010 0.980373
Cu8   Cu    Cu3+1 0.500010 0.260230 0.739800 0.978308
Cu9   Cu    Cu3+1 0.739800 0.500010 0.260230 0.978210
Cu10  Cu    Cu3+1 0.500010 0.739800 0.260230 0.971262
Cu11  Cu    Cu3+1 0.739800 0.260230 0.500010 0.970900
Cu12  Cu    Cu3+1 0.260230 0.500010 0.739800 0.973748
Cu13  Cu    Cu3+1 0.180880 0.819150 0.500010 0.950527
Cu14  Cu    Cu3+1 0.500010 0.180880 0.819150 0.949991
Cu15  Cu    Cu3+1 0.819150 0.500010 0.180880 0.958729
Cu16  Cu    Cu3+1 0.500010 0.819150 0.180880 0.960037
Cu17  Cu    Cu3+1 0.819150 0.180880 0.500010 0.952206
Cu18  Cu    Cu3+1 0.180880 0.500010 0.819150 0.958701
C166  C     C_R   0.196713 0.124724 0.196906 0.073319
C167  C     C_R   0.196154 0.196843 0.124735 0.081187
C168  C     C_R   0.124124 0.196326 0.196922 0.066380
C169  C     C_R   0.660661 0.505501 0.172899 -0.201586
C170  C     C_R   0.172992 0.660821 0.505034 -0.202003
C171  C     C_R   0.505296 0.172951 0.660717 -0.205196
C172  C     C_R   0.183684 0.471629 0.672295 -0.220125
C173  C     C_R   0.472724 0.672009 0.183031 -0.218846
C174  C     C_R   0.672215 0.183927 0.471502 -0.216295
H64   H     H_    0.644178 0.499999 0.211334 0.171143
H65   H     H_    0.211338 0.644251 0.499809 0.171152
H66   H     H_    0.499536 0.211383 0.644313 0.171622
H67   H     H_    0.220324 0.472533 0.653513 0.169421
H68   H     H_    0.473006 0.653454 0.219930 0.169766
H69   H     H_    0.653282 0.220363 0.472865 0.170083
C175  C     C_R   0.703891 0.519053 0.073385 0.082247
C176  C     C_R   0.073704 0.704290 0.517883 0.081957
C177  C     C_R   0.519618 0.073387 0.703735 0.081501
C178  C     C_R   0.087523 0.472157 0.720201 0.071849
C179  C     C_R   0.474708 0.719337 0.086269 0.072777
C180  C     C_R   0.720544 0.088291 0.470883 0.073606
C181  C     C_R   0.179185 0.666595 0.667260 -0.195560
C182  C     C_R   0.667466 0.179213 0.666704 -0.196075
C183  C     C_R   0.667102 0.668386 0.179674 -0.203177
H70   H     H_    0.214761 0.646937 0.647755 0.174542
H71   H     H_    0.647930 0.214687 0.646901 0.174557
H72   H     H_    0.646771 0.648150 0.214156 0.173401
C184  C     C_R   0.086692 0.718568 0.717965 0.131098
C185  C     C_R   0.718260 0.086992 0.719032 0.131598
C186  C     C_R   0.719808 0.721061 0.089755 0.130321
C187  C     C_R   0.331190 0.821542 0.516691 -0.272513
C188  C     C_R   0.507170 0.333024 0.825937 -0.281635
C189  C     C_R   0.828634 0.495476 0.338281 -0.270019
C190  C     C_R   0.495445 0.828306 0.338549 -0.273747
C191  C     C_R   0.816579 0.327137 0.529156 -0.272130
C192  C     C_R   0.338085 0.495716 0.828484 -0.268085
H73   H     H_    0.350017 0.785239 0.514980 0.199165
H74   H     H_    0.509504 0.350642 0.788231 0.198828
H75   H     H_    0.789931 0.502675 0.353802 0.196643
H76   H     H_    0.501999 0.789729 0.354395 0.196681
H77   H     H_    0.782363 0.347527 0.522553 0.198132
H78   H     H_    0.353912 0.502490 0.789814 0.198252
C193  C     C_R   0.283119 0.916031 0.520185 -0.074613
C194  C     C_R   0.498557 0.289070 0.924517 -0.077741
C195  C     C_R   0.928989 0.478214 0.297881 -0.066493
C196  C     C_R   0.480083 0.928165 0.297137 -0.070506
C197  C     C_R   0.907304 0.275402 0.542102 -0.073050
C198  C     C_R   0.296682 0.479383 0.928722 -0.068209
C199  C     C_R   0.496036 0.338354 0.338728 -0.208713
C200  C     C_R   0.338221 0.496235 0.338544 -0.208738
C201  C     C_R   0.327859 0.327868 0.528647 -0.218303
H79   H     H_    0.500107 0.355400 0.355711 0.171352
H80   H     H_    0.355065 0.500837 0.355339 0.171566
H81   H     H_    0.347518 0.347516 0.524827 0.171746
C202  C     C_R   0.485652 0.294023 0.294597 0.081205
C203  C     C_R   0.294573 0.484203 0.294858 0.080784
C204  C     C_R   0.277546 0.277466 0.536339 0.075010
C205  C     C_R   0.338031 0.826619 0.338162 -0.212497
C206  C     C_R   0.337375 0.337377 0.826353 -0.215244
C207  C     C_R   0.826548 0.337714 0.338427 -0.210396
H82   H     H_    0.355931 0.789149 0.356030 0.170231
H83   H     H_    0.355596 0.355545 0.789101 0.170019
H84   H     H_    0.789226 0.355885 0.356357 0.170151
C208  C     C_R   0.291844 0.924028 0.292099 0.083181
C209  C     C_R   0.290508 0.290931 0.923387 0.082080
C210  C     C_R   0.923561 0.290938 0.292217 0.083391
O85   O     O_R   0.488840 0.716740 0.570530 -0.525689
O86   O     O_R   0.570530 0.488840 0.716740 -0.522219
O87   O     O_R   0.716740 0.570530 0.488840 -0.515312
O88   O     O_R   0.570530 0.716740 0.488840 -0.503278
O89   O     O_R   0.716740 0.488840 0.570530 -0.520849
O90   O     O_R   0.488840 0.570530 0.716740 -0.505497
O91   O     O_R   0.487970 0.782940 0.571270 -0.568176
O92   O     O_R   0.571270 0.487970 0.782940 -0.561259
O93   O     O_R   0.782940 0.571270 0.487970 -0.557828
O94   O     O_R   0.571270 0.782940 0.487970 -0.527944
O95   O     O_R   0.782940 0.487970 0.571270 -0.527218
O96   O     O_R   0.487970 0.571270 0.782940 -0.522639
C211  C     C_R   0.477751 0.742230 0.596873 0.765594
C212  C     C_R   0.596851 0.476977 0.742620 0.779745
C213  C     C_R   0.735422 0.591480 0.496390 0.761901
C214  C     C_R   0.585211 0.734173 0.505458 0.817638
C215  C     C_R   0.734685 0.499180 0.589890 0.751616
C216  C     C_R   0.500213 0.589243 0.734488 0.810492
C217  C     C_R   0.478385 0.716929 0.647111 -0.173763
C218  C     C_R   0.647341 0.476725 0.717589 -0.184970
C219  C     C_R   0.707942 0.640513 0.499978 -0.196940
C220  C     C_R   0.632380 0.706007 0.513430 -0.201278
C221  C     C_R   0.709021 0.497150 0.640573 -0.179720
C222  C     C_R   0.498772 0.639751 0.708627 -0.196931
C223  C     C_R   0.482791 0.738569 0.670323 -0.156616
C224  C     C_R   0.671056 0.479804 0.739744 -0.157705
C225  C     C_R   0.731433 0.668349 0.494461 -0.154332
C226  C     C_R   0.654375 0.727001 0.519976 -0.129438
C227  C     C_R   0.724528 0.511644 0.661125 -0.144143
C228  C     C_R   0.514317 0.659760 0.723725 -0.145016
H85   H     H_    0.471282 0.777377 0.657462 0.217787
H86   H     H_    0.658261 0.467823 0.778638 0.215291
H87   H     H_    0.770281 0.656571 0.479663 0.211935
H88   H     H_    0.630821 0.756746 0.533364 0.231865
H89   H     H_    0.749024 0.531900 0.636816 0.218084
H90   H     H_    0.534723 0.635137 0.748083 0.220294
C229  C     C_R   0.267546 0.975561 0.267970 0.091588
C230  C     C_R   0.266273 0.267168 0.975043 0.092772
C231  C     C_R   0.974996 0.266688 0.268087 0.096712
C232  C     C_R   0.221225 0.073468 0.221592 0.099292
C233  C     C_R   0.220252 0.221521 0.073330 0.100136
C234  C     C_R   0.072869 0.220567 0.221763 0.096077
H91   H     H_    0.330167 0.997229 0.236826 0.138802
H92   H     H_    0.198416 0.288685 0.966228 0.134867
H93   H     H_    0.966914 0.197378 0.294360 0.132864
H94   H     H_    0.198542 0.967229 0.293069 0.136915
H95   H     H_    0.996192 0.329726 0.236017 0.144070
H96   H     H_    0.327502 0.240827 0.997132 0.145594
H97   H     H_    0.290221 0.081889 0.196317 0.175104
H98   H     H_    0.158559 0.249110 0.051306 0.130532
H99   H     H_    0.051523 0.157486 0.254144 0.125364
H100  H     H_    0.158554 0.051705 0.252990 0.126874
H101  H     H_    0.080909 0.289922 0.195564 0.180983
H102  H     H_    0.287991 0.200273 0.082262 0.173034
Cu19  Cu    Cu3+1 0.500070 0.739800 0.500070 1.105194
Cu20  Cu    Cu3+1 0.500070 0.500070 0.739800 1.113169
Cu21  Cu    Cu3+1 0.739800 0.500070 0.500070 1.101443
Cu22  Cu    Cu3+1 0.500070 0.819140 0.500070 1.201664
Cu23  Cu    Cu3+1 0.500070 0.500070 0.819140 1.205607
Cu24  Cu    Cu3+1 0.819140 0.500070 0.500070 1.202961
C235  C     C_R   0.481113 0.668621 0.669412 0.318450
C236  C     C_R   0.669424 0.480170 0.668998 0.315510
C237  C     C_R   0.657592 0.659486 0.510228 0.292353
C238  C     C_R   0.502851 0.710294 0.708219 0.139684
C239  C     C_R   0.709285 0.499331 0.711804 0.141518
C240  C     C_R   0.705064 0.709793 0.509057 0.136206
C241  C     C_R   0.898648 0.828770 0.828723 0.407932
C242  C     C_R   0.827600 0.898582 0.830454 0.414654
C243  C     C_R   0.830149 0.828198 0.900991 0.407165
N1    N     N_R   0.876089 0.805680 0.875865 -0.296124
N2    N     N_R   0.873537 0.874920 0.806620 -0.293253
N3    N     N_R   0.806402 0.874358 0.877425 -0.292276
C244  C     C_R   0.974192 0.753869 0.822936 0.274590
C245  C     C_R   0.822609 0.974175 0.755318 0.288648
C246  C     C_R   0.754873 0.824712 0.975779 0.284219
C247  C     C_R   0.827074 0.755068 0.980498 0.283236
C248  C     C_R   0.751226 0.974199 0.826502 0.273654
C249  C     C_R   0.973381 0.825237 0.751646 0.275433
C250  C     C_R   0.012082 0.725301 0.793653 -0.111381
C251  C     C_R   0.793652 0.012140 0.726363 -0.119818
C252  C     C_R   0.726381 0.795585 0.013865 -0.113699
C253  C     C_R   0.800381 0.732637 0.028303 -0.118955
C254  C     C_R   0.726561 0.021143 0.800462 -0.119568
C255  C     C_R   0.020079 0.799584 0.726329 -0.119386
C256  C     C_R   0.038885 0.748213 0.745769 -0.077658
C257  C     C_R   0.746002 0.039376 0.748982 -0.081940
C258  C     C_R   0.749107 0.749739 0.043175 -0.084581
C259  C     C_R   0.949119 0.802541 0.800625 -0.145684
C260  C     C_R   0.799951 0.949331 0.804064 -0.147057
C261  C     C_R   0.804210 0.801968 0.952682 -0.147049
C262  C     C_R   0.873887 0.806856 0.523688 0.054251
C263  C     C_R   0.528949 0.872490 0.803875 0.054233
C264  C     C_R   0.805427 0.526087 0.873084 0.054002
C265  C     C_R   0.500899 0.812334 0.880451 0.054713
C266  C     C_R   0.815196 0.883805 0.493980 0.054657
C267  C     C_R   0.882262 0.496989 0.813852 0.054942
C268  C     C_R   0.807303 0.807668 0.512413 0.102499
C269  C     C_R   0.518023 0.806355 0.803564 0.102267
C270  C     C_R   0.805783 0.513567 0.807550 0.101427
C271  C     C_R   0.856196 0.857535 0.508375 -0.219194
C272  C     C_R   0.514598 0.853718 0.854606 -0.217128
C273  C     C_R   0.856114 0.511505 0.854781 -0.218023
H103  H     H_    0.874980 0.876704 0.506783 0.126069
H104  H     H_    0.513052 0.872053 0.874193 0.126584
H105  H     H_    0.875394 0.510390 0.873181 0.126656
C274  C     C_R   0.795332 0.858417 0.490365 -0.172277
C275  C     C_R   0.497388 0.792805 0.854628 -0.171252
C276  C     C_R   0.856734 0.492695 0.794589 -0.173083
C277  C     C_R   0.536654 0.844740 0.779155 -0.184145
C278  C     C_R   0.845238 0.782871 0.531807 -0.181484
C279  C     C_R   0.781105 0.533184 0.845242 -0.183137
H106  H     H_    0.769261 0.878456 0.471997 0.124742
H107  H     H_    0.480016 0.765916 0.874516 0.124970
H108  H     H_    0.876747 0.474530 0.768361 0.124760
H109  H     H_    0.555057 0.854653 0.740774 0.125881
H110  H     H_    0.854058 0.744740 0.551204 0.124991
H111  H     H_    0.742771 0.551712 0.854684 0.125885
C280  C     C_R   0.960296 0.801434 0.491258 -0.174641
C281  C     C_R   0.495876 0.958383 0.800201 -0.174254
C282  C     C_R   0.800870 0.493805 0.959266 -0.173598
C283  C     C_R   0.521765 0.787907 0.952785 -0.175421
C284  C     C_R   0.791032 0.955409 0.515471 -0.176520
C285  C     C_R   0.954309 0.518149 0.789466 -0.176834
C286  C     C_R   0.008318 0.776665 0.489277 -0.177557
C287  C     C_R   0.493073 0.006656 0.776043 -0.177599
C288  C     C_R   0.776331 0.491494 0.007425 -0.176165
C289  C     C_R   0.515679 0.765450 0.002081 -0.188335
C290  C     C_R   0.768016 0.004360 0.510257 -0.188835
C291  C     C_R   0.003462 0.512390 0.766850 -0.188292
C292  C     C_R   0.022195 0.729442 0.520873 0.105924
C293  C     C_R   0.523718 0.021570 0.728471 0.105653
C294  C     C_R   0.728884 0.522496 0.021710 0.106218
C295  C     C_R   0.480402 0.743008 0.033868 0.107391
C296  C     C_R   0.744829 0.036311 0.475549 0.108058
C297  C     C_R   0.035320 0.477354 0.744169 0.108656
C298  C     C_R   0.986795 0.707310 0.554658 -0.183670
C299  C     C_R   0.557498 0.986908 0.705442 -0.183498
C300  C     C_R   0.706318 0.556066 0.986564 -0.183354
C301  C     C_R   0.451575 0.743029 0.015050 -0.173970
C302  C     C_R   0.744832 0.018075 0.446267 -0.176259
C303  C     C_R   0.016761 0.448317 0.744251 -0.176738
C304  C     C_R   0.938188 0.732488 0.557125 -0.165042
C305  C     C_R   0.560801 0.938075 0.729987 -0.164415
C306  C     C_R   0.731245 0.558848 0.937832 -0.165076
C307  C     C_R   0.457387 0.765956 0.965488 -0.169731
C308  C     C_R   0.768392 0.968860 0.451155 -0.168405
C309  C     C_R   0.967354 0.453728 0.767433 -0.168941
C310  C     C_R   0.924260 0.780100 0.525404 0.125587
C311  C     C_R   0.529928 0.923125 0.777875 0.124774
C312  C     C_R   0.779043 0.527671 0.923517 0.125552
C313  C     C_R   0.492476 0.788978 0.933683 0.124442
C314  C     C_R   0.791997 0.936849 0.485807 0.126690
C315  C     C_R   0.935427 0.488684 0.790576 0.125493
H112  H     H_    0.034987 0.794209 0.462126 0.138659
H113  H     H_    0.465936 0.032708 0.794312 0.138467
H114  H     H_    0.794222 0.464502 0.033884 0.138890
H115  H     H_    0.539351 0.764727 0.015319 0.128363
H116  H     H_    0.767435 0.017161 0.534204 0.129373
H117  H     H_    0.016520 0.536153 0.766176 0.129139
H118  H     H_    0.996634 0.670861 0.579507 0.125195
H119  H     H_    0.581656 0.997510 0.668724 0.124954
H120  H     H_    0.669696 0.580467 0.996705 0.124704
H121  H     H_    0.424097 0.725932 0.038810 0.135169
H122  H     H_    0.727188 0.042019 0.419195 0.133441
H123  H     H_    0.040605 0.421002 0.726989 0.131837
H124  H     H_    0.951817 0.837054 0.464755 0.132223
H125  H     H_    0.470014 0.949112 0.836108 0.132580
H126  H     H_    0.836677 0.467721 0.950467 0.132417
H127  H     H_    0.550301 0.803638 0.929414 0.129451
H128  H     H_    0.807140 0.931853 0.543754 0.128946
H129  H     H_    0.930879 0.546625 0.805228 0.128959
H130  H     H_    0.911762 0.714633 0.583940 0.115942
H131  H     H_    0.587551 0.912275 0.711393 0.115923
H132  H     H_    0.713036 0.585423 0.911609 0.115892
H133  H     H_    0.433993 0.766098 0.952354 0.127780
H134  H     H_    0.768408 0.956154 0.427497 0.125616
H135  H     H_    0.954455 0.430161 0.767600 0.126190
C316  C     C_R   0.804039 0.733777 0.511430 -0.111471
C317  C     C_R   0.513679 0.805520 0.729873 -0.112072
C318  C     C_R   0.732332 0.508624 0.807232 -0.110909
C319  C     C_R   0.524733 0.730683 0.797924 -0.114999
C320  C     C_R   0.730622 0.803703 0.518923 -0.115237
C321  C     C_R   0.800436 0.518860 0.732197 -0.114613
C322  C     C_R   0.776718 0.708687 0.518187 0.264586
C323  C     C_R   0.517532 0.779500 0.705073 0.264182
C324  C     C_R   0.707213 0.512605 0.781423 0.263546
C325  C     C_R   0.513398 0.709898 0.779162 0.284405
C326  C     C_R   0.708925 0.783952 0.509801 0.285477
C327  C     C_R   0.781116 0.507875 0.711652 0.283391
C328  C     C_R   0.730371 0.734572 0.512190 -0.111324
C329  C     C_R   0.511606 0.733212 0.731034 -0.110019
C330  C     C_R   0.732753 0.506873 0.735022 -0.110628
C331  C     C_R   0.780479 0.781216 0.514483 -0.080572
C332  C     C_R   0.519125 0.780743 0.776495 -0.080437
C333  C     C_R   0.778955 0.513950 0.782169 -0.080762
C334  C     C_R   0.104927 0.177331 0.540590 0.091813
C335  C     C_R   0.466056 0.129545 0.202597 0.106156
C336  C     C_R   0.204270 0.458781 0.132344 0.109717
C337  C     C_R   0.470207 0.200131 0.129543 0.109340
C338  C     C_R   0.178854 0.108197 0.532896 0.110769
C339  C     C_R   0.132471 0.458333 0.204604 0.105030
C340  C     C_R   0.177544 0.177356 0.539622 0.046462
C341  C     C_R   0.470543 0.199767 0.201644 0.040338
C342  C     C_R   0.202929 0.463496 0.202820 0.041512
C343  C     C_R   0.128546 0.199946 0.542913 -0.139740
C344  C     C_R   0.467915 0.152795 0.225941 -0.146288
C345  C     C_R   0.226889 0.462183 0.155284 -0.155876
C346  C     C_R   0.471884 0.223052 0.153281 -0.154286
C347  C     C_R   0.202324 0.131204 0.534826 -0.144691
C348  C     C_R   0.155622 0.461637 0.227066 -0.152747
H136  H     H_    0.109149 0.236012 0.545244 0.148017
H137  H     H_    0.467205 0.134152 0.263165 0.151984
H138  H     H_    0.262783 0.465052 0.135467 0.144772
H139  H     H_    0.475395 0.258675 0.133537 0.145858
H140  H     H_    0.239859 0.112818 0.532900 0.140881
H141  H     H_    0.136524 0.462722 0.263662 0.151004
C349  C     C_R   0.130118 0.131287 0.535909 -0.110604
C350  C     C_R   0.466941 0.153462 0.154369 -0.102095
C351  C     C_R   0.157089 0.456632 0.157217 -0.096437
H142  H     H_    0.112072 0.113823 0.533810 0.133949
H143  H     H_    0.466674 0.135269 0.135780 0.131695
H144  H     H_    0.139022 0.455329 0.139189 0.133947
C352  C     C_R   0.016831 0.209994 0.582902 -0.219125
C353  C     C_R   0.509394 0.043299 0.237799 -0.229542
C354  C     C_R   0.233344 0.506277 0.045919 -0.226466
C355  C     C_R   0.520823 0.227498 0.044274 -0.224797
C356  C     C_R   0.200530 0.019375 0.569703 -0.222303
C357  C     C_R   0.046698 0.502900 0.240637 -0.230991
C358  C     C_R   0.968744 0.233177 0.584030 -0.092520
C359  C     C_R   0.513323 0.994646 0.260389 -0.086197
C360  C     C_R   0.255403 0.511794 0.996761 -0.086838
C361  C     C_R   0.528363 0.248902 0.994697 -0.101086
C362  C     C_R   0.226513 0.972682 0.567389 -0.135781
C363  C     C_R   0.997671 0.508122 0.263136 -0.093437
C364  C     C_R   0.957885 0.250086 0.542255 0.090109
C365  C     C_R   0.474599 0.980413 0.274473 0.081143
C366  C     C_R   0.274211 0.472564 0.981422 0.083299
C367  C     C_R   0.490283 0.267954 0.977514 0.092764
C368  C     C_R   0.257500 0.965627 0.522873 0.091464
C369  C     C_R   0.981817 0.470888 0.276186 0.078730
C370  C     C_R   0.995505 0.244060 0.499301 -0.187484
C371  C     C_R   0.432069 0.015486 0.264641 -0.193146
C372  C     C_R   0.269862 0.427743 0.015957 -0.195214
C373  C     C_R   0.444501 0.265159 0.010658 -0.175749
C374  C     C_R   0.262938 0.005710 0.480697 -0.140427
C375  C     C_R   0.015834 0.428431 0.265594 -0.187286
C376  C     C_R   0.043916 0.220860 0.497561 0.338163
C377  C     C_R   0.427664 0.064828 0.241285 0.348158
C378  C     C_R   0.247292 0.421581 0.065825 0.334937
C379  C     C_R   0.436341 0.243278 0.060801 0.332389
C380  C     C_R   0.237385 0.053092 0.482368 0.328480
C381  C     C_R   0.065547 0.422714 0.242431 0.344164
N4    N     N_R   0.467517 0.929812 0.374567 0.132671
O97   O     O_R   0.496420 0.950091 0.365677 -0.331568
O98   O     O_R   0.428755 0.930384 0.412655 -0.331849
N5    N     N_R   0.371558 0.473097 0.929871 0.130996
O99   O     O_R   0.360079 0.503915 0.949174 -0.331569
O100  O     O_R   0.409640 0.434684 0.933004 -0.320523
N6    N     N_R   0.906667 0.346421 0.545569 0.134446
O101  O     O_R   0.886111 0.360774 0.582627 -0.324142
O102  O     O_R   0.948758 0.350293 0.515169 -0.289476
N7    N     N_R   0.344006 0.905235 0.547807 0.137314
O103  O     O_R   0.350078 0.947183 0.523100 -0.297383
O104  O     O_R   0.354958 0.878951 0.587344 -0.351789
N8    N     N_R   0.929835 0.467383 0.374986 0.131292
O105  O     O_R   0.931505 0.428039 0.412440 -0.317001
O106  O     O_R   0.947840 0.497585 0.367454 -0.339148
N9    N     N_R   0.522432 0.350409 0.917901 0.136094
O107  O     O_R   0.492067 0.360462 0.957418 -0.284993
O108  O     O_R   0.565438 0.353113 0.900138 -0.351035
N10   N     N_R   0.464904 0.649825 0.652448 0.146825
O109  O     O_R   0.419588 0.666834 0.656378 -0.352815
O110  O     O_R   0.496315 0.622330 0.625942 -0.272940
N11   N     N_R   0.651548 0.465894 0.649264 0.146284
O111  O     O_R   0.654605 0.421001 0.665278 -0.358173
O112  O     O_R   0.625299 0.498648 0.621723 -0.279816
N12   N     N_R   0.631535 0.631160 0.519605 0.138935
O113  O     O_R   0.630143 0.627553 0.483799 -0.307784
O114  O     O_R   0.602774 0.616041 0.563166 -0.314733
C382  C     C_R   0.012302 0.676135 0.806788 0.135773
C383  C     C_R   0.990229 0.670795 0.784716 -0.133040
C384  C     C_R   0.990087 0.625308 0.795382 -0.138938
C385  C     C_R   0.012124 0.584632 0.828063 -0.116769
C386  C     C_R   0.034359 0.589382 0.850089 -0.093246
C387  C     C_R   0.034452 0.634815 0.839642 -0.056688
H145  H     H_    0.973106 0.701979 0.759181 0.127346
H146  H     H_    0.972921 0.621611 0.778247 0.125744
H147  H     H_    0.012090 0.549415 0.836252 0.118276
H148  H     H_    0.051817 0.557779 0.875078 0.119137
H149  H     H_    0.052992 0.637279 0.856281 0.151762
C388  C     C_R   0.806820 0.012131 0.677207 0.146504
C389  C     C_R   0.784910 0.989828 0.672002 -0.128170
C390  C     C_R   0.795638 0.989473 0.626513 -0.138357
C391  C     C_R   0.828253 0.011488 0.585715 -0.117123
C392  C     C_R   0.850125 0.033940 0.590336 -0.093815
C393  C     C_R   0.839576 0.034273 0.635754 -0.054750
H150  H     H_    0.759441 0.972708 0.703285 0.127234
H151  H     H_    0.778604 0.972170 0.622894 0.126088
H152  H     H_    0.836496 0.011276 0.550506 0.117640
H153  H     H_    0.875064 0.051391 0.558654 0.117426
H154  H     H_    0.856057 0.052991 0.638085 0.139521
C394  C     C_R   0.678081 0.806866 0.013325 0.142462
C395  C     C_R   0.674733 0.783619 0.990987 -0.128719
C396  C     C_R   0.630062 0.792911 0.989885 -0.138042
C397  C     C_R   0.588277 0.825391 0.011193 -0.118437
C398  C     C_R   0.591075 0.848506 0.033744 -0.093821
C399  C     C_R   0.635668 0.839414 0.034817 -0.054969
H155  H     H_    0.706822 0.758293 0.974367 0.128752
H156  H     H_    0.627849 0.774912 0.972510 0.126663
H157  H     H_    0.553707 0.832619 0.010336 0.118112
H158  H     H_    0.558616 0.873332 0.050640 0.119909
H159  H     H_    0.636629 0.856953 0.053504 0.150957
C400  C     C_R   0.825662 0.694626 0.063788 0.151069
C401  C     C_R   0.814799 0.703098 0.105343 -0.103833
C402  C     C_R   0.834381 0.666587 0.141563 -0.142621
C403  C     C_R   0.865125 0.621444 0.136530 -0.067102
C404  C     C_R   0.877111 0.612871 0.094899 -0.096530
C405  C     C_R   0.857519 0.649319 0.058516 -0.098063
H160  H     H_    0.790238 0.737699 0.110128 0.141824
H161  H     H_    0.825199 0.673084 0.173852 0.141939
H162  H     H_    0.879078 0.593093 0.165255 0.141311
H163  H     H_    0.900777 0.577691 0.091289 0.130292
H164  H     H_    0.865490 0.641536 0.027447 0.162943
C406  C     C_R   0.680689 0.050158 0.828317 0.149921
C407  C     C_R   0.677671 0.092971 0.828439 -0.102417
C408  C     C_R   0.633942 0.121210 0.853143 -0.109468
C409  C     C_R   0.593245 0.106711 0.877945 -0.050424
C410  C     C_R   0.596105 0.063850 0.878681 -0.133292
C411  C     C_R   0.639621 0.035581 0.854002 -0.090721
H165  H     H_    0.708921 0.104712 0.808854 0.139039
H166  H     H_    0.631403 0.154607 0.852581 0.136145
H167  H     H_    0.559149 0.129116 0.895712 0.154371
H168  H     H_    0.564366 0.052994 0.897660 0.118531
H169  H     H_    0.640939 0.003233 0.853544 0.156253
C412  C     C_R   0.047874 0.827937 0.679562 0.146802
C413  C     C_R   0.090344 0.830227 0.674948 -0.097696
C414  C     C_R   0.116865 0.856185 0.630530 -0.103271
C415  C     C_R   0.101008 0.880034 0.590724 -0.056684
C416  C     C_R   0.058578 0.878390 0.595155 -0.138240
C417  C     C_R   0.032013 0.852513 0.639353 -0.091450
H170  H     H_    0.103038 0.811553 0.705529 0.141240
H171  H     H_    0.149928 0.857437 0.626803 0.131192
H172  H     H_    0.121916 0.899075 0.556121 0.139377
H173  H     H_    0.046640 0.896619 0.564142 0.117968
H174  H     H_    0.999895 0.850413 0.641925 0.154615
N13   N     N_R   0.971023 0.738689 0.872196 0.186951
O115  O     O_R   0.984757 0.693173 0.897429 -0.314918
O116  O     O_R   0.965705 0.769947 0.887625 -0.287685
N14   N     N_R   0.871994 0.970494 0.740275 0.187950
O117  O     O_R   0.896612 0.986012 0.694774 -0.331564
O118  O     O_R   0.888417 0.962416 0.772119 -0.298182
N15   N     N_R   0.738996 0.874271 0.971836 0.191448
O119  O     O_R   0.693309 0.898254 0.987315 -0.316550
O120  O     O_R   0.770120 0.891433 0.963963 -0.294832
N16   N     N_R   0.877285 0.730476 0.961541 0.155092
O121  O     O_R   0.907238 0.725654 0.978301 -0.272257
O122  O     O_R   0.890180 0.702119 0.938790 -0.352880
N17   N     N_R   0.727196 0.953882 0.876754 0.156310
O123  O     O_R   0.716191 0.974296 0.906488 -0.268360
O124  O     O_R   0.705431 0.924519 0.889896 -0.364432
N18   N     N_R   0.952875 0.875537 0.728037 0.158308
O125  O     O_R   0.972977 0.905204 0.717798 -0.269919
O126  O     O_R   0.923734 0.888965 0.705847 -0.363617
N19   N     N_R   0.794897 0.656725 0.534471 0.103157
O127  O     O_R   0.769567 0.632462 0.575005 -0.345389
O128  O     O_R   0.835532 0.633511 0.508256 -0.347324
N20   N     N_R   0.530625 0.798910 0.653177 0.105547
O129  O     O_R   0.568256 0.773277 0.627111 -0.350805
O130  O     O_R   0.503797 0.840700 0.631936 -0.337443
N21   N     N_R   0.655403 0.525615 0.801194 0.105392
O131  O     O_R   0.629104 0.563494 0.775891 -0.336487
O132  O     O_R   0.634473 0.498402 0.842900 -0.341998
N22   N     N_R   0.500688 0.666895 0.810630 0.091472
O133  O     O_R   0.456938 0.668244 0.823525 -0.343803
O134  O     O_R   0.532421 0.626492 0.826767 -0.314393
N23   N     N_R   0.667148 0.815503 0.494909 0.089692
O135  O     O_R   0.669282 0.823785 0.452073 -0.348532
O136  O     O_R   0.626770 0.835422 0.524107 -0.320713
N24   N     N_R   0.812160 0.494871 0.668721 0.092550
O137  O     O_R   0.823760 0.451419 0.670205 -0.329831
O138  O     O_R   0.828900 0.526151 0.628163 -0.312346
C418  C     C_R   0.857554 0.711096 0.497936 0.144176
C419  C     C_R   0.886955 0.732488 0.452093 -0.120061
C420  C     C_R   0.937298 0.713151 0.439602 -0.121583
C421  C     C_R   0.958721 0.672164 0.472580 -0.096569
C422  C     C_R   0.929851 0.650377 0.518092 -0.129664
C423  C     C_R   0.879459 0.669743 0.530950 -0.068000
H175  H     H_    0.870798 0.764488 0.426315 0.134148
H176  H     H_    0.959709 0.730039 0.404381 0.135594
H177  H     H_    0.997704 0.657304 0.462891 0.132358
H178  H     H_    0.946611 0.618630 0.543444 0.135521
H179  H     H_    0.857523 0.653176 0.566799 0.167265
C424  C     C_R   0.500943 0.858947 0.707717 0.144180
C425  C     C_R   0.456045 0.888590 0.730002 -0.113983
C426  C     C_R   0.444472 0.938816 0.711044 -0.116398
C427  C     C_R   0.477400 0.959864 0.669536 -0.096866
C428  C     C_R   0.521932 0.930740 0.646834 -0.128558
C429  C     C_R   0.533892 0.880454 0.665821 -0.067948
H180  H     H_    0.430352 0.872696 0.762413 0.135361
H181  H     H_    0.410013 0.961422 0.728630 0.136354
H182  H     H_    0.468427 0.998752 0.654973 0.131826
H183  H     H_    0.547227 0.947205 0.614664 0.138667
H184  H     H_    0.568990 0.858261 0.648491 0.166124
C430  C     C_R   0.710588 0.495739 0.860803 0.143824
C431  C     C_R   0.733426 0.451051 0.890288 -0.115909
C432  C     C_R   0.714849 0.439313 0.940603 -0.118185
C433  C     C_R   0.673152 0.471846 0.961922 -0.094835
C434  C     C_R   0.649899 0.516162 0.932978 -0.129771
C435  C     C_R   0.668550 0.528319 0.882592 -0.067933
H185  H     H_    0.765958 0.425636 0.874196 0.134767
H186  H     H_    0.732859 0.405018 0.963072 0.136518
H187  H     H_    0.658860 0.462728 0.000882 0.133272
H188  H     H_    0.617538 0.541127 0.949670 0.135101
H189  H     H_    0.650805 0.563274 0.860538 0.170076
C436  C     C_R   0.545681 0.699187 0.837871 0.156985
C437  C     C_R   0.592542 0.694809 0.829499 -0.109523
C438  C     C_R   0.611909 0.668028 0.867086 -0.155747
C439  C     C_R   0.584652 0.645546 0.913388 -0.131651
C440  C     C_R   0.538255 0.649150 0.922042 -0.123957
C441  C     C_R   0.518789 0.675720 0.884515 -0.069503
H190  H     H_    0.613827 0.712643 0.793936 0.128560
H191  H     H_    0.647926 0.665014 0.860405 0.124574
H192  H     H_    0.599508 0.625345 0.942562 0.118368
H193  H     H_    0.517150 0.631786 0.957981 0.134292
H194  H     H_    0.482249 0.679362 0.892153 0.156721
C442  C     C_R   0.700092 0.846044 0.536268 0.159602
C443  C     C_R   0.694450 0.840893 0.582517 -0.113911
C444  C     C_R   0.668823 0.880803 0.598308 -0.158203
C445  C     C_R   0.648765 0.926209 0.568058 -0.124074
C446  C     C_R   0.653572 0.931663 0.522273 -0.123263
C447  C     C_R   0.678971 0.891821 0.506386 -0.072728
H195  H     H_    0.710480 0.806048 0.606050 0.128905
H196  H     H_    0.664843 0.876608 0.633865 0.123688
H197  H     H_    0.629441 0.957169 0.580135 0.118955
H198  H     H_    0.638096 0.966901 0.498846 0.133999
H199  H     H_    0.683662 0.896938 0.470235 0.155243
C448  C     C_R   0.841405 0.538265 0.700513 0.159475
C449  C     C_R   0.834615 0.584963 0.695019 -0.103795
C450  C     C_R   0.873312 0.602698 0.668275 -0.157451
C451  C     C_R   0.919126 0.573971 0.646923 -0.125774
C452  C     C_R   0.926182 0.527758 0.651563 -0.119965
C453  C     C_R   0.887553 0.509919 0.678098 -0.072362
H200  H     H_    0.799454 0.607340 0.712031 0.128677
H201  H     H_    0.867877 0.638579 0.664438 0.123413
H202  H     H_    0.949176 0.587527 0.626810 0.117776
H203  H     H_    0.961740 0.505514 0.635084 0.134305
H204  H     H_    0.893948 0.473478 0.682620 0.156936
N25   N     N_R   0.081405 0.216647 0.452318 0.135872
O139  O     O_R   0.121880 0.222242 0.439813 -0.263404
O140  O     O_R   0.072877 0.213374 0.420763 -0.333572
N26   N     N_R   0.383182 0.099729 0.232334 0.137207
O141  O     O_R   0.367939 0.143378 0.232378 -0.256311
O142  O     O_R   0.355270 0.086642 0.228702 -0.365146
N27   N     N_R   0.244193 0.374747 0.100078 0.142979
O143  O     O_R   0.244216 0.360705 0.143584 -0.260250
O144  O     O_R   0.245903 0.344005 0.086460 -0.312487
N28   N     N_R   0.388671 0.241436 0.093466 0.138946
O145  O     O_R   0.373167 0.241800 0.137120 -0.262200
O146  O     O_R   0.358715 0.243999 0.078161 -0.335833
N29   N     N_R   0.244330 0.093242 0.438073 0.127195
O147  O     O_R   0.210396 0.135190 0.432840 -0.269009
O148  O     O_R   0.283383 0.086951 0.401024 -0.300441
N30   N     N_R   0.099236 0.378242 0.233003 0.133430
O149  O     O_R   0.084996 0.352384 0.227780 -0.365327
O150  O     O_R   0.142675 0.360744 0.234597 -0.258781
C454  C     C_R   0.224372 0.930594 0.486171 0.149874
C455  C     C_R   0.178405 0.952281 0.515062 -0.140748
C456  C     C_R   0.142067 0.986607 0.494721 -0.160930
C457  C     C_R   0.151347 0.999520 0.445465 -0.093991
C458  C     C_R   0.196970 0.978121 0.416473 -0.114195
C459  C     C_R   0.233364 0.943615 0.436717 -0.149030
H205  H     H_    0.170757 0.942655 0.553263 0.125696
H206  H     H_    0.106735 0.003230 0.517158 0.137915
H207  H     H_    0.123254 0.026257 0.429718 0.131509
H208  H     H_    0.204245 0.988735 0.378195 0.139176
H209  H     H_    0.268819 0.927848 0.413720 0.119274
C460  C     C_R   0.483632 0.220227 0.931803 0.149588
C461  C     C_R   0.516061 0.179719 0.954947 -0.152925
C462  C     C_R   0.504854 0.137243 0.986032 -0.166073
C463  C     C_R   0.461661 0.134530 0.993604 -0.110433
C464  C     C_R   0.429367 0.174467 0.970574 -0.117521
C465  C     C_R   0.439991 0.217399 0.940187 -0.125073
H210  H     H_    0.549892 0.181170 0.949074 0.131812
H211  H     H_    0.529879 0.106302 0.003874 0.143280
H212  H     H_    0.453172 0.101509 0.017384 0.121927
H213  H     H_    0.395946 0.172094 0.976737 0.114249
H214  H     H_    0.414199 0.248649 0.923636 0.097395
C466  C     C_R   0.932270 0.479789 0.221771 0.148067
C467  C     C_R   0.954482 0.514028 0.183938 -0.147285
C468  C     C_R   0.982704 0.508478 0.138487 -0.152631
C469  C     C_R   0.989342 0.468501 0.130638 -0.111543
C470  C     C_R   0.968045 0.433867 0.168345 -0.116940
C471  C     C_R   0.939916 0.439326 0.213857 -0.120421
H215  H     H_    0.950096 0.544831 0.189772 0.123135
H216  H     H_    0.999530 0.535092 0.109407 0.140551
H217  H     H_    0.011250 0.464193 0.095458 0.119523
H218  H     H_    0.973632 0.402666 0.162363 0.115487
H219  H     H_    0.924421 0.412024 0.243283 0.099387
C472  C     C_R   0.483788 0.930618 0.220574 0.152351
C473  C     C_R   0.441021 0.945394 0.212331 -0.137347
C474  C     C_R   0.438066 0.972498 0.165747 -0.115260
C475  C     C_R   0.477773 0.985149 0.127246 -0.118054
C476  C     C_R   0.520458 0.970703 0.135309 -0.143485
C477  C     C_R   0.523516 0.943545 0.181870 -0.106015
H220  H     H_    0.410078 0.936229 0.242189 0.101667
H221  H     H_    0.404977 0.983858 0.159516 0.119190
H222  H     H_    0.475431 0.006248 0.091208 0.119003
H223  H     H_    0.551118 0.980646 0.105506 0.142709
H224  H     H_    0.556615 0.932716 0.187861 0.127121
C478  C     C_R   0.905110 0.198679 0.551320 0.147448
C479  C     C_R   0.940660 0.178891 0.514613 -0.082325
C480  C     C_R   0.960237 0.128760 0.525272 -0.151736
C481  C     C_R   0.944445 0.098191 0.572491 -0.119468
C482  C     C_R   0.909102 0.117706 0.609145 -0.125119
C483  C     C_R   0.889412 0.167798 0.598636 -0.160277
H225  H     H_    0.952687 0.202242 0.477807 0.129142
H226  H     H_    0.987528 0.113614 0.496898 0.132554
H227  H     H_    0.959535 0.059400 0.580673 0.153730
H228  H     H_    0.896941 0.094027 0.645706 0.164770
H229  H     H_    0.861975 0.182559 0.627275 0.128855
C484  C     C_R   0.222863 0.477029 0.931825 0.143339
C485  C     C_R   0.219131 0.431586 0.948164 -0.149802
C486  C     C_R   0.174297 0.424638 0.976349 -0.101545
C487  C     C_R   0.133043 0.463025 0.988396 -0.122313
C488  C     C_R   0.136620 0.508346 0.972427 -0.149442
C489  C     C_R   0.181445 0.515368 0.944345 -0.091885
H230  H     H_    0.251106 0.401537 0.939720 0.121054
H231  H     H_    0.171581 0.389448 0.989110 0.132834
H232  H     H_    0.098359 0.457600 0.010297 0.120013
H233  H     H_    0.104700 0.537962 0.981990 0.139567
H234  H     H_    0.183992 0.550460 0.932473 0.128070

loop_
_geom_bond_atom_site_label_1
_geom_bond_atom_site_label_2
_geom_bond_distance
_ccdc_geom_bond_type
C53   H17   1.083605 S    
O67   C115  1.339355 S    
O43   Cu13  2.011500 S    
C337  C350  1.404153 A    
C48   C54   1.408573 A    
C246  C261  1.416477 A    
C39   C45   1.471944 S    
C475  H222  1.082423 S    
C61   C379  1.418214 A    
O31   C37   1.318785 S    
C176  C292  1.483971 S    
C255  C256  1.426060 A    
C269  C332  1.523918 S    
C179  C295  1.487809 S    
N12   O113  1.302123 A    
C114  H45   1.083319 S    
C484  C485  1.402138 A    
C445  H197  1.082445 S    
C132  C194  1.410361 A    
C274  H106  1.073839 S    
C213  C219  1.478308 S    
C89   C95   1.420205 A    
C163  C204  1.486203 S    
O29   C41   1.343426 S    
C361  C367  1.399362 A    
C143  C207  1.395513 A    
C30   C181  1.392202 A    
O6    Cu11  1.995371 S    
C146  C209  1.400771 A    
O58   Cu5   2.016087 S    
C366  C372  1.403442 A    
C147  C210  1.402289 A    
C478  C483  1.403373 A    
C70   H100  1.082911 S    
C63   C339  1.484761 S    
O77   Cu9   1.993041 S    
C365  C371  1.403269 A    
O47   Cu17  2.012068 S    
C35   C185  1.414922 A    
C448  C453  1.408527 A    
C155  C161  1.397049 A    
C100  C106  1.472597 S    
C243  N3    1.365528 A    
C466  C467  1.405034 A    
C9    C171  1.399026 A    
C350  H143  1.083964 S    
C288  H114  1.083325 S    
C432  C433  1.396917 A    
O85   Cu19  1.991204 S    
C267  C273  1.401634 A    
C334  C343  1.402985 A    
C34   C186  1.414201 A    
C267  C276  1.405750 A    
C399  H159  1.081635 S    
C74   C230  1.404010 A    
O32   C38   1.320070 S    
O88   C214  1.348027 S    
O40   C82   1.347514 S    
C247  N16   1.423065 S    
O60   Cu6   2.012402 S    
O45   Cu15  2.010672 S    
C91   C454  1.485974 S    
C246  N15   1.439682 S    
C416  C417  1.394979 A    
C60   C378  1.420440 A    
O38   C80   1.349959 S    
C406  C407  1.404600 A    
C164  C202  1.486959 S    
C68   C74   1.396226 A    
C137  C143  1.466917 S    
C404  H163  1.082366 S    
C21   C27   1.466438 S    
O57   C99   1.324934 S    
C91   C193  1.416470 A    
C347  H140  1.083453 S    
C299  H119  1.083029 S    
C339  C351  1.406229 A    
H49   C361  1.083021 S    
O23   C23   1.333627 S    
C319  C332  1.422863 A    
O2    Cu7   1.994799 S    
H60   C372  1.083229 S    
O73   C133  1.337791 S    
C149  H56   1.082625 S    
O94   C214  1.350973 S    
C85   C187  1.396080 A    
N11   O112  1.302522 A    
C286  H112  1.083353 S    
C284  H128  1.082674 S    
O35   C41   1.337598 S    
C482  H228  1.082351 S    
C398  H158  1.082470 S    
N19   O128  1.302072 A    
C457  C458  1.397197 A    
C342  C348  1.406451 A    
C461  H210  1.082927 S    
C320  C442  1.491919 S    
O20   Cu17  2.006987 S    
C150  C209  1.402651 A    
C65   H38   1.083347 S    
C144  C206  1.394159 A    
C450  C451  1.396544 A    
C482  C483  1.398013 A    
C292  C298  1.406039 A    
N20   O129  1.301247 A    
C92   C194  1.416265 A    
C321  C333  1.423262 A    
O49   Cu1   1.998665 S    
H24   C357  1.083567 S    
O42   C84   1.348261 S    
C129  C197  1.410858 A    
C470  H218  1.082027 S    
C83   C89   1.486514 S    
C94   C472  1.481630 S    
C145  H52   1.082984 S    
C446  C447  1.398353 A    
Cu9   Cu15  2.686459 S    
C53   C175  1.406454 A    
C340  C343  1.407728 A    
C271  H103  1.082978 S    
C309  C315  1.409805 A    
C58   C376  1.416214 A    
C343  H136  1.083454 S    
Cu21  Cu24  2.685982 S    
C157  C163  1.405106 A    
C436  C437  1.406004 A    
C212  C218  1.478230 S    
O53   Cu1   1.997162 S    
C135  C141  1.465195 S    
C74   H92   1.082980 S    
C255  C412  1.485454 S    
O41   Cu11  1.994379 S    
C253  C400  1.486783 S    
C456  C457  1.397013 A    
C345  H138  1.083656 S    
O12   C6    1.321973 S    
C103  C199  1.397268 A    
C369  C375  1.404441 A    
N9    O108  1.301243 A    
C250  C256  1.423795 A    
N13   O116  1.302207 A    
C166  C232  1.484443 S    
C49   H13   1.083428 S    
C22   C28   1.474412 S    
C481  H227  1.082443 S    
C56   C341  1.485442 S    
C335  C344  1.403743 A    
C476  H223  1.082301 S    
O76   Cu7   1.990316 S    
N18   O126  1.301356 A    
C269  C277  1.412967 A    
C99   C105  1.471111 S    
C266  C314  1.494420 S    
C327  C330  1.429035 A    
C226  C240  1.415421 A    
C45   C174  1.398092 A    
H23   C356  1.083450 S    
O31   Cu4   2.010944 S    
O90   Cu20  1.994930 S    
C355  C361  1.394394 A    
O54   Cu3   1.994934 S    
C437  C438  1.397901 A    
C264  C279  1.404795 A    
O55   Cu4   2.015338 S    
N7    O103  1.301191 A    
O20   C20   1.330051 S    
C383  H145  1.083410 S    
N24   O138  1.302097 A    
C307  C313  1.409422 A    
C442  C443  1.405878 A    
C289  C295  1.402532 A    
C294  C300  1.406112 A    
C118  C124  1.475808 S    
C60   C354  1.404124 A    
C128  N5    1.433110 S    
C219  C237  1.405848 A    
C280  C286  1.391315 A    
O64   Cu19  1.996680 S    
O82   Cu13  2.007249 S    
O26   Cu2   1.991082 S    
C66   H39   1.083335 S    
C304  H130  1.081743 S    
C480  H226  1.082319 S    
C241  C259  1.522470 S    
C469  C470  1.397527 A    
N27   O143  1.301066 A    
O92   Cu23  2.010746 S    
C283  C289  1.395099 A    
C156  C162  1.398520 A    
O60   C102  1.336422 S    
C306  H132  1.081814 S    
C132  N9    1.437533 S    
C140  C206  1.394289 A    
C66   C166  1.404185 A    
C17   H5    1.083644 S    
C52   H16   1.083595 S    
C380  N29   1.442068 S    
C18   H6    1.083713 S    
C206  H83   1.083596 S    
C92   C460  1.490045 S    
O19   Cu18  2.009116 S    
O68   C116  1.335675 S    
C127  C196  1.410250 A    
C471  H219  1.078815 S    
C251  C388  1.491320 S    
C381  N30   1.439979 S    
C288  C294  1.401211 A    
N8    O105  1.300844 A    
O21   Cu16  2.009119 S    
C376  N25   1.438931 S    
C141  C147  1.403698 A    
C438  H191  1.082369 S    
C319  C436  1.492146 S    
C242  N2    1.363616 A    
O81   Cu17  2.007045 S    
C95   C197  1.412177 A    
N15   O120  1.302449 A    
C475  C476  1.398403 A    
O9    C3    1.335871 S    
C454  C455  1.404672 A    
O2    C2    1.337497 S    
C303  H123  1.082901 S    
C323  N20   1.438698 S    
O93   Cu24  2.012253 S    
C392  C393  1.397753 A    
C10   C172  1.396098 A    
C107  C113  1.406145 A    
C316  C322  1.418037 A    
O7    C1    1.337817 S    
Cu10  Cu16  2.685902 S    
C410  C411  1.395022 A    
O3    Cu8   1.995299 S    
C390  C391  1.396712 A    
O38   Cu8   1.994038 S    
C341  C344  1.405910 A    
C133  C139  1.466310 S    
N10   O109  1.301006 A    
O86   Cu20  1.993428 S    
C264  C312  1.494290 S    
C262  C271  1.403005 A    
C65   C168  1.403584 A    
C226  H88   1.072263 S    
O50   C98   1.342459 S    
O12   Cu17  2.010402 S    
C465  H214  1.080983 S    
O27   Cu3   1.992920 S    
N6    O101  1.301094 A    
C127  N4    1.435439 S    
C437  H190  1.083213 S    
O48   C84   1.331111 S    
C125  C131  1.414828 A    
O15   C21   1.326700 S    
C460  C465  1.402830 A    
C221  C236  1.407796 A    
C304  C310  1.410691 A    
C383  C384  1.398391 A    
C360  C366  1.398742 A    
C286  C292  1.401069 A    
C76   H94   1.082855 S    
C462  H211  1.082317 S    
O47   C83   1.326503 S    
C149  C210  1.402351 A    
C197  C364  1.484790 S    
H62   C374  1.083419 S    
O63   Cu21  1.997972 S    
C391  C392  1.396196 A    
C173  H68   1.083649 S    
C238  C329  1.531433 S    
C15   C177  1.405580 A    
C142  C205  1.395625 A    
O88   Cu19  1.993385 S    
C228  H90   1.075789 S    
C469  H217  1.082372 S    
C15   H3    1.083786 S    
C71   H101  1.082742 S    
C81   C87   1.490236 S    
C245  C260  1.417366 A    
O22   Cu15  2.009579 S    
C295  C301  1.406194 A    
H31   C151  1.082657 S    
C6    C12   1.469719 S    
C11   C17   1.405654 A    
C283  H127  1.082728 S    
C434  C435  1.398538 A    
C11   C173  1.395786 A    
C32   C185  1.412100 A    
O75   C135  1.341202 S    
O59   Cu4   2.014586 S    
C418  C423  1.408573 A    
C77   H95   1.082175 S    
C227  C239  1.412562 A    
C29   C182  1.391943 A    
O15   Cu10  1.992044 S    
C276  H108  1.074441 S    
C217  C235  1.392963 A    
C245  N14   1.440353 S    
C154  C160  1.399072 A    
C408  H166  1.082371 S    
C181  H70   1.083382 S    
C488  H233  1.082317 S    
C210  C231  1.481451 S    
O52   Cu2   1.998974 S    
N22   O133  1.301068 A    
C60   C336  1.482416 S    
C435  H189  1.083092 S    
C406  C411  1.407767 A    
C59   C335  1.480144 S    
O70   C118  1.323994 S    
C69   C75   1.396046 A    
C8    C170  1.399914 A    
C248  C260  1.416731 A    
C412  C417  1.407741 A    
C427  H182  1.082373 S    
O62   Cu20  1.996452 S    
O59   C101  1.331028 S    
C317  C323  1.419348 A    
C308  H134  1.081733 S    
C269  C275  1.415709 A    
C201  H81   1.083411 S    
C247  C261  1.418643 A    
C486  C487  1.398219 A    
C147  H54   1.083547 S    
C78   H96   1.081773 S    
C371  C377  1.410340 A    
O32   Cu5   2.007505 S    
C215  C221  1.467239 S    
C228  C238  1.413794 A    
C457  H207  1.082306 S    
C216  C222  1.469090 S    
C188  H74   1.083650 S    
Cu19  Cu22  2.688713 S    
C287  C293  1.401314 A    
C77   C231  1.404967 A    
C194  C367  1.489948 S    
C459  H209  1.083254 S    
C94   C196  1.414767 A    
C214  C220  1.477581 S    
C429  H184  1.083168 S    
H28   C160  1.082989 S    
C321  C448  1.491866 S    
C424  C425  1.405263 A    
C368  C374  1.401026 A    
C62   C356  1.403533 A    
H29   C161  1.082987 S    
C338  C349  1.402287 A    
O10   Cu18  2.009584 S    
O18   Cu7   1.990205 S    
C397  C398  1.396076 A    
O36   C42   1.338143 S    
O63   C117  1.338564 S    
C221  C227  1.401628 A    
C27   C183  1.396180 A    
C397  H157  1.082053 S    
C70   C232  1.405797 A    
C249  C259  1.417040 A    
C420  C421  1.396842 A    
C298  H118  1.083023 S    
C161  C163  1.405286 A    
C27   C33   1.398411 A    
N28   O146  1.302240 A    
C28   C34   1.406502 A    
C386  H148  1.082468 S    
O87   Cu21  1.995242 S    
C40   C46   1.476518 S    
C466  C471  1.400839 A    
C270  C279  1.412339 A    
C432  H186  1.082224 S    
C302  H122  1.082895 S    
C86   C92   1.426561 A    
C64   C167  1.405140 A    
C427  C428  1.396923 A    
N23   O136  1.302240 A    
O75   Cu11  1.990517 S    
C62   C380  1.420635 A    
C263  C311  1.495528 S    
C71   C234  1.405388 A    
O41   C83   1.339063 S    
C199  H79   1.083351 S    
O17   Cu8   1.992316 S    
C145  C208  1.403327 A    
C428  C429  1.398403 A    
C19   C25   1.470841 S    
O67   Cu22  2.011020 S    
C20   C26   1.470377 S    
C244  N13   1.439499 S    
O78   Cu8   1.992355 S    
C396  C397  1.396866 A    
O4    C4    1.330232 S    
H48   C360  1.083208 S    
C129  N6    1.435443 S    
O36   Cu6   2.007186 S    
C414  C415  1.398104 A    
C281  C287  1.391984 A    
C373  C379  1.407710 A    
O89   C215  1.326988 S    
C479  H225  1.082546 S    
C31   H7    1.074555 S    
H58   C370  1.083443 S    
C342  C345  1.406540 A    
C348  H141  1.083605 S    
O24   Cu13  2.006783 S    
C387  H149  1.081790 S    
O17   C23   1.339242 S    
C407  C408  1.397904 A    
C44   C172  1.397049 A    
O19   C19   1.329366 S    
N25   O139  1.300988 A    
N16   O122  1.300649 A    
O69   C117  1.325770 S    
C486  H231  1.082468 S    
C86   C188  1.394667 A    
C298  C304  1.404867 A    
N14   O118  1.302327 A    
C67   C73   1.398196 A    
O25   C37   1.332760 S    
O8    Cu13  2.010956 S    
O44   C80   1.323414 S    
C464  H213  1.080955 S    
C200  H80   1.083335 S    
O45   C81   1.329371 S    
C68   C233  1.405462 A    
C123  C191  1.402326 A    
O27   C39   1.333874 S    
O73   Cu10  1.992627 S    
C126  C188  1.392393 A    
Cu8   Cu14  2.685907 S    
C324  C330  1.425023 A    
C262  C310  1.494857 S    
C12   C18   1.404001 A    
O74   C134  1.335424 S    
C104  C200  1.397487 A    
C275  H107  1.074958 S    
O68   Cu23  2.013256 S    
O76   C136  1.338632 S    
C470  C471  1.398463 A    
C433  C434  1.396847 A    
C85   C91   1.422128 A    
C446  H198  1.082245 S    
N6    O102  1.301102 A    
C487  H232  1.082392 S    
Cu3   Cu6   2.688712 S    
O81   C135  1.333345 S    
H33   C153  1.082845 S    
C265  C313  1.495692 S    
C485  C486  1.398110 A    
H34   C154  1.082970 S    
C422  H178  1.080689 S    
O51   C99   1.330208 S    
N29   O148  1.301655 A    
C139  C145  1.405057 A    
C396  H156  1.082427 S    
O37   Cu7   1.994932 S    
C42   C48   1.475504 S    
C242  C260  1.523421 S    
N27   O144  1.301686 A    
C334  C349  1.403424 A    
C405  H164  1.081715 S    
C72   C233  1.404909 A    
C488  C489  1.398580 A    
C209  C230  1.481572 S    
C481  C482  1.397874 A    
C29   C35   1.403967 A    
O7    Cu15  2.009843 S    
O18   C24   1.339237 S    
C17   C179  1.404857 A    
C454  C459  1.404727 A    
C205  H82   1.083505 S    
O34   C40   1.337483 S    
C25   C31   1.402732 A    
C61   C337  1.476880 S    
O86   C212  1.338506 S    
C284  C314  1.407948 A    
C413  H170  1.082983 S    
C289  H115  1.082314 S    
C55   C155  1.406232 A    
C443  H195  1.083180 S    
C32   H8    1.074758 S    
C63   C357  1.404635 A    
C299  C305  1.404767 A    
C415  C416  1.394762 A    
C140  C146  1.402948 A    
C359  C365  1.398588 A    
C375  C381  1.411473 A    
N17   O123  1.301392 A    
C191  H77   1.083215 S    
C265  C272  1.401485 A    
C16   H4    1.083683 S    
C249  N18   1.426394 S    
C169  H64   1.083188 S    
O80   C134  1.325818 S    
O28   Cu2   1.994214 S    
O9    Cu14  2.010076 S    
C128  C198  1.410294 A    
C458  C459  1.398722 A    
C290  C296  1.402436 A    
H51   C363  1.083147 S    
C444  H196  1.082370 S    
C104  C110  1.405914 A    
C300  C306  1.404616 A    
C141  C207  1.396578 A    
C341  C346  1.404118 A    
C262  C278  1.405361 A    
C282  C288  1.391303 A    
C47   C53   1.408616 A    
C317  C332  1.427388 A    
O23   Cu14  2.008857 S    
C223  H85   1.074912 S    
C403  H162  1.077707 S    
C120  C126  1.475020 S    
C87   C93   1.428353 A    
N10   O110  1.302369 A    
C266  C271  1.401081 A    
C309  H135  1.081708 S    
C316  C331  1.426102 A    
C139  C205  1.395607 A    
N16   O121  1.301036 A    
C415  H172  1.077221 S    
C285  H129  1.082635 S    
C424  C429  1.408322 A    
O43   C79   1.325623 S    
C121  C190  1.400234 A    
C47   C169  1.401718 A    
C431  C432  1.397900 A    
O39   Cu9   1.993770 S    
C244  C250  1.418802 A    
C254  C257  1.425641 A    
N24   O137  1.301107 A    
H21   C354  1.083550 S    
C438  C439  1.396328 A    
O30   C42   1.344254 S    
C79   C85   1.481048 S    
C378  N27   1.441301 S    
N4    O98   1.301049 A    
O50   Cu2   1.995279 S    
C18   C180  1.403874 A    
C180  C296  1.485898 S    
O92   C212  1.324839 S    
C186  C258  1.510171 S    
C43   C173  1.396602 A    
C144  C150  1.405429 A    
O16   C22   1.337719 S    
C382  C383  1.405917 A    
C392  H153  1.082514 S    
O91   C211  1.324779 S    
Cu20  Cu23  2.684210 S    
C284  C290  1.393866 A    
O33   Cu6   2.009387 S    
O5    C5    1.329159 S    
C410  H168  1.082337 S    
C25   C181  1.394311 A    
C390  H151  1.082442 S    
C239  C330  1.529998 S    
H50   C362  1.083131 S    
C287  H113  1.083294 S    
O74   Cu12  1.992567 S    
C483  H229  1.083124 S    
H59   C371  1.083290 S    
H46   C358  1.082925 S    
C237  N12   1.436003 S    
C353  C359  1.393456 A    
C49   C179  1.404515 A    
C78   C230  1.404841 A    
C352  C358  1.399523 A    
N21   O132  1.302046 A    
H61   C373  1.083461 S    
C358  C364  1.399717 A    
C222  C228  1.403335 A    
O93   C213  1.332036 S    
C320  C326  1.416833 A    
Cu7   Cu13  2.688544 S    
C56   C152  1.404643 A    
O56   Cu5   2.012922 S    
C90   C192  1.400429 A    
C395  H155  1.083377 S    
O71   Cu24  2.011336 S    
C241  N1    1.367680 A    
N17   O124  1.301327 A    
C426  C427  1.396974 A    
O83   C137  1.326523 S    
C321  C327  1.416340 A    
H26   C158  1.082772 S    
C45   C51   1.409865 A    
H22   C355  1.083559 S    
C391  H152  1.082234 S    
C252  C258  1.419552 A    
H35   C155  1.082702 S    
C80   C86   1.477586 S    
O83   Cu15  2.009378 S    
C318  C430  1.487795 S    
Cu2   Cu5   2.685975 S    
C449  C450  1.398006 A    
C122  C128  1.417231 A    
C306  C312  1.410539 A    
C402  C403  1.394631 A    
C10   C16   1.405137 A    
N18   O125  1.301349 A    
C473  C474  1.398078 A    
C117  C123  1.486751 S    
H32   C152  1.082909 S    
C434  H188  1.080980 S    
C389  H150  1.083393 S    
C379  N28   1.441910 S    
C64   H37   1.083442 S    
C174  H69   1.083550 S    
C246  C252  1.414856 A    
C439  C440  1.397264 A    
N12   O114  1.300619 A    
C68   H98   1.082943 S    
C89   C191  1.402724 A    
N7    O104  1.301277 A    
C442  C447  1.408669 A    
C23   C29   1.473651 S    
C441  H194  1.082670 S    
C112  H43   1.083358 S    
C131  N8    1.434693 S    
C67   C232  1.405143 A    
O72   Cu23  2.014781 S    
C273  H105  1.082937 S    
O66   Cu20  1.997202 S    
C1    C7    1.473077 S    
C44   C50   1.410143 A    
C263  C272  1.403396 A    
C148  C208  1.403270 A    
C2    C8    1.472638 S    
Cu11  Cu17  2.688542 S    
N5    O99   1.300569 A    
O69   Cu24  2.015060 S    
C305  H131  1.081728 S    
C412  C413  1.404539 A    
N26   O142  1.301587 A    
O72   C120  1.309965 S    
C14   H2    1.083850 S    
C317  C424  1.486822 S    
C123  C129  1.418843 A    
C109  C202  1.406517 A    
C477  H224  1.083024 S    
C90   C96   1.423051 A    
C414  H171  1.082425 S    
C184  C256  1.520852 S    
C148  H55   1.081887 S    
C336  C345  1.404848 A    
C217  C223  1.406907 A    
C52   C176  1.406415 A    
O52   C100  1.331301 S    
C270  C276  1.415322 A    
C185  C257  1.520784 S    
C41   C47   1.476503 S    
O24   C24   1.335089 S    
C484  C489  1.403619 A    
C65   C167  1.404300 A    
C265  C275  1.405821 A    
C63   C381  1.419993 A    
O13   C19   1.329208 S    
C46   C52   1.408922 A    
C316  C418  1.488137 S    
O87   C213  1.327021 S    
C388  C389  1.405864 A    
C28   C183  1.393263 A    
C480  C481  1.398243 A    
C242  N3    1.363087 A    
O62   C116  1.348412 S    
C36   C184  1.414403 A    
C58   C334  1.478852 S    
C75   H93   1.082994 S    
C102  C108  1.469405 S    
C96   C198  1.413450 A    
C251  C257  1.423055 A    
C452  H203  1.082245 S    
C451  C452  1.397094 A    
C59   C353  1.403635 A    
C5    C11   1.469163 S    
C426  H181  1.082225 S    
C43   C49   1.410152 A    
C344  H137  1.083724 S    
C468  H216  1.082277 S    
C13   C175  1.405128 A    
C219  C225  1.407937 A    
C301  C307  1.404767 A    
C220  C226  1.400538 A    
C364  C370  1.401144 A    
C113  C203  1.406926 A    
C386  C387  1.398110 A    
C300  H120  1.083015 S    
C66   C168  1.403532 A    
C372  C378  1.411624 A    
N15   O119  1.298989 A    
C277  H109  1.073020 S    
C349  H142  1.084059 S    
C485  H230  1.082066 S    
C93   C466  1.486092 S    
N11   O111  1.301008 A    
C318  C333  1.427274 A    
O8    C2    1.336962 S    
C268  C278  1.413388 A    
C395  C396  1.398661 A    
C249  C255  1.416768 A    
C472  C473  1.401403 A    
O13   Cu12  1.992728 S    
C192  H78   1.083202 S    
N30   O149  1.301448 A    
C182  H71   1.083383 S    
N19   O127  1.301252 A    
C227  H89   1.075983 S    
C291  H117  1.082452 S    
C474  C475  1.398205 A    
N4    O97   1.300510 A    
C153  C159  1.400789 A    
C428  H183  1.080618 S    
C320  C331  1.424055 A    
C150  H57   1.081654 S    
O11   C5    1.318712 S    
C4    C10   1.469340 S    
O30   Cu3   1.990535 S    
C131  C195  1.410914 A    
C455  H205  1.082561 S    
C108  C199  1.397674 A    
O95   Cu24  2.009092 S    
C172  H67   1.083613 S    
H36   C156  1.082766 S    
C444  C445  1.396622 A    
C136  C142  1.465571 S    
O1    Cu9   1.993930 S    
C479  C480  1.398556 A    
C96   C484  1.481098 S    
C385  H147  1.082242 S    
O90   C216  1.329283 S    
O44   Cu14  2.011999 S    
C170  H65   1.083206 S    
O51   Cu3   1.997121 S    
C407  H165  1.083043 S    
C110  H41   1.083245 S    
C308  C314  1.409603 A    
C116  C122  1.483746 S    
C87   C189  1.400481 A    
C433  H187  1.082366 S    
O82   C136  1.330869 S    
C489  H234  1.083023 S    
C244  C259  1.416353 A    
C245  C251  1.419090 A    
C417  H174  1.082372 S    
C279  H111  1.073596 S    
C218  C236  1.393611 A    
O65   C119  1.348607 S    
O33   C39   1.321758 S    
C59   C377  1.419752 A    
C445  C446  1.397034 A    
C3    C9    1.472579 S    
C253  C258  1.419820 A    
H19   C352  1.083247 S    
C111  H42   1.083402 S    
C439  H192  1.082401 S    
O25   Cu1   1.993440 S    
C319  C325  1.416738 A    
C193  C368  1.484171 S    
C323  C329  1.425497 A    
C160  C164  1.405943 A    
C338  C347  1.401907 A    
C106  C112  1.406753 A    
C367  C373  1.404413 A    
N13   O115  1.298618 A    
O46   C82   1.328867 S    
C478  C479  1.404890 A    
N26   O141  1.301102 A    
C54   C177  1.406543 A    
C285  C291  1.394685 A    
C487  C488  1.398439 A    
C264  C273  1.403290 A    
C448  C449  1.405911 A    
C461  C462  1.397928 A    
C462  C463  1.395977 A    
C464  C465  1.399908 A    
C401  H160  1.083333 S    
O39   C81   1.350928 S    
C422  C423  1.398425 A    
O37   C79   1.345111 S    
O91   Cu22  2.008568 S    
C394  C395  1.405412 A    
C473  H220  1.080765 S    
C67   H97   1.082888 S    
C322  C328  1.427244 A    
C165  C203  1.490446 S    
C458  H208  1.082048 S    
C419  C420  1.397852 A    
N9    O107  1.301041 A    
C303  C309  1.404643 A    
C7    C169  1.400083 A    
C357  C363  1.394388 A    
C443  C444  1.398076 A    
C93   C195  1.418166 A    
C224  H86   1.074956 S    
C398  C399  1.397852 A    
O61   C115  1.348360 S    
C115  C121  1.480402 S    
C73   C229  1.405890 A    
C404  C405  1.398701 A    
C130  C193  1.410283 A    
C455  C456  1.398168 A    
C254  C406  1.485075 S    
C281  H125  1.082225 S    
C267  C315  1.496024 S    
O85   C211  1.339166 S    
C252  C394  1.489436 S    
C324  N21   1.438140 S    
C207  H84   1.083518 S    
C37   C43   1.470476 S    
O84   Cu14  2.009378 S    
C346  H139  1.083883 S    
C30   C36   1.403175 A    
C24   C30   1.472628 S    
N28   O145  1.301539 A    
C322  N19   1.438084 S    
C198  C366  1.489640 S    
O79   Cu16  2.009116 S    
C337  C346  1.401899 A    
C57   C153  1.406741 A    
C447  H199  1.082724 S    
N21   O131  1.301204 A    
C121  C127  1.414466 A    
C421  H177  1.082354 S    
C282  H126  1.082279 S    
C55   C151  1.407339 A    
C296  C302  1.405617 A    
O95   C215  1.341951 S    
C223  C238  1.418951 A    
N25   O140  1.301456 A    
C178  C297  1.487160 S    
O16   Cu9   1.992258 S    
N8    O106  1.300515 A    
O79   C133  1.327899 S    
C431  H185  1.083166 S    
C51   C180  1.404646 A    
N20   O130  1.302037 A    
O78   C138  1.337494 S    
O58   C100  1.323732 S    
C236  N11   1.437200 S    
Cu12  Cu18  2.686464 S    
O40   Cu10  1.994861 S    
O22   C22   1.329053 S    
C108  C114  1.403199 A    
O64   C118  1.337193 S    
C463  C464  1.396898 A    
C61   C355  1.404390 A    
C280  C310  1.408192 A    
C450  H201  1.082388 S    
C419  H175  1.083180 S    
O65   Cu21  1.994837 S    
C190  H76   1.083206 S    
C222  C235  1.408525 A    
C472  C477  1.403710 A    
H20   C353  1.083609 S    
O49   C97   1.338733 S    
C146  H53   1.082560 S    
C280  H124  1.082255 S    
C374  C380  1.408432 A    
O21   C21   1.330240 S    
C175  C294  1.484019 S    
C189  H75   1.083183 S    
C307  H133  1.081850 S    
C36   H12   1.075044 S    
C403  C404  1.397633 A    
C420  H176  1.082228 S    
O46   Cu16  2.011165 S    
C171  H66   1.083205 S    
C305  C311  1.410584 A    
C282  C312  1.407999 A    
C54   H18   1.083607 S    
C401  C402  1.395261 A    
C69   H99   1.082903 S    
C34   H10   1.079182 S    
O77   C137  1.335579 S    
N14   O117  1.298763 A    
O5    Cu10  1.994457 S    
C266  C274  1.404648 A    
O53   C101  1.338990 S    
O55   C97   1.330791 S    
C225  H87   1.075674 S    
C31   C184  1.412477 A    
C95   C478  1.483897 S    
C409  H167  1.075952 S    
C142  C148  1.402996 A    
C72   C78   1.397857 A    
C452  C453  1.398380 A    
C394  C399  1.408391 A    
C103  C109  1.405924 A    
C456  H206  1.082389 S    
C468  C469  1.397339 A    
C241  N2    1.365316 A    
C382  C387  1.408739 A    
C73   H91   1.081570 S    
C297  C303  1.405865 A    
C421  C422  1.396776 A    
C413  C414  1.398757 A    
C388  C393  1.408564 A    
C168  C234  1.483627 S    
O80   Cu18  2.009841 S    
C247  C253  1.416349 A    
C335  C350  1.404323 A    
O34   Cu5   2.011226 S    
C82   C88   1.486939 S    
C423  H179  1.083035 S    
C51   H15   1.083457 S    
O6    C6    1.330210 S    
O96   C216  1.343178 S    
C250  C382  1.491175 S    
C48   C171  1.401053 A    
C326  C328  1.429346 A    
C301  H121  1.082887 S    
C134  C140  1.461682 S    
C336  C351  1.405890 A    
C225  C240  1.419098 A    
C240  C328  1.532707 S    
O14   Cu11  1.990007 S    
H30   C162  1.082771 S    
C418  C419  1.405395 A    
O10   C4    1.320201 S    
C281  C311  1.408394 A    
C354  C360  1.394963 A    
C416  H173  1.082313 S    
C33   C186  1.405863 A    
Cu1   Cu4   2.684210 S    
C363  C369  1.399210 A    
O54   C102  1.341292 S    
C451  H202  1.082359 S    
C35   H11   1.075613 S    
C58   C352  1.405709 A    
O89   Cu21  1.991554 S    
C159  C165  1.406995 A    
C46   C170  1.401612 A    
O96   Cu23  2.011493 S    
C75   C231  1.404045 A    
N22   O134  1.301888 A    
C463  H212  1.082396 S    
O70   Cu22  2.013223 S    
C268  C331  1.523253 S    
C467  H215  1.082870 S    
C50   C178  1.404582 A    
C440  C441  1.398576 A    
C105  C201  1.398483 A    
C340  C347  1.408165 A    
C56   C154  1.406265 A    
N30   O150  1.301119 A    
C119  C125  1.482461 S    
C339  C348  1.404384 A    
C370  C376  1.403492 A    
O57   Cu6   2.014813 S    
C449  H200  1.083193 S    
C107  C200  1.397161 A    
C293  C299  1.406277 A    
O48   Cu18  2.010940 S    
C57   C156  1.406402 A    
O84   C138  1.326458 S    
C243  N1    1.365914 A    
C285  C315  1.408336 A    
H25   C157  1.082941 S    
C400  C405  1.406877 A    
C384  H146  1.082386 S    
C151  C157  1.399925 A    
C195  C369  1.491916 S    
O26   C38   1.333602 S    
C112  C204  1.405688 A    
C211  C217  1.477897 S    
C158  C164  1.406303 A    
C110  C203  1.407533 A    
C70   C76   1.395746 A    
C290  H116  1.082664 S    
C377  N26   1.440709 S    
C71   C77   1.397118 A    
C124  C130  1.415621 A    
C389  C390  1.398622 A    
C224  C239  1.419149 A    
C12   C174  1.396991 A    
C385  C386  1.396224 A    
C122  C192  1.399825 A    
C326  N23   1.434955 S    
C218  C224  1.407303 A    
C425  H180  1.083160 S    
C62   C338  1.477832 S    
H27   C159  1.082972 S    
C384  C385  1.396635 A    
C9    C15   1.401401 A    
C76   C229  1.404313 A    
O35   Cu4   2.009418 S    
O1    C1    1.338032 S    
C97   C103  1.470610 S    
C167  C233  1.482615 S    
C453  H204  1.082694 S    
O3    C3    1.338262 S    
C72   H102  1.083120 S    
C430  C435  1.408428 A    
C152  C158  1.396876 A    
C436  C441  1.408447 A    
C162  C165  1.406014 A    
C409  C410  1.394783 A    
O28   C40   1.343808 S    
C248  N17   1.425698 S    
C270  C333  1.522759 S    
C101  C107  1.471096 S    
C196  C365  1.487480 S    
C111  C204  1.404745 A    
O11   Cu16  2.010890 S    
C13   H1    1.083809 S    
C124  C187  1.396410 A    
C64   C166  1.405280 A    
C84   C90   1.485623 S    
H47   C359  1.083259 S    
O56   C98   1.335287 S    
C55   C340  1.489171 S    
N23   O135  1.301097 A    
O61   Cu19  1.994293 S    
C411  H169  1.082289 S    
C109  H40   1.083231 S    
C126  C132  1.419623 A    
C440  H193  1.082242 S    
O14   C20   1.329558 S    
C325  N22   1.434814 S    
C183  H72   1.083404 S    
O29   Cu1   1.992688 S    
C460  C461  1.407172 A    
C248  C254  1.417480 A    
C88   C94   1.423846 A    
C220  C237  1.399812 A    
C356  C362  1.395686 A    
C272  H104  1.082951 S    
C114  C202  1.405191 A    
C430  C431  1.405382 A    
C362  C368  1.398842 A    
C130  N7    1.437967 S    
C33   H9    1.075800 S    
C125  C189  1.399755 A    
C38   C44   1.470861 S    
C467  C468  1.398047 A    
C88   C190  1.399682 A    
C291  C297  1.402418 A    
C69   C234  1.405720 A    
C235  N10   1.437396 S    
C402  H161  1.082309 S    
C8    C14   1.400537 A    
C26   C182  1.394757 A    
C50   H14   1.083444 S    
C283  C313  1.408206 A    
H63   C375  1.083336 S    
C268  C274  1.414281 A    
C138  C144  1.465351 S    
C351  H144  1.083858 S    
C26   C32   1.402783 A    
C243  C261  1.519741 S    
C98   C104  1.472308 S    
C187  H73   1.083445 S    
C400  C401  1.405691 A    
C7    C13   1.400541 A    
C302  C308  1.404142 A    
C393  H154  1.080552 S    
O42   Cu12  1.993505 S    
O71   C119  1.338139 S    
C474  H221  1.082238 S    
C57   C342  1.490548 S    
C327  N24   1.435497 S    
O66   C120  1.334927 S    
C325  C329  1.429221 A    
C106  C201  1.398645 A    
N29   O147  1.300471 A    
C408  C409  1.397306 A    
C105  C111  1.404110 A    
O4    Cu12  1.994206 S    
C425  C426  1.397921 A    
N5    O100  1.299702 A    
C143  C149  1.404483 A    
C263  C277  1.405600 A    
C318  C324  1.418837 A    
C14   C176  1.404920 A    
C177  C293  1.484967 S    
C208  C229  1.483801 S    
C278  H110  1.072957 S    
O94   Cu22  2.010976 S    
C476  C477  1.398605 A    
C16   C178  1.404414 A    
C113  H44   1.083242 S    
