data_mof_unit_7901.cif
_audit_creation_date              2013-03-05T15:45:40-0500
_audit_creation_method            fapswitch 2.2
_symmetry_space_group_name_H-M    P1
_symmetry_Int_Tables_number       1
_space_group_crystal_system       triclinic
_cell_length_a                    25.743914
_cell_length_b                    25.85288
_cell_length_c                    18.246306
_cell_angle_alpha                 89.958777
_cell_angle_beta                  134.623333
_cell_angle_gamma                 90.030943
_cell_volume                      8643.30320117

loop_
_atom_site_label
_atom_site_type_symbol
_atom_site_description
_atom_site_fract_x
_atom_site_fract_y
_atom_site_fract_z
_atom_type_partial_charge
Zn1   Zn    Zn3+2 0.663270 0.706640 0.413250 1.081998
Zn2   Zn    Zn3+2 0.663270 0.293360 0.413250 1.079681
Zn3   Zn    Zn3+2 0.163270 0.206640 0.413250 1.074606
Zn4   Zn    Zn3+2 0.163270 0.793360 0.413250 1.075673
Zn5   Zn    Zn3+2 0.836780 0.706640 0.586750 1.098551
Zn6   Zn    Zn3+2 0.836780 0.293360 0.586750 1.099724
Zn7   Zn    Zn3+2 0.336780 0.206640 0.586750 1.112864
Zn8   Zn    Zn3+2 0.336780 0.793360 0.586750 1.117278
Zn9   Zn    Zn3+2 0.750020 0.793390 0.413240 1.090825
Zn10  Zn    Zn3+2 0.750020 0.206610 0.413240 1.090656
Zn11  Zn    Zn3+2 0.250020 0.293390 0.413240 1.090719
Zn12  Zn    Zn3+2 0.250020 0.706610 0.413240 1.089265
Zn13  Zn    Zn3+2 0.750010 0.793400 0.586760 1.100121
Zn14  Zn    Zn3+2 0.750010 0.206600 0.586760 1.098636
Zn15  Zn    Zn3+2 0.250010 0.293400 0.586760 1.091913
Zn16  Zn    Zn3+2 0.250010 0.706600 0.586760 1.088743
O1    O     O_3   0.750020 0.750020 0.500000 -0.526291
O2    O     O_3   0.750020 0.249980 0.500000 -0.525851
O3    O     O_3   0.250020 0.250020 0.500000 -0.528809
O4    O     O_3   0.250020 0.749980 0.500000 -0.527979
O5    O     O_R   0.835450 0.780390 0.731600 -0.631157
O6    O     O_R   0.835450 0.219610 0.731600 -0.634691
O7    O     O_R   0.335450 0.280390 0.731600 -0.630191
O8    O     O_R   0.335450 0.719610 0.731600 -0.634570
O9    O     O_R   0.603870 0.719650 0.268400 -0.604390
O10   O     O_R   0.603870 0.280350 0.268400 -0.607246
O11   O     O_R   0.103870 0.219650 0.268400 -0.602639
O12   O     O_R   0.103870 0.780350 0.268400 -0.602811
O13   O     O_R   0.810750 0.634210 0.560720 -0.627882
O14   O     O_R   0.810750 0.365790 0.560720 -0.627741
O15   O     O_R   0.310750 0.134210 0.560720 -0.597261
O16   O     O_R   0.310750 0.865790 0.560720 -0.599263
O17   O     O_R   0.750010 0.865820 0.439280 -0.632178
O18   O     O_R   0.750010 0.134180 0.439280 -0.632310
O19   O     O_R   0.250010 0.365820 0.439280 -0.628542
O20   O     O_R   0.250010 0.634180 0.439280 -0.629846
O21   O     O_R   0.896180 0.719650 0.560720 -0.609917
O22   O     O_R   0.896180 0.280350 0.560720 -0.609753
O23   O     O_R   0.396180 0.219650 0.560720 -0.587720
O24   O     O_R   0.396180 0.780350 0.560720 -0.583146
O25   O     O_R   0.664570 0.780390 0.560720 -0.569153
O26   O     O_R   0.664570 0.219610 0.560720 -0.566664
O27   O     O_R   0.164570 0.280390 0.560720 -0.568486
O28   O     O_R   0.164570 0.719610 0.560720 -0.568424
O29   O     O_R   0.835460 0.780370 0.439280 -0.608224
O30   O     O_R   0.835460 0.219630 0.439280 -0.607948
O31   O     O_R   0.335460 0.280370 0.439280 -0.618349
O32   O     O_R   0.335460 0.719630 0.439280 -0.620853
O33   O     O_R   0.603860 0.719660 0.439280 -0.630190
O34   O     O_R   0.603860 0.280340 0.439280 -0.634648
O35   O     O_R   0.103860 0.219660 0.439280 -0.632847
O36   O     O_R   0.103860 0.780340 0.439280 -0.632912
O37   O     O_R   0.689310 0.634210 0.439280 -0.613404
O38   O     O_R   0.689310 0.365790 0.439280 -0.613167
O39   O     O_R   0.189310 0.134210 0.439280 -0.617689
O40   O     O_R   0.189310 0.865790 0.439280 -0.617344
O41   O     O_R   0.750010 0.865830 0.560720 -0.614924
O42   O     O_R   0.750010 0.134170 0.560720 -0.615956
O43   O     O_R   0.250010 0.365830 0.560720 -0.615149
O44   O     O_R   0.250010 0.634170 0.560720 -0.618891
O45   O     O_R   0.896180 0.719660 0.731600 -0.592583
O46   O     O_R   0.896180 0.280340 0.731600 -0.591703
O47   O     O_R   0.396180 0.219660 0.731600 -0.597647
O48   O     O_R   0.396180 0.780340 0.731600 -0.594666
O49   O     O_R   0.664580 0.780370 0.268400 -0.627526
O50   O     O_R   0.664580 0.219630 0.268400 -0.627594
O51   O     O_R   0.164580 0.280370 0.268400 -0.634167
O52   O     O_R   0.164580 0.719630 0.268400 -0.632144
C1    C     C_R   0.887128 0.747549 0.780564 0.885450
C2    C     C_R   0.887092 0.252503 0.780550 0.883662
C3    C     C_R   0.387297 0.247539 0.780623 0.873627
C4    C     C_R   0.387278 0.752490 0.780613 0.873807
C5    C     C_R   0.612218 0.747774 0.219709 0.943144
C6    C     C_R   0.612219 0.252217 0.219735 0.938839
C7    C     C_R   0.111972 0.248049 0.219613 0.932995
C8    C     C_R   0.111969 0.751932 0.219643 0.937156
C9    C     C_R   0.750137 0.610017 0.497866 0.836863
C10   C     C_R   0.750139 0.389985 0.497873 0.837429
C11   C     C_R   0.249997 0.110014 0.500264 0.836491
C12   C     C_R   0.250001 0.889985 0.500255 0.834177
C13   C     C_R   0.750971 0.890074 0.500916 0.831355
C14   C     C_R   0.751530 0.109913 0.501617 0.836993
C15   C     C_R   0.251122 0.390075 0.501072 0.838669
C16   C     C_R   0.251626 0.609914 0.501713 0.838652
C17   C     C_R   0.889505 0.749685 0.498981 0.962697
C18   C     C_R   0.889512 0.250327 0.499004 0.962512
C19   C     C_R   0.389197 0.249290 0.498380 0.965313
C20   C     C_R   0.389370 0.750592 0.498721 0.964167
C21   C     C_R   0.609571 0.750480 0.499081 0.903181
C22   C     C_R   0.609509 0.249454 0.498972 0.904174
C23   C     C_R   0.109462 0.250669 0.498850 0.899545
C24   C     C_R   0.109467 0.749320 0.498874 0.900649
H1    H     H_    0.591029 0.685789 0.584912 0.185425
H2    H     H_    0.581276 0.319798 0.565304 0.184258
H3    H     H_    0.091741 0.186092 0.585705 0.182390
H4    H     H_    0.091859 0.813834 0.585796 0.182804
C25   C     C_R   0.492475 0.832033 0.375286 0.270627
C26   C     C_R   0.502355 0.161317 0.395302 0.279507
C27   C     C_R   0.993956 0.333954 0.379766 0.279929
C28   C     C_R   0.993887 0.666072 0.379838 0.279955
C29   C     C_R   0.439997 0.871664 0.326332 0.244753
C30   C     C_R   0.456598 0.118179 0.359574 0.244659
C31   C     C_R   0.940540 0.373022 0.330344 0.241693
C32   C     C_R   0.940388 0.627053 0.330353 0.241703
C33   C     C_R   0.386961 0.870822 0.327974 -0.236654
C34   C     C_R   0.402576 0.119443 0.359322 -0.244050
C35   C     C_R   0.883922 0.368860 0.324413 -0.282176
C36   C     C_R   0.883734 0.631261 0.324329 -0.282329
H5    H     H_    0.840791 0.397550 0.281338 0.244072
H6    H     H_    0.840548 0.602611 0.281211 0.243799
H7    H     H_    0.345671 0.900848 0.287616 0.243292
H8    H     H_    0.365240 0.087091 0.327055 0.238666
C37   C     C_R   0.384869 0.832232 0.378861 0.331261
C38   C     C_R   0.393792 0.161790 0.396632 0.337602
C39   C     C_R   0.880486 0.328339 0.370852 0.309306
C40   C     C_R   0.880343 0.671770 0.370751 0.309405
C41   C     C_R   0.440291 0.793090 0.436059 -0.070166
C42   C     C_R   0.444832 0.203799 0.445184 -0.070054
C43   C     C_R   0.938784 0.291613 0.433394 -0.063823
C44   C     C_R   0.938712 0.708442 0.433349 -0.063701
C45   C     C_R   0.495178 0.793210 0.434438 -0.058825
C46   C     C_R   0.500027 0.203459 0.444275 -0.059604
C47   C     C_R   0.995335 0.293471 0.435291 -0.060573
C48   C     C_R   0.995298 0.706547 0.435324 -0.060805
C49   C     C_R   0.549710 0.753858 0.491004 -0.054315
C50   C     C_R   0.549450 0.246017 0.490505 -0.054004
C51   C     C_R   0.049938 0.254107 0.491494 -0.054358
C52   C     C_R   0.049969 0.745867 0.491573 -0.054821
C53   C     C_R   0.548865 0.715284 0.543138 -0.220958
C54   C     C_R   0.543048 0.287845 0.531438 -0.224106
C55   C     C_R   0.049320 0.215402 0.543729 -0.221264
C56   C     C_R   0.049391 0.784556 0.543795 -0.220645
C57   C     C_R   0.496683 0.714612 0.545913 0.284420
C58   C     C_R   0.490891 0.288584 0.534261 0.288399
C59   C     C_R   0.997369 0.214630 0.546998 0.285193
C60   C     C_R   0.997406 0.785356 0.546995 0.285723
C61   C     C_R   0.442751 0.753387 0.493369 -0.157179
C62   C     C_R   0.442312 0.246622 0.492493 -0.158581
C63   C     C_R   0.942458 0.252696 0.492789 -0.157470
C64   C     C_R   0.942425 0.747337 0.492729 -0.157499
H9    H     H_    0.593287 0.818928 0.097455 0.206731
H10   H     H_    0.592758 0.180761 0.097636 0.207086
H11   H     H_    0.088637 0.321835 0.097593 0.207588
H12   H     H_    0.087767 0.677717 0.097812 0.207531
C65   C     C_R   0.515085 0.655366 0.089701 0.459275
C66   C     C_R   0.516028 0.344946 0.089594 0.461080
C67   C     C_R   0.018435 0.154840 0.089682 0.456021
C68   C     C_R   0.019841 0.845571 0.089563 0.457368
C69   C     C_R   0.454419 0.623779 0.041004 -0.161900
C70   C     C_R   0.455732 0.377019 0.040484 -0.172449
C71   C     C_R   0.959251 0.121662 0.041091 -0.156792
C72   C     C_R   0.961226 0.879415 0.040418 -0.167770
H13   H     H_    0.461042 0.585520 0.070825 0.207277
H14   H     H_    0.462783 0.415466 0.069894 0.200691
H15   H     H_    0.967595 0.083142 0.071147 0.205837
H16   H     H_    0.970200 0.918156 0.069960 0.198906
C73   C     C_R   0.384793 0.641891 0.955899 -0.265620
C74   C     C_R   0.385906 0.359122 0.955530 -0.250771
C75   C     C_R   0.888863 0.138491 0.955839 -0.263479
C76   C     C_R   0.890570 0.862936 0.955332 -0.248222
H17   H     H_    0.338105 0.618819 0.925556 0.210787
H18   H     H_    0.339454 0.382556 0.924995 0.208056
H19   H     H_    0.843224 0.114083 0.925576 0.211332
H20   H     H_    0.845302 0.887854 0.924815 0.208468
C77   C     C_R   0.375416 0.689483 0.910830 0.359114
C78   C     C_R   0.376038 0.311304 0.910786 0.364613
C79   C     C_R   0.877378 0.186569 0.910670 0.354532
C80   C     C_R   0.878356 0.814571 0.910604 0.360287
C81   C     C_R   0.438355 0.717572 0.950098 -0.075475
C82   C     C_R   0.438685 0.282774 0.950107 -0.067764
C83   C     C_R   0.939038 0.216525 0.949873 -0.075061
C84   C     C_R   0.939560 0.783988 0.949880 -0.066796
C85   C     C_R   0.505456 0.705730 0.050623 -0.037615
C86   C     C_R   0.505871 0.294462 0.050636 -0.034207
C87   C     C_R   0.006584 0.205515 0.050433 -0.034337
C88   C     C_R   0.007218 0.794758 0.050458 -0.030411
C89   C     C_R   0.558772 0.745228 0.106993 -0.103015
C90   C     C_R   0.558811 0.254751 0.107044 -0.105000
C91   C     C_R   0.058135 0.246052 0.106784 -0.106547
C92   C     C_R   0.058183 0.753912 0.106851 -0.109072
C93   C     C_R   0.553231 0.788140 0.055128 -0.217666
C94   C     C_R   0.552956 0.211701 0.055249 -0.220352
C95   C     C_R   0.050243 0.290111 0.055013 -0.217132
C96   C     C_R   0.049782 0.709655 0.055154 -0.217234
C97   C     C_R   0.495275 0.793147 0.949106 0.308556
C98   C     C_R   0.495010 0.206759 0.949223 0.305713
C99   C     C_R   0.991921 0.294937 0.948851 0.306675
C100  C     C_R   0.991475 0.704928 0.948976 0.305275
C101  C     C_R   0.438320 0.756177 0.894034 -0.135752
C102  C     C_R   0.438336 0.243938 0.894081 -0.136690
C103  C     C_R   0.937336 0.256281 0.893808 -0.136025
C104  C     C_R   0.937366 0.743897 0.893860 -0.137220
H21   H     H_    0.660809 0.953117 0.342153 0.182862
H22   H     H_    0.661293 0.047317 0.342636 0.182066
H23   H     H_    0.162515 0.453119 0.341916 0.185294
H24   H     H_    0.162969 0.547283 0.342367 0.185391
C105  C     C_R   0.870049 0.945644 0.690757 -0.257835
C106  C     C_R   0.868355 0.053344 0.693424 -0.266450
C107  C     C_R   0.368888 0.445680 0.691955 -0.254494
C108  C     C_R   0.367175 0.553369 0.694379 -0.265572
H25   H     H_    0.873891 0.904014 0.690518 0.192361
H26   H     H_    0.869604 0.095094 0.696468 0.194025
H27   H     H_    0.372917 0.404062 0.691948 0.193480
H28   H     H_    0.368573 0.595113 0.697410 0.195308
C109  C     C_R   0.926569 0.971894 0.782748 0.256955
C110  C     C_R   0.924397 0.026405 0.784987 0.260873
C111  C     C_R   0.424530 0.471941 0.784419 0.256728
C112  C     C_R   0.422317 0.526448 0.786423 0.260203
C113  C     C_R   0.811876 0.027088 0.600108 0.046080
C114  C     C_R   0.812068 0.972465 0.599375 0.044420
C115  C     C_R   0.311399 0.527104 0.600702 0.046709
C116  C     C_R   0.311601 0.472478 0.600032 0.044392
C117  C     C_R   0.755893 0.946085 0.505699 -0.043171
C118  C     C_R   0.756084 0.053853 0.506445 -0.040985
C119  C     C_R   0.256171 0.446086 0.505989 -0.044611
C120  C     C_R   0.256331 0.553856 0.506677 -0.044886
C121  C     C_R   0.703206 0.973376 0.414043 -0.127219
C122  C     C_R   0.703458 0.026834 0.414362 -0.121408
C123  C     C_R   0.204319 0.473373 0.414057 -0.124406
C124  C     C_R   0.204553 0.526821 0.414355 -0.124450
H29   H     H_    0.666267 0.546892 0.491372 0.171926
H30   H     H_    0.666271 0.453027 0.491381 0.172061
H31   H     H_    0.202673 0.047216 0.349142 0.222979
H32   H     H_    0.202648 0.952892 0.349124 0.221985
C125  C     C_R   0.841178 0.553902 0.481371 -0.103543
C126  C     C_R   0.841171 0.446211 0.481363 -0.103117
C127  C     C_R   0.299151 0.053945 0.678717 -0.111642
C128  C     C_R   0.299232 0.945916 0.678764 -0.111591
H33   H     H_    0.841800 0.595464 0.478077 0.188169
H34   H     H_    0.841788 0.404654 0.478062 0.188236
H35   H     H_    0.298254 0.095726 0.680706 0.154369
H36   H     H_    0.298416 0.904129 0.680809 0.154453
C129  C     C_R   0.885142 0.526930 0.475790 -0.097062
C130  C     C_R   0.885137 0.473233 0.475782 -0.096716
C131  C     C_R   0.323195 0.026819 0.764078 -0.060989
C132  C     C_R   0.323242 0.972980 0.764106 -0.060582
H37   H     H_    0.918814 0.547811 0.470394 0.159554
H38   H     H_    0.918801 0.452392 0.470373 0.159622
H39   H     H_    0.341200 0.047665 0.830074 0.186145
H40   H     H_    0.341289 0.952084 0.830126 0.187059
C133  C     C_R   0.796739 0.472631 0.488578 0.099135
C134  C     C_R   0.796740 0.527430 0.488577 0.099196
C135  C     C_R   0.275565 0.972572 0.592022 0.070896
C136  C     C_R   0.275541 0.027356 0.592010 0.070224
C137  C     C_R   0.750382 0.553967 0.492263 -0.055075
C138  C     C_R   0.750386 0.446041 0.492271 -0.055531
C139  C     C_R   0.249845 0.053955 0.503913 -0.079575
C140  C     C_R   0.249857 0.946040 0.503915 -0.079311
C141  C     C_R   0.702546 0.526681 0.490166 -0.153616
C142  C     C_R   0.702548 0.473278 0.490172 -0.154077
C143  C     C_R   0.222749 0.026807 0.416815 -0.136126
C144  C     C_R   0.222742 0.973251 0.416809 -0.138395
N1    N     N_R   0.303508 0.712013 0.837363 0.231982
O53   O     O_R   0.295422 0.762024 0.831132 -0.385299
O54   O     O_R   0.245775 0.682790 0.783919 -0.353046
N2    N     N_R   0.303935 0.289069 0.837623 0.229805
O55   O     O_R   0.246458 0.318555 0.784116 -0.352248
O56   O     O_R   0.295429 0.239104 0.831662 -0.387196
N3    N     N_R   0.804559 0.207608 0.837574 0.233041
O57   O     O_R   0.794398 0.257355 0.831719 -0.366045
O58   O     O_R   0.748079 0.177106 0.783878 -0.348502
N4    N     N_R   0.805277 0.793978 0.837972 0.231050
O59   O     O_R   0.749181 0.824841 0.784221 -0.346881
O60   O     O_R   0.794523 0.744336 0.832538 -0.366791
N5    N     N_R   0.492422 0.838278 0.900448 0.232907
O61   O     O_R   0.434088 0.866943 0.842131 -0.392741
O62   O     O_R   0.551757 0.855880 0.928994 -0.324723
N6    N     N_R   0.491854 0.161503 0.900625 0.232694
O63   O     O_R   0.433259 0.133104 0.842136 -0.394077
O64   O     O_R   0.551093 0.143546 0.929350 -0.326301
N7    N     N_R   0.985884 0.341378 0.899944 0.231116
O65   O     O_R   0.924519 0.366717 0.837506 -0.339808
O66   O     O_R   0.044162 0.362998 0.930775 -0.331987
N8    N     N_R   0.984926 0.658312 0.900111 0.231241
O67   O     O_R   0.923194 0.633422 0.837332 -0.340794
O68   O     O_R   0.042986 0.636139 0.931211 -0.331924
N9    N     N_R   0.987677 0.942816 0.870869 0.247675
O69   O     O_R   0.978884 0.895119 0.883220 -0.384144
O70   O     O_R   0.053738 0.960467 0.928529 -0.241464
N10   N     N_R   0.977179 0.054812 0.879638 0.242362
O71   O     O_R   0.993115 0.102391 0.878389 -0.345076
O72   O     O_R   0.001712 0.035986 0.965352 -0.325655
N11   N     N_R   0.484857 0.442863 0.873452 0.248070
O73   O     O_R   0.475442 0.395215 0.885135 -0.385262
O74   O     O_R   0.551114 0.460509 0.933194 -0.236337
N12   N     N_R   0.474084 0.554875 0.881276 0.242876
O75   O     O_R   0.490818 0.602318 0.880828 -0.343727
O76   O     O_R   0.496619 0.536292 0.965925 -0.318537
Cl1   Cl    Cl    0.546382 0.830393 0.347851 -0.578029
Cl2   Cl    Cl    0.552112 0.163061 0.361123 -0.575890
Cl3   Cl    Cl    0.051435 0.335629 0.358425 -0.571953
Cl4   Cl    Cl    0.051459 0.664336 0.358665 -0.571433
N13   N     N_R   0.438502 0.912658 0.271505 0.263703
O77   O     O_R   0.498326 0.936657 0.312835 -0.265466
O78   O     O_R   0.376381 0.930752 0.186710 -0.285018
N14   N     N_R   0.462547 0.073266 0.319284 0.259336
O79   O     O_R   0.526380 0.054603 0.365838 -0.284491
O80   O     O_R   0.404570 0.046801 0.244730 -0.284972
N15   N     N_R   0.941559 0.416546 0.282112 0.258148
O81   O     O_R   0.002349 0.440842 0.329111 -0.274139
O82   O     O_R   0.880622 0.436632 0.198603 -0.275824
N16   N     N_R   0.941368 0.583532 0.282167 0.258070
O83   O     O_R   0.880412 0.563497 0.198630 -0.276052
O84   O     O_R   0.002122 0.559176 0.329244 -0.273941
Cl5   Cl    Cl    0.308157 0.836951 0.361345 -0.577785
Cl6   Cl    Cl    0.313689 0.158504 0.371200 -0.579391
Cl7   Cl    Cl    0.797153 0.325579 0.337058 -0.604326
Cl8   Cl    Cl    0.796980 0.674589 0.336868 -0.605735
N17   N     N_R   0.499712 0.674244 0.603462 0.210450
O85   O     O_R   0.489808 0.684737 0.662688 -0.372787
O86   O     O_R   0.521680 0.628109 0.607154 -0.326337
N18   N     N_R   0.488929 0.332087 0.581734 0.213169
O87   O     O_R   0.480978 0.325118 0.644059 -0.381287
O88   O     O_R   0.504672 0.378207 0.573449 -0.331255
N19   N     N_R   0.001256 0.174663 0.605938 0.209777
O89   O     O_R   0.990595 0.185421 0.664215 -0.375665
O90   O     O_R   0.024586 0.128726 0.611696 -0.332362
N20   N     N_R   0.001329 0.825307 0.605914 0.209685
O91   O     O_R   0.990591 0.814545 0.664123 -0.378646
O92   O     O_R   0.024763 0.871227 0.611721 -0.332324
Cl9   Cl    Cl    0.601780 0.626336 0.185431 -0.479731
Cl10  Cl    Cl    0.603041 0.373489 0.185578 -0.486813
Cl11  Cl    Cl    0.106375 0.127742 0.185700 -0.518775
Cl12  Cl    Cl    0.108193 0.871943 0.186051 -0.525551

loop_
_geom_bond_atom_site_label_1
_geom_bond_atom_site_label_2
_geom_bond_distance
_ccdc_geom_bond_type
C27   C31   1.407982 A    
H12   C96   1.083728 S    
C57   C61   1.407761 A    
Zn5   O21   1.922678 S    
C106  C110  1.403877 A    
C65   Cl9   1.765941 S    
O23   C19   1.274736 A    
C60   C64   1.407433 A    
C21   C49   1.444046 S    
C59   C63   1.407436 A    
C23   C51   1.444052 S    
O42   C14   1.272028 A    
N7    O65   1.301668 A    
C24   C52   1.443995 S    
C28   C32   1.407995 A    
O46   C2    1.289511 A    
N8    O67   1.301670 A    
C106  C113  1.412978 A    
C129  H37   1.082534 S    
Zn4   O12   1.938968 S    
C66   C70   1.395071 A    
C105  C109  1.401604 A    
O34   C22   1.273320 A    
C72   H16   1.082896 S    
N12   O76   1.301286 A    
Zn3   O3    1.945347 S    
C71   H15   1.082841 S    
C7    C91   1.467436 S    
Zn16  O28   1.925954 S    
Zn5   O13   1.932299 S    
O28   C24   1.275415 A    
N17   O86   1.301568 A    
C108  C112  1.403623 A    
Zn4   O40   1.932344 S    
C54   C58   1.379537 A    
C79   N3    1.440985 S    
O11   C7    1.278568 A    
C77   C81   1.426398 A    
C134  C137  1.418860 A    
C79   C83   1.426703 A    
C125  C134  1.415902 A    
C26   C30   1.406085 A    
C28   C48   1.439130 A    
C98   C102  1.415152 A    
C31   N15   1.439525 S    
O16   C12   1.276847 A    
C6    C90   1.466552 S    
Zn16  O4    1.939537 S    
Zn12  O4    1.940561 S    
C22   C50   1.444514 S    
Zn13  O5    1.941262 S    
Zn2   O10   1.938968 S    
C90   C94   1.398503 A    
C53   C57   1.379512 A    
C59   N19   1.442753 S    
N14   O79   1.301544 A    
Zn6   O14   1.932338 S    
O47   C3    1.288545 A    
Zn7   O3    1.945574 S    
C82   C86   1.410877 A    
C93   C97   1.389280 A    
N3    O58   1.301694 A    
N4    O60   1.301851 A    
C43   C47   1.432530 A    
C136  C139  1.413998 A    
O24   C20   1.274681 A    
Zn11  O19   1.932242 S    
C125  C129  1.393013 A    
C28   Cl4   1.775523 S    
C29   N13   1.438716 S    
C36   C40   1.388214 A    
Zn10  O2    1.940561 S    
C66   C86   1.420178 A    
C75   C79   1.402914 A    
H9    C93   1.083761 S    
C76   C80   1.403180 A    
C3    C102  1.482984 S    
Zn9   O49   1.941555 S    
C111  N11   1.439153 S    
Zn4   O4    1.945424 S    
C132  H40   1.082525 S    
C135  C140  1.413991 A    
C109  N9    1.439171 S    
Zn7   O23   1.922678 S    
C31   C35   1.387825 A    
Zn8   O24   1.923086 S    
C42   C62   1.433594 A    
C80   N4    1.440961 S    
C140  C144  1.395890 A    
C71   C75   1.390115 A    
O25   C21   1.276900 A    
C81   C101  1.428195 A    
C69   H13   1.082835 S    
H23   C123  1.084087 S    
C97   N5    1.435965 S    
C84   C104  1.429205 A    
H21   C121  1.084083 S    
Zn12  O52   1.941307 S    
C141  C142  1.380632 A    
C68   C88   1.419705 A    
O22   C18   1.276541 A    
C33   C37   1.388968 A    
C130  H38   1.082543 S    
N1    O53   1.301846 A    
Zn13  O41   1.931535 S    
O50   C6    1.278223 A    
N18   O87   1.301663 A    
C133  C134  1.416720 A    
C42   C46   1.432682 A    
Zn1   O37   1.932383 S    
N20   O92   1.301580 A    
Zn2   O34   1.922974 S    
C112  N12   1.439433 S    
C13   C117  1.450831 S    
C60   N20   1.442788 S    
N2    O56   1.301852 A    
C106  H26   1.080129 S    
Zn6   O22   1.923086 S    
C44   C64   1.431837 A    
C129  C130  1.388222 A    
C25   Cl1   1.776070 S    
C108  H28   1.079941 S    
C115  C120  1.419103 A    
N9    O69   1.301354 A    
C51   C55   1.389193 A    
Zn10  O50   1.941307 S    
N16   O84   1.301311 A    
C108  C115  1.413159 A    
C110  N10   1.439534 S    
N10   O71   1.301680 A    
C118  C122  1.396114 A    
C73   C77   1.402979 A    
C127  C136  1.412483 A    
C30   N14   1.439344 S    
C121  C122  1.382063 A    
C126  H34   1.076853 S    
H3    C55   1.085532 S    
C40   C44   1.431839 A    
O5    C1    1.272499 A    
O26   C22   1.276801 A    
C11   C139  1.450894 S    
C67   C71   1.394696 A    
C45   C49   1.426727 A    
N13   O77   1.301372 A    
C49   C53   1.388368 A    
C47   C51   1.427647 A    
C116  C119  1.416649 A    
C56   C60   1.380081 A    
C12   C140  1.450877 S    
C113  C114  1.412279 A    
Zn5   O45   1.939013 S    
N5    O62   1.301337 A    
C17   C64   1.446093 S    
Zn7   O47   1.939013 S    
C18   C63   1.446213 S    
Zn8   O48   1.938640 S    
C37   C41   1.434228 A    
H30   C142  1.084054 S    
C78   C82   1.426433 A    
C39   C43   1.431814 A    
O51   C7    1.277089 A    
C19   C62   1.446542 S    
O8    C4    1.275195 A    
C98   N6    1.435959 S    
C26   C46   1.437271 A    
C137  C141  1.395910 A    
C39   Cl7   1.768929 S    
C120  C124  1.396099 A    
C97   C101  1.415309 A    
N4    O59   1.301685 A    
C139  C143  1.395867 A    
O52   C8    1.276971 A    
C114  C117  1.416331 A    
Zn1   O1    1.945347 S    
C126  C130  1.393000 A    
Zn13  O1    1.940854 S    
C100  C104  1.413752 A    
Zn14  O6    1.941509 S    
Zn3   O11   1.938595 S    
Zn15  O27   1.925658 S    
C89   C93   1.398437 A    
C10   C138  1.453067 S    
C36   H6    1.083867 S    
O9    C5    1.277212 A    
O41   C13   1.273230 A    
H32   C144  1.083042 S    
C92   C96   1.400141 A    
C88   C92   1.413697 A    
O13   C9    1.275611 A    
O7    C3    1.275059 A    
N11   O73   1.301340 A    
C81   C85   1.410845 A    
O18   C14   1.274868 A    
O6    C2    1.272809 A    
C84   C88   1.410220 A    
N8    O68   1.301375 A    
C107  H27   1.080999 S    
Zn9   O29   1.925996 S    
C66   Cl10  1.765820 S    
Zn11  O31   1.925996 S    
Zn12  O32   1.925700 S    
Zn13  O25   1.925658 S    
C143  C144  1.384566 A    
Zn15  O3    1.940854 S    
Zn11  O3    1.939245 S    
C76   H20   1.082485 S    
C26   Cl2   1.775954 S    
O43   C15   1.273181 A    
C67   C87   1.419295 A    
Zn5   O1    1.945574 S    
C50   C54   1.388768 A    
C135  C136  1.416319 A    
C107  C116  1.411553 A    
C94   C98   1.389253 A    
C105  C114  1.411352 A    
O35   C23   1.275060 A    
C25   C45   1.438779 A    
C131  C132  1.391891 A    
O32   C20   1.276138 A    
C86   C90   1.414256 A    
C48   C52   1.427657 A    
N14   O80   1.301598 A    
C33   H7    1.084031 S    
C99   N7    1.437296 S    
N19   O89   1.301505 A    
Zn9   O17   1.932242 S    
C35   H5    1.083867 S    
H1    C53   1.085528 S    
C1    C104  1.482828 S    
C57   N17   1.442681 S    
C2    C103  1.482586 S    
C40   Cl8   1.768998 S    
Zn14  O42   1.932198 S    
C111  C112  1.411887 A    
C68   C72   1.394978 A    
Zn2   O38   1.932344 S    
O33   C21   1.273903 A    
C123  C124  1.381795 A    
O19   C15   1.273130 A    
C109  C110  1.412151 A    
C125  H33   1.076858 S    
C133  C138  1.418845 A    
H11   C95   1.083716 S    
O37   C9    1.278449 A    
N15   O81   1.301304 A    
C95   C99   1.391399 A    
O39   C11   1.275961 A    
C115  C116  1.412350 A    
C67   Cl11  1.764436 S    
C83   C103  1.428415 A    
H2    C54   1.085479 S    
Zn4   O36   1.922974 S    
O36   C24   1.274640 A    
O12   C8    1.279202 A    
C73   H17   1.082479 S    
C32   C36   1.387820 A    
C74   C78   1.403244 A    
H31   C143  1.083048 S    
Zn3   O35   1.923383 S    
C70   C74   1.390581 A    
C131  H39   1.082522 S    
C8    C92   1.466928 S    
O40   C12   1.275969 A    
C15   C119  1.450991 S    
C55   C59   1.380103 A    
C113  C118  1.418921 A    
C43   C63   1.431863 A    
Zn6   O46   1.938640 S    
C127  H35   1.081614 S    
C128  C135  1.412536 A    
C100  N8    1.437344 S    
N18   O88   1.301562 A    
C20   C61   1.446285 S    
C80   C84   1.426715 A    
N6    O63   1.300657 A    
C38   Cl6   1.769353 S    
C69   C73   1.390305 A    
C65   C69   1.394848 A    
O38   C10   1.278434 A    
O31   C19   1.275320 A    
C72   C76   1.390394 A    
N11   O74   1.301374 A    
Zn14  O2    1.939537 S    
H22   C122  1.084115 S    
C34   H8    1.083905 S    
N17   O85   1.301533 A    
Zn8   O4    1.945496 S    
C34   C38   1.389501 A    
O21   C17   1.276106 A    
N10   O72   1.301273 A    
C119  C123  1.395308 A    
Zn16  O44   1.932198 S    
N12   O75   1.301677 A    
O49   C5    1.278251 A    
C128  H36   1.081630 S    
C41   C45   1.433937 A    
C14   C118  1.451721 S    
Zn10  O30   1.925700 S    
C78   N2    1.441095 S    
C105  H25   1.081134 S    
Zn12  O20   1.931580 S    
N5    O61   1.300693 A    
C99   C103  1.413965 A    
Zn14  O26   1.925954 S    
C5    C89   1.466928 S    
Zn15  O7    1.941262 S    
Zn16  O8    1.941509 S    
Zn1   O9    1.938595 S    
Zn3   O39   1.932383 S    
C27   Cl3   1.775528 S    
C52   C56   1.389203 A    
H24   C124  1.084120 S    
Zn11  O51   1.941555 S    
C91   C95   1.400048 A    
C29   C33   1.386711 A    
Zn6   O2    1.945496 S    
N19   O90   1.301580 A    
Zn7   O15   1.932299 S    
Zn8   O16   1.932338 S    
N1    O54   1.301681 A    
C117  C121  1.395328 A    
C126  C133  1.415900 A    
C87   C91   1.414112 A    
C83   C87   1.410246 A    
O27   C23   1.275756 A    
C96   C100  1.391434 A    
C46   C50   1.425819 A    
O29   C17   1.273744 A    
N20   O91   1.301505 A    
C37   Cl5   1.769345 S    
C85   C89   1.414647 A    
N2    O55   1.301681 A    
C107  C111  1.401642 A    
Zn10  O18   1.931580 S    
N15   O82   1.301522 A    
C35   C39   1.388221 A    
C38   C42   1.433628 A    
Zn9   O1    1.939245 S    
C65   C85   1.419845 A    
N9    O70   1.301370 A    
C75   H19   1.082492 S    
N3    O57   1.301838 A    
C4    C101  1.482687 S    
C27   C47   1.439112 A    
C138  C142  1.395915 A    
O45   C1    1.290735 A    
N7    O66   1.301376 A    
N16   O83   1.301535 A    
C32   N16   1.439528 S    
H10   C94   1.083769 S    
N6    O64   1.301342 A    
C41   C61   1.434072 A    
H29   C141  1.084050 S    
Zn2   O2    1.945424 S    
C58   C62   1.407984 A    
O15   C11   1.276868 A    
C127  C131  1.394746 A    
C82   C102  1.428910 A    
H4    C56   1.085535 S    
N13   O78   1.301463 A    
O44   C16   1.272048 A    
O17   C13   1.272990 A    
O20   C16   1.274907 A    
O10   C6    1.277833 A    
C30   C34   1.387932 A    
C9    C137  1.453071 S    
O48   C4    1.287449 A    
Zn15  O43   1.931535 S    
C128  C132  1.394736 A    
C74   H18   1.082480 S    
O14   C10   1.275620 A    
C44   C48   1.432513 A    
C70   H14   1.082872 S    
Zn1   O33   1.923383 S    
C68   Cl12  1.764131 S    
C25   C29   1.406275 A    
C16   C120  1.451831 S    
C58   N18   1.442473 S    
O30   C18   1.274097 A    
C77   N1    1.441135 S    
