data_mof_unit_21549.cif
_audit_creation_date              2013-03-05T15:45:31-0500
_audit_creation_method            fapswitch 2.2
_symmetry_space_group_name_H-M    P1
_symmetry_Int_Tables_number       1
_space_group_crystal_system       triclinic
_cell_length_a                    11.158726
_cell_length_b                    11.233403
_cell_length_c                    18.819207
_cell_angle_alpha                 89.764342
_cell_angle_beta                  89.366034
_cell_angle_gamma                 59.642383
_cell_volume                      2035.42149362

loop_
_atom_site_label
_atom_site_type_symbol
_atom_site_description
_atom_site_fract_x
_atom_site_fract_y
_atom_site_fract_z
_atom_type_partial_charge
O1    O     O_R   0.507430 0.255570 0.581420 -0.433017
O2    O     O_R   0.280190 0.527390 0.578910 -0.493140
C1    C     C_R   0.228666 0.651690 0.606597 0.618022
O3    O     O_R   0.260310 0.739740 0.584580 -0.414269
O4    O     O_R   0.532250 0.695150 0.573830 -0.427874
C2    C     C_R   0.654039 0.618929 0.600955 0.633301
O5    O     O_R   0.744930 0.503430 0.576380 -0.456701
O6    O     O_R   0.699250 0.276390 0.571950 -0.460844
C3    C     C_R   0.619512 0.240360 0.606005 0.624776
O7    O     O_R   0.499020 0.256400 0.419850 -0.443299
O8    O     O_R   0.272400 0.528160 0.429140 -0.499005
C4    C     C_R   0.233857 0.644806 0.398327 0.550288
O9    O     O_R   0.251910 0.740570 0.423020 -0.501894
O10   O     O_R   0.524460 0.695920 0.424060 -0.495121
C5    C     C_R   0.641105 0.617617 0.390518 0.570787
O11   O     O_R   0.736530 0.504260 0.414810 -0.461465
O12   O     O_R   0.691460 0.277160 0.422180 -0.504987
C6    C     C_R   0.619203 0.223609 0.397745 0.566042
Cr1   Cr    Cr6+3 0.392930 0.397900 0.502230 1.169131
Cr2   Cr    Cr6+3 0.398240 0.708600 0.501260 1.196823
Cr3   Cr    Cr6+3 0.708800 0.393470 0.496460 1.168137
O13   O     O_3   0.499990 0.499990 0.499980 -0.340337
C7    C     C_3   0.613964 0.824003 0.773370 0.003434
H1    H     H_    0.673726 0.878472 0.773717 0.138549
C8    C     C_3   0.578366 0.803763 0.694335 0.289931
H2    H     H_    0.908611 0.675640 0.776033 0.112795
C9    C     C_3   0.864159 0.609676 0.764589 -0.003350
C10   C     C_3   0.648176 0.591278 0.804305 0.099529
C11   C     C_3   0.718809 0.679300 0.809109 -0.109641
H3    H     H_    0.536869 0.657862 0.811731 0.226878
C12   C     C_3   0.679862 0.645740 0.674635 -0.089926
C13   C     C_3   0.832387 0.615922 0.682902 0.020705
C14   C     C_3   0.667298 0.536153 0.727275 0.200351
H4    H     H_    0.899996 0.515616 0.657508 0.236865
C15   C     C_R   0.772147 0.139512 0.709764 -0.036037
H5    H     H_    0.856896 0.110129 0.674577 0.247640
C16   C     C_R   0.793334 0.113758 0.781896 -0.110521
H6    H     H_    0.897259 0.055852 0.801667 0.163326
C17   C     C_R   0.680485 0.166950 0.828547 0.026998
C18   C     C_R   0.544847 0.240479 0.802049 0.243359
C19   C     C_R   0.525896 0.239845 0.728834 0.191284
C20   C     C_R   0.640158 0.204905 0.682103 0.060525
C21   C     C_R   0.166667 0.579043 0.716657 -0.119890
H7    H     H_    0.161912 0.499867 0.688073 0.214703
C22   C     C_R   0.169096 0.579149 0.790436 -0.094946
H8    H     H_    0.176628 0.493532 0.818861 0.253308
C23   C     C_R   0.149681 0.694280 0.827304 -0.006896
C24   C     C_R   0.132048 0.808572 0.788227 -0.076913
H9    H     H_    0.116487 0.899556 0.815806 0.201559
C25   C     C_R   0.130851 0.808911 0.713719 0.258972
C26   C     C_R   0.164026 0.684690 0.677869 0.087806
C27   C     C_R   0.739360 0.525169 0.269484 0.143580
C28   C     C_R   0.718440 0.540120 0.196526 0.222749
C29   C     C_R   0.651615 0.672691 0.167461 0.018438
C30   C     C_R   0.578671 0.787686 0.212129 -0.148523
H10   H     H_    0.525831 0.891179 0.190746 0.183927
C31   C     C_R   0.571292 0.769345 0.284730 -0.163760
H11   H     H_    0.503039 0.856402 0.317452 0.221457
C32   C     C_R   0.656131 0.639759 0.314866 -0.022625
C33   C     C_R   0.552381 0.133795 0.293721 0.179690
C34   C     C_R   0.556451 0.132013 0.220149 -0.160189
H12   H     H_    0.473993 0.129155 0.191835 0.200833
C35   C     C_R   0.669984 0.123464 0.183474 -0.006455
C36   C     C_R   0.783871 0.112076 0.222928 0.167279
C37   C     C_R   0.773806 0.125590 0.295877 -0.130270
H13   H     H_    0.857390 0.123602 0.325490 0.203172
C38   C     C_R   0.654530 0.148757 0.330777 -0.012981
C39   C     C_R   0.243518 0.728192 0.279738 -0.103398
H14   H     H_    0.288729 0.785533 0.301586 0.183898
C40   C     C_R   0.232819 0.725044 0.206988 0.154755
C41   C     C_R   0.170540 0.655102 0.177528 0.038111
C42   C     C_R   0.150789 0.562516 0.220223 0.115611
C43   C     C_R   0.163214 0.565247 0.293363 -0.102869
H15   H     H_    0.145524 0.496156 0.326335 0.206847
C44   C     C_R   0.201920 0.654016 0.323563 -0.042875
O14   O     O_R   0.089490 0.825610 0.930610 -0.491846
O15   O     O_R   0.818370 0.054540 0.929880 -0.496157
C45   C     C_R   0.700048 0.104762 0.898202 0.574521
O16   O     O_R   0.605870 0.077310 0.915530 -0.454935
O17   O     O_R   0.646440 0.806700 0.917570 -0.446416
C46   C     C_R   0.746184 0.702409 0.883150 0.542229
O18   O     O_R   0.837200 0.593290 0.915250 -0.399471
O19   O     O_R   0.065330 0.635370 0.931590 -0.485978
C47   C     C_R   0.108930 0.713067 0.902977 0.564647
O20   O     O_R   0.068300 0.828790 0.091860 -0.437418
O21   O     O_R   0.798730 0.057480 0.079370 -0.437852
C48   C     C_R   0.680877 0.093259 0.107504 0.590144
O22   O     O_R   0.584680 0.080480 0.076790 -0.503206
O23   O     O_R   0.626790 0.809640 0.067050 -0.496520
C49   C     C_R   0.694656 0.690601 0.096756 0.592678
O24   O     O_R   0.816010 0.596460 0.076500 -0.432324
O25   O     O_R   0.045680 0.638310 0.081070 -0.473534
C50   C     C_R   0.096884 0.706396 0.110764 0.577309
Cr4   Cr    Cr6+3 0.937620 0.938540 0.007640 1.173715
Cr5   Cr    Cr6+3 0.625150 0.937450 0.994520 1.168539
Cr6   Cr    Cr6+3 0.937990 0.625080 0.001190 1.195456
O26   O     O_3   0.833590 0.833690 0.001120 -0.374962
N1    N     N_R   0.790713 0.393548 0.723821 0.098207
O27   O     O_R   0.849077 0.323305 0.780795 -0.217437
O28   O     O_R   0.845825 0.331643 0.664263 -0.273187
N2    N     N_R   0.973307 0.464148 0.783739 0.098033
O29   O     O_R   0.016170 0.424843 0.847964 -0.209113
O30   O     O_R   0.049260 0.375328 0.734893 -0.233689
N3    N     N_R   0.428754 0.310543 0.850284 0.081825
O31   O     O_R   0.427725 0.397805 0.895819 -0.284749
O32   O     O_R   0.342252 0.266513 0.860053 -0.209211
Br1   Br    Br    0.356975 0.253307 0.696190 -0.216695
N4    N     N_R   0.483775 0.914632 0.813931 0.125010
O33   O     O_R   0.409294 0.041615 0.794353 -0.169767
O34   O     O_R   0.427313 0.869406 0.859552 -0.254077
N5    N     N_R   0.099973 0.933749 0.676273 0.102974
O35   O     O_R   0.049009 0.957078 0.612389 -0.290368
O36   O     O_R   0.101655 0.034223 0.709721 -0.201826
Br2   Br    Br    0.894121 0.352035 0.301064 -0.319016
N6    N     N_R   0.768945 0.421644 0.151195 0.113522
O37   O     O_R   0.680776 0.405919 0.113595 -0.292764
O38   O     O_R   0.900109 0.350758 0.134517 -0.177133
N7    N     N_R   0.444884 0.120525 0.329706 0.082736
O39   O     O_R   0.325523 0.163044 0.299627 -0.275180
O40   O     O_R   0.471874 0.050496 0.388550 -0.292861
Br3   Br    Br    0.959666 0.076370 0.185925 -0.260255
N8    N     N_R   0.430229 0.845422 0.688277 0.138119
O41   O     O_R   0.351112 0.939670 0.642767 -0.149708
O42   O     O_R   0.370719 0.807241 0.734858 -0.322020
Br4   Br    Br    0.305115 0.817320 0.149792 -0.373752
Br5   Br    Br    0.119522 0.422351 0.182843 -0.293316
N9    N     N_R   0.600986 0.892401 0.643844 0.146586
O43   O     O_R   0.623319 0.986544 0.667046 -0.322628
O44   O     O_R   0.583809 0.889931 0.575653 -0.222214
N10   N     N_R   0.864925 0.708358 0.642220 0.058862
O45   O     O_R   0.878892 0.803912 0.673052 -0.366881
O46   O     O_R   0.887812 0.689896 0.574067 -0.281651
Br6   Br    Br    0.662586 0.474155 0.886071 -0.233267
Br7   Br    Br    0.506376 0.521724 0.704781 -0.493881

loop_
_geom_bond_atom_site_label_1
_geom_bond_atom_site_label_2
_geom_bond_distance
_ccdc_geom_bond_type
C8    C12   1.592236 S    
C30   H10   1.081531 S    
N2    O29   1.295960 A    
C9    C11   1.624011 S    
C43   H15   1.083773 S    
N5    O35   1.303601 A    
C48   O22   1.295050 A    
O14   C47   1.281206 A    
N3    O32   1.299252 A    
C46   O18   1.283774 A    
C49   O24   1.281327 A    
O4    Cr2   1.984762 S    
C22   H8    1.064551 S    
C39   C44   1.402428 A    
O16   Cr5   2.090606 S    
O8    Cr1   1.969051 S    
C3    C20   1.473923 S    
O11   Cr3   2.090157 S    
C7    C11   1.596729 S    
C10   C11   1.548285 S    
C15   C16   1.384583 A    
C29   C49   1.457060 S    
O4    C2    1.294677 A    
C31   C32   1.396085 A    
O19   Cr6   1.967658 S    
C36   Br3   1.915892 S    
O15   Cr4   1.971019 S    
O25   Cr6   1.987034 S    
N4    O33   1.290493 A    
C14   N1    1.495308 S    
C19   C20   1.423143 A    
C34   C35   1.395999 A    
C15   C20   1.378432 A    
N7    O39   1.301534 A    
O25   C50   1.294617 A    
O21   Cr4   1.971000 S    
O14   Cr4   2.090556 S    
O24   Cr6   2.088210 S    
O20   C50   1.293781 A    
C14   Br7   1.934298 S    
O19   C47   1.306913 A    
C33   C38   1.423390 A    
O6    C3    1.309772 A    
C37   C38   1.379322 A    
C7    H1    1.109830 S    
C12   C14   1.636405 S    
C33   N7    1.442786 S    
C40   C41   1.404163 A    
C8    N8    1.478611 S    
C42   C43   1.386940 A    
C24   C25   1.402366 A    
C2    C12   1.482018 S    
C9    C13   1.574760 S    
O22   Cr5   2.110485 S    
N2    O30   1.301678 A    
Cr3   O13   2.011068 S    
C43   C44   1.396188 A    
C13   N10   1.471253 S    
N3    O31   1.300260 A    
C25   C26   1.421094 A    
C22   C23   1.386296 A    
O1    Cr1   2.089840 S    
O18   Cr6   2.111673 S    
C5    O11   1.264820 A    
C10   Br6   1.974763 S    
C17   C45   1.448686 S    
O10   Cr2   1.966829 S    
Cr1   O13   2.031623 S    
O1    C3    1.266358 A    
C17   C18   1.404066 A    
C1    C26   1.472802 S    
C45   O16   1.274763 A    
C39   H14   1.083393 S    
Cr4   O26   2.033772 S    
N6    O38   1.299475 A    
C6    C38   1.453754 S    
O15   C45   1.295628 A    
C9    N2    1.509332 S    
O12   Cr3   1.993783 S    
C42   Br5   1.914561 S    
C33   C34   1.384714 A    
C15   H5    1.055554 S    
C13   H4    1.097439 S    
O23   Cr5   1.970450 S    
N10   O46   1.301785 A    
C21   H7    1.065602 S    
N9    O44   1.302104 A    
C11   C46   1.481478 S    
C16   H6    1.073063 S    
C27   C32   1.425493 A    
C18   N3    1.439059 S    
O20   Cr4   2.091967 S    
C23   C24   1.402853 A    
O7    Cr1   2.099804 S    
Cr6   O26   2.022188 S    
O12   C6    1.313092 A    
H2    C9    1.103052 S    
N5    O36   1.303067 A    
C23   C47   1.473260 S    
O17   Cr5   1.991983 S    
C21   C22   1.389044 A    
C40   Br4   1.923742 S    
C24   H9    1.080321 S    
Cr2   O13   2.022793 S    
C10   C14   1.548367 S    
C37   H13   1.082279 S    
N1    O28   1.294972 A    
C30   C31   1.388642 A    
N8    O42   1.290459 A    
N9    O43   1.282097 A    
C27   C28   1.390475 A    
C29   C30   1.403157 A    
C18   C19   1.396888 A    
C19   Br1   1.920944 S    
O9    Cr2   2.102215 S    
C35   C48   1.460259 S    
O2    Cr1   1.976956 S    
O21   C48   1.274126 A    
C5    C32   1.466595 S    
C12   C13   1.569187 S    
O17   C46   1.305059 A    
O6    Cr3   1.970371 S    
O8    C4    1.291440 A    
Cr5   O26   2.012170 S    
C28   C29   1.397453 A    
C2    O5    1.261101 A    
C41   C50   1.457528 S    
C27   Br2   1.932963 S    
C36   C37   1.378924 A    
C10   H3    1.086116 S    
N10   O45   1.299761 A    
C8    N9    1.482906 S    
C41   C42   1.413076 A    
C16   C17   1.390248 A    
O5    Cr3   2.117194 S    
C21   C26   1.378465 A    
C31   H11   1.075809 S    
O7    C6    1.263662 A    
C7    N4    1.488787 S    
C25   N5    1.445958 S    
N4    O34   1.303906 A    
O2    C1    1.318956 A    
C7    C8    1.590247 S    
C34   H12   1.082791 S    
N7    O40   1.302540 A    
C35   C36   1.427738 A    
O3    Cr2   2.087306 S    
C28   N6    1.434295 S    
C4    O9    1.280241 A    
C39   C40   1.377747 A    
N1    O27   1.298249 A    
C4    C44   1.445685 S    
N8    O41   1.303205 A    
O10   C5    1.302099 A    
N6    O37   1.300756 A    
O23   C49   1.285995 A    
C1    O3    1.273217 A    
