data_mof_unit_15062.cif
_audit_creation_date              2012-12-10T18:22:31-0500
_audit_creation_method            fapswitch 2.2
_symmetry_space_group_name_H-M    P1
_symmetry_Int_Tables_number       1
_space_group_crystal_system       triclinic
_cell_length_a                    23.50025
_cell_length_b                    10.616951
_cell_length_c                    9.458125
_cell_angle_alpha                 89.003481
_cell_angle_beta                  90.047935
_cell_angle_gamma                 90.32835
_cell_volume                      2359.41537322

loop_
_atom_site_label
_atom_site_type_symbol
_atom_type_description
_atom_site_fract_x
_atom_site_fract_y
_atom_site_fract_z
_atom_type_partial_charge
C1    C     C_R   0.499943 0.259518 0.500720 0.814595
C2    C     C_R   0.500058 0.740481 0.499279 0.814305
C3    C     C_R   0.238814 0.498015 0.626757 -0.136118
C4    C     C_R   0.761329 0.506242 0.625971 -0.127665
C5    C     C_R   0.298045 0.498207 0.627479 -0.148205
C6    C     C_R   0.702101 0.505775 0.626924 -0.177548
C7    C     C_R   0.328340 0.499665 0.499616 -0.113020
C8    C     C_R   0.671648 0.500789 0.499423 -0.112371
C9    C     C_R   0.298293 0.501032 0.371055 -0.265790
C10   C     C_R   0.701527 0.496445 0.370924 -0.234681
C11   C     C_R   0.238738 0.501019 0.369362 0.397341
C12   C     C_R   0.761081 0.496980 0.369002 0.388299
C13   C     C_R   0.208935 0.499490 0.498705 0.226080
C14   C     C_R   0.791048 0.501756 0.498028 0.225681
C15   C     C_3   0.545204 0.040849 0.573765 -0.161886
C16   C     C_3   0.454800 0.959150 0.426228 -0.162389
C17   C     C_3   0.548249 0.960361 0.439311 -0.123081
C18   C     C_3   0.451754 0.039638 0.560682 -0.123579
C19   C     C_3   0.500081 0.877530 0.498842 -0.025357
C20   C     C_3   0.499922 0.122470 0.501152 -0.025380
C21   C     C_3   0.497042 0.955744 0.633538 -0.072774
C22   C     C_3   0.502962 0.044257 0.366455 -0.072542
C23   C     C_R   0.391034 0.499873 0.499970 0.826983
C24   C     C_R   0.608962 0.500227 0.499940 0.826679
C25   C     C_3   0.525499 0.597546 0.045818 0.580440
C26   C     C_3   0.474507 0.402447 0.954186 0.579239
C27   C     C_3   0.474250 0.598293 0.946527 -0.176857
C28   C     C_3   0.525754 0.401714 0.053478 -0.174919
C29   C     C_3   0.551524 0.500149 0.948956 -0.161876
C30   C     C_3   0.448476 0.499843 0.051044 -0.163624
C31   C     C_R   0.880772 0.613927 0.501168 0.606342
C32   C     C_R   0.119213 0.387448 0.508142 0.608845
C33   C     C_R   0.879951 0.388748 0.506693 0.623751
C34   C     C_R   0.120041 0.612617 0.501116 0.622830
C35   C     C_R   0.939605 0.386031 0.508392 -0.019668
C36   C     C_R   0.060386 0.615359 0.502417 -0.019457
C37   C     C_R   0.969975 0.500861 0.505448 -0.007899
C38   C     C_R   0.030014 0.500532 0.505645 -0.008130
C39   C     C_R   0.940447 0.616017 0.502413 -0.007104
C40   C     C_R   0.059539 0.385378 0.509164 -0.007226
C41   C     C_R   0.969468 0.271767 0.512469 -0.128521
C42   C     C_R   0.030522 0.729634 0.500013 -0.128747
C43   C     C_R   0.028836 0.271445 0.512939 -0.130021
C44   C     C_R   0.971152 0.729959 0.500097 -0.130721
Cu1   Cu    Cu3+1 0.500010 0.499990 0.643150 1.023774
Cu2   Cu    Cu3+1 0.499990 0.500010 0.356850 1.024939
H1    H     H_    0.947097 0.182272 0.514910 0.192899
H2    H     H_    0.052892 0.819129 0.497655 0.192964
H3    H     H_    0.215906 0.496936 0.726091 0.196889
H4    H     H_    0.784363 0.509908 0.725061 0.195684
H5    H     H_    0.321238 0.502339 0.271915 0.199264
H6    H     H_    0.678439 0.492334 0.272021 0.215883
H7    H     H_    0.587728 0.925182 0.389644 0.196084
H8    H     H_    0.412273 0.074807 0.610345 0.196431
N1    N     N_R   0.851998 0.501475 0.501044 -0.453494
N2    N     N_R   0.147989 0.499851 0.501846 -0.453630
N3    N     N_3   0.500040 0.499970 0.858290 -0.232262
N4    N     N_3   0.499960 0.500030 0.141710 -0.232240
O1    O     O_R   0.500030 0.316850 0.620870 -0.511572
O2    O     O_R   0.499970 0.683150 0.379130 -0.511662
O3    O     O_R   0.500000 0.316860 0.379090 -0.593111
O4    O     O_R   0.500000 0.683140 0.620910 -0.593278
O5    O     O_R   0.417890 0.499960 0.620920 -0.553509
O6    O     O_R   0.582110 0.500040 0.379080 -0.552624
O7    O     O_R   0.417870 0.499970 0.379140 -0.590272
O8    O     O_R   0.582130 0.500030 0.620860 -0.591008
O9    O     O_2   0.851649 0.723120 0.499259 -0.516711
O10   O     O_2   0.148333 0.278267 0.512543 -0.516076
O11   O     O_2   0.850032 0.279868 0.510239 -0.494898
O12   O     O_2   0.149964 0.721496 0.498624 -0.495660
H9    H     H_    0.453069 0.681603 0.897816 0.167955
H10   H     H_    0.546942 0.318418 0.102199 0.168301
S1    S     S_3+6 0.561387 0.738410 0.095486 0.004424
O13   O     O_2   0.518277 0.833843 0.139716 -0.327508
O14   O     O_2   0.602618 0.712695 0.213686 -0.297300
O15   O     O_3   0.597148 0.795198 0.954074 -0.542277
H11   H     H_    0.611528 0.878787 0.982947 0.380184
S2    S     S_3+6 0.438734 0.261429 0.904563 0.003996
O16   O     O_2   0.397575 0.286891 0.786151 -0.298913
O17   O     O_2   0.481931 0.166073 0.860632 -0.327250
O18   O     O_3   0.402909 0.204690 0.045901 -0.541471
H12   H     H_    0.388415 0.121235 0.016891 0.380207
H13   H     H_    0.594970 0.501588 0.903119 0.176760
H14   H     H_    0.405030 0.498362 0.096859 0.179548
H15   H     H_    0.050545 0.181713 0.515711 0.191647
H16   H     H_    0.949442 0.819693 0.497803 0.191937
H17   H     H_    0.320021 0.497304 0.728181 0.205666
H18   H     H_    0.680256 0.509369 0.727498 0.187198
S3    S     S_3+6 0.202418 0.503416 0.205253 0.042487
O19   O     O_2   0.168383 0.622405 0.192364 -0.213508
O20   O     O_2   0.243641 0.498689 0.083976 -0.295473
O21   O     O_3   0.157723 0.379619 0.196823 -0.485256
H19   H     H_    0.182333 0.304707 0.208330 0.366534
S4    S     S_3+6 0.797185 0.491228 0.205038 0.044711
O22   O     O_2   0.830610 0.371263 0.199025 -0.212749
O23   O     O_2   0.755834 0.495095 0.083649 -0.293964
O24   O     O_3   0.842476 0.613744 0.189259 -0.486250
H20   H     H_    0.818256 0.689388 0.196575 0.367690
H21   H     H_    0.582037 0.077351 0.634497 0.167572
H22   H     H_    0.417966 0.922648 0.365496 0.167826
H23   H     H_    0.494649 0.916862 0.743160 0.195057
H24   H     H_    0.505354 0.083139 0.256833 0.195166

loop_
_geom_bond_atom_site_label_1
_geom_bond_atom_site_label_2
_ccdc_geom_bond_type
C33   N1    A    
C34   N2    A    
C18   C21   S    
C41   C43   A    
S1    O13   D    
C36   C42   A    
C9    H5    S    
C10   H6    S    
O18   H12   S    
C3    H3    S    
Cu1   Cu2   S    
C31   O9    S    
Cu1   N3    S    
C26   S2    S    
C28   C29   S    
C35   C37   A    
C25   S1    S    
C29   H13   S    
C1    O1    A    
C33   C35   A    
C2    O2    A    
Cu1   O4    S    
C6    H18   S    
C15   C17   S    
C8    C24   S    
C40   C43   A    
S3    O20   D    
C34   O12   S    
C34   C36   A    
C3    C13   A    
C24   O8    A    
C32   O10   S    
C13   N2    S    
C21   H23   S    
C23   O5    A    
C14   N1    S    
C24   O6    A    
Cu2   N4    S    
C27   C30   S    
C4    C14   A    
S1    O14   D    
C12   S4    S    
C28   H10   S    
C42   C44   A    
C44   H16   S    
O24   H20   S    
C25   C29   S    
C15   C20   S    
Cu2   O3    S    
C43   H15   S    
O15   H11   S    
Cu2   O7    S    
C4    C6    A    
C27   N3    S    
C15   H21   S    
C5    C7    A    
S2    O16   D    
C16   H22   S    
C6    C8    A    
S4    O24   S    
Cu1   O5    S    
Cu2   O6    S    
C37   C38   A    
C11   S3    S    
C41   H1    S    
S2    O17   D    
C42   H2    S    
S3    O21   S    
S4    O23   D    
C9    C11   A    
C10   C12   A    
C8    C10   A    
C29   N3    S    
C26   C30   S    
C28   N4    S    
S1    O15   S    
C25   N4    S    
C20   C22   S    
C17   H7    S    
C27   H9    S    
C7    C9    A    
Cu1   O1    S    
C1    C20   S    
C16   C22   S    
Cu2   O2    S    
C2    C19   S    
C12   C14   A    
C3    C5    A    
C1    O3    A    
C39   C44   A    
C33   O11   S    
C25   C27   S    
C26   C28   S    
C17   C22   S    
C22   H24   S    
C23   O7    A    
C36   C38   A    
C37   C39   A    
C38   C40   A    
C11   C13   A    
S2    O18   S    
C16   C19   S    
C7    C23   S    
C30   N4    S    
O21   H19   S    
C17   C19   S    
C31   C39   A    
C18   C20   S    
C32   C40   A    
C30   H14   S    
S4    O22   D    
C35   C41   A    
C26   N3    S    
C18   H8    S    
C5    H17   S    
C15   C21   S    
C16   C18   S    
C4    H4    S    
Cu1   O8    S    
C31   N1    A    
S3    O19   D    
C32   N2    A    
C2    O4    A    
C19   C21   S    
