data_mof_unit_67308.cif
_audit_creation_date              2013-03-05T16:02:35-0500
_audit_creation_method            fapswitch 2.2
_symmetry_space_group_name_H-M    P1
_symmetry_Int_Tables_number       1
_space_group_crystal_system       triclinic
_cell_length_a                    8.410762
_cell_length_b                    14.413448
_cell_length_c                    16.852145
_cell_angle_alpha                 106.199442
_cell_angle_beta                  81.724058
_cell_angle_gamma                 92.222556
_cell_volume                      1941.40858086

loop_
_atom_site_label
_atom_site_type_symbol
_atom_site_description
_atom_site_fract_x
_atom_site_fract_y
_atom_site_fract_z
_atom_type_partial_charge
P1    P     P_3+3 0.619500 0.379780 0.307000 0.411048
O1    O     O_2   0.449810 0.404330 0.292300 -0.359644
O2    O     O_3   0.665430 0.428070 0.399450 -0.427092
O3    O     O_3   0.183150 0.584440 0.337010 -0.429591
O4    O     O_2   0.337395 0.474636 0.196347 -0.397123
O5    O     O_3   0.595825 0.255290 0.291797 -0.650441
O6    O     O_3   0.283676 0.643905 0.182856 -0.591985
H1    H     H_    0.243081 0.750669 0.295668 0.121727
C1    C     C_3   0.327836 0.812898 0.193650 -0.359981
H2    H     H_    0.456174 0.803673 0.192475 0.241923
P2    P     P_3+3 0.105540 0.727570 0.557610 0.484219
P3    P     P_3+3 0.594257 0.764104 0.383593 0.494526
O7    O     O_2   0.286000 0.735700 0.531070 -0.305107
O8    O     O_3   0.580930 0.641410 0.378050 -0.359641
O9    O     O_2   0.426920 0.809469 0.420641 -0.380192
O10   O     O_3   0.103673 0.763504 0.666214 -0.556859
O11   O     O_3   0.617278 0.769256 0.279816 -0.549418
C2    C     C_3   0.670903 0.678893 0.225439 0.330761
H3    H     H_    0.580614 0.621716 0.230454 0.114207
H4    H     H_    0.785854 0.658450 0.240884 -0.000012
C3    C     C_3   0.696714 0.681584 0.133931 0.098808
H5    H     H_    0.581109 0.665312 0.108091 0.102115
C4    C     C_3   0.460014 0.798019 0.731559 1.048627
H6    H     H_    0.351598 0.752189 0.734684 -0.163049
C5    C     C_3   0.465040 0.860437 0.821858 0.015473
H7    H     H_    0.372544 0.918194 0.837761 0.075916
H8    H     H_    0.432738 0.813551 0.864090 0.027635
Ba1   Ba    Ba6+2 0.356390 0.534880 0.456030 1.566102
C6    C     C_3   0.744244 0.208919 0.283720 1.092989
H9    H     H_    0.831906 0.257416 0.318593 0.026592
C7    C     C_3   0.813658 0.174802 0.191433 -1.037126
H10   H     H_    0.718033 0.141249 0.153500 0.252729
H11   H     H_    0.908347 0.119731 0.181915 0.260601
H12   H     H_    0.867512 0.235785 0.168947 0.196365
C8    C     C_3   0.988801 0.836124 0.705210 0.426823
H13   H     H_    0.873707 0.801823 0.721576 0.161146
H14   H     H_    0.971047 0.885229 0.667304 0.017407
C9    C     C_3   0.043938 0.899272 0.784719 -1.030334
H15   H     H_    0.062524 0.855063 0.827085 0.245332
H16   H     H_    0.952653 0.955714 0.816668 0.253801
H17   H     H_    0.157335 0.936209 0.769009 0.259683
P4    P     P_3+3 0.570190 0.620290 0.693000 0.538466
O12   O     O_2   0.739870 0.595710 0.707750 -0.329866
O13   O     O_3   0.524260 0.572010 0.600550 -0.330712
O14   O     O_3   0.006540 0.415640 0.663000 -0.345803
O15   O     O_3   0.601910 0.742713 0.699774 -0.600909
P5    P     P_3+3 0.585572 0.235628 0.615470 0.484483
O16   O     O_3   0.149240 0.378950 0.461440 -0.429617
O17   O     O_3   0.608760 0.358670 0.621950 -0.319809
O18   O     O_2   0.735623 0.182975 0.560433 -0.403960
O19   O     O_3   0.610185 0.223428 0.712809 -0.441963
Ba2   Ba    Ba6+2 0.833430 0.465200 0.543970 1.600747
P6    P     P_3+3 0.203569 0.551644 0.227377 0.395944
C10   C     C_3   0.226960 0.737206 0.229045 0.470479
H18   H     H_    0.300795 0.886753 0.235527 0.175267
O20   O     O_3   0.040450 0.621130 0.538560 -0.439389
C11   C     C_3   0.212824 0.251556 0.289511 0.437420
H19   H     H_    0.160675 0.320346 0.287278 0.098816
H20   H     H_    0.319225 0.265887 0.322089 0.156833
C12   C     C_3   0.267313 0.190091 0.201088 -0.992288
H21   H     H_    0.166638 0.177701 0.163678 0.244025
H22   H     H_    0.364760 0.227924 0.170591 0.251410
H23   H     H_    0.314084 0.119699 0.202561 0.262564
P7    P     P_3+3 0.089223 0.256315 0.438231 0.412531
O21   O     O_2   0.903680 0.264350 0.468980 -0.349423
O22   O     O_3   0.098759 0.202007 0.330814 -0.593594
H24   H     H_    0.782815 0.623717 0.097740 0.050725
C13   C     C_3   0.460951 0.229304 0.762896 0.315827
H25   H     H_    0.377847 0.281448 0.751977 0.014519
H26   H     H_    0.404900 0.156578 0.750325 0.004624
C14   C     C_3   0.489838 0.261918 0.853877 -0.356279
H27   H     H_    0.378843 0.254693 0.895962 0.118572
H28   H     H_    0.582017 0.214278 0.863354 0.224005
P8    P     P_3+3 0.987420 0.446091 0.773300 0.473499
C15   C     C_3   0.983961 0.266985 0.783539 1.308824
H29   H     H_    0.072370 0.266113 0.726818 -0.263229
O23   O     O_2   0.860132 0.527324 0.804793 -0.386753
O24   O     O_3   0.893366 0.353123 0.811445 -0.533624
H30   H     H_    0.147313 0.190348 0.832900 0.143966
C16   C     C_3   0.077061 0.258564 0.853069 -0.571066
H31   H     H_    0.162806 0.319681 0.863170 0.108444
C17   C     C_2   0.291580 0.523803 0.754245 0.276834
C18   C     C_R   0.914334 0.454460 0.245521 -0.508628
C19   C     C_2   0.446146 0.622932 0.858753 -0.392549
C20   C     C_2   0.431049 0.585504 0.777675 0.116093
C21   C     C_2   0.177463 0.500436 0.811026 -0.004508
C22   C     C_3   0.211195 0.521161 0.900738 -0.067930
C23   C     C_3   0.314239 0.612059 0.927024 0.020745
C24   C     C_2   0.074077 0.512207 0.967639 -0.155482
C25   C     C_2   0.106441 0.502529 0.041227 -0.196068
C26   C     C_R   0.834404 0.441786 0.088997 -0.041069
C27   C     C_R   0.984417 0.481016 0.107830 -0.035259
C28   C     C_R   0.723517 0.412822 0.148071 -0.281130
C29   C     C_R   0.762399 0.419669 0.227443 0.260116
C30   C     C_R   0.021164 0.490581 0.189052 0.245048
H32   H     H_    0.546601 0.669997 0.876243 0.171093
H33   H     H_    0.609561 0.382781 0.130967 0.180125
H34   H     H_    0.950542 0.453190 0.304036 0.134680
H35   H     H_    0.950731 0.510976 0.955489 0.175408
H36   H     H_    0.231371 0.505996 0.050983 0.190856
C31   C     C_R   0.179096 0.947430 0.542221 -0.142400
C32   C     C_R   0.989408 0.808667 0.512953 -0.022015
C33   C     C_R   0.839201 0.775700 0.485340 0.245096
C34   C     C_R   0.756565 0.826003 0.443754 0.177051
C35   C     C_R   0.810844 0.916303 0.438504 -0.426093
C36   C     C_R   0.951548 0.955429 0.470381 0.079523
C37   C     C_R   0.041876 0.902880 0.508655 -0.059216
C38   C     C_R   0.139240 0.090736 0.496067 -0.033149
C39   C     C_R   0.226843 0.040650 0.537087 0.083706
C40   C     C_R   0.185138 0.186152 0.494835 0.208299
C41   C     C_R   0.314088 0.230040 0.535156 -0.415633
C42   C     C_R   0.403453 0.179608 0.573033 0.179993
C43   C     C_R   0.359695 0.085456 0.574096 -0.344326
C44   C     C_R   0.004654 0.045772 0.461223 -0.138361
H37   H     H_    0.748185 0.953231 0.404717 0.191341
H38   H     H_    0.428189 0.048206 0.604880 0.141151
H39   H     H_    0.350265 0.302511 0.533642 0.185121
H40   H     H_    0.246715 0.912122 0.575281 0.195578
H41   H     H_    0.936954 0.081390 0.428335 0.198811
O25   O     O_3   0.618466 0.901948 0.831551 -0.597508
C45   C     C_3   0.624743 0.946328 0.916962 -0.225806
H42   H     H_    0.740466 0.984795 0.924117 0.160744
H43   H     H_    0.620047 0.891070 0.951830 0.140900
H44   H     H_    0.527133 0.000670 0.944570 0.143465
O26   O     O_3   0.723072 0.125746 0.313571 -0.635758
C46   C     C_3   0.606388 0.141756 0.385063 -0.079550
H45   H     H_    0.616791 0.214870 0.428631 0.142568
H46   H     H_    0.621663 0.088188 0.418999 0.139617
H47   H     H_    0.484125 0.131449 0.366305 0.119476
N1    N     N_2   0.058126 0.747548 0.222952 -0.140779
H48   H     H_    0.026218 0.710212 0.165817 0.210351
C47   C     C_3   0.995434 0.845502 0.251924 -0.863790
H49   H     H_    0.864999 0.845224 0.268601 0.315380
H50   H     H_    0.021479 0.882676 0.202008 0.285978
H51   H     H_    0.048433 0.887308 0.307498 0.227381
N2    N     N_2   0.298254 0.806290 0.109626 -0.074911
H52   H     H_    0.345762 0.744586 0.066766 0.216455
C48   C     C_3   0.335497 0.892429 0.082742 -0.921437
H53   H     H_    0.312879 0.879245 0.017219 0.236233
H54   H     H_    0.463446 0.912606 0.086994 0.257763
H55   H     H_    0.257155 0.952952 0.122191 0.263799
N3    N     N_2   0.544276 0.361245 0.874559 -0.023921
H56   H     H_    0.475836 0.407847 0.856987 0.194637
C49   C     C_3   0.579521 0.398627 0.958750 -0.754178
H57   H     H_    0.467825 0.403885 0.003795 0.213789
H58   H     H_    0.633904 0.471549 0.966803 0.233560
H59   H     H_    0.665752 0.349901 0.971119 0.261360
O27   O     O_3   0.874488 0.189203 0.767875 -0.607195
C50   C     C_3   0.939328 0.111293 0.701617 -0.228816
H60   H     H_    0.057140 0.087610 0.711829 0.100226
H61   H     H_    0.949821 0.131249 0.642306 0.193149
H62   H     H_    0.855249 0.049498 0.696913 0.164075
N4    N     N_2   0.973487 0.264567 0.931189 -0.055314
H63   H     H_    0.027793 0.301752 0.981773 0.214951
C51   C     C_3   0.906432 0.174589 0.943157 -0.850737
H64   H     H_    0.830037 0.140110 0.894812 0.283259
H65   H     H_    0.829596 0.189232 0.004695 0.228311
H66   H     H_    0.003966 0.124146 0.941959 0.235511
O28   O     O_3   0.279997 0.490700 0.671002 -0.654262
C52   C     C_3   0.194070 0.559221 0.649200 0.148686
H67   H     H_    0.267384 0.621083 0.641037 0.125366
H68   H     H_    0.084883 0.588305 0.693797 0.103886
H69   H     H_    0.156804 0.519506 0.589483 0.226059
O29   O     O_3   0.779876 0.687151 0.490118 -0.590439
C53   C     C_3   0.860016 0.619665 0.420605 0.223719
H70   H     H_    0.982522 0.631791 0.420629 0.117172
H71   H     H_    0.844732 0.627135 0.358799 -0.011126
H72   H     H_    0.840074 0.547570 0.426754 0.156686
O30   O     O_3   0.755759 0.772586 0.127339 -0.560274
C54   C     C_3   0.789298 0.770564 0.042459 -0.171768
H73   H     H_    0.680083 0.752740 0.010912 0.118617
H74   H     H_    0.887872 0.718712 0.009459 0.139016
H75   H     H_    0.830177 0.843416 0.038426 0.158078
O31   O     O_3   0.434075 0.854456 0.677774 -0.640860
C55   C     C_3   0.565282 0.915619 0.665052 -0.160087
H76   H     H_    0.683762 0.888497 0.670073 0.137663
H77   H     H_    0.543929 0.988343 0.709645 0.144314
H78   H     H_    0.574520 0.922118 0.600684 0.140799

loop_
_geom_bond_atom_site_label_1
_geom_bond_atom_site_label_2
_geom_bond_distance
_ccdc_geom_bond_type
C31   C37   1.411409 A    
C22   C23   1.537034 S    
C28   C29   1.398427 A    
C6    O26   1.419882 S    
O3    P6    1.758986 S    
P6    C30   1.846291 S    
C2    C3    1.537230 S    
Ba1   Ba2   4.707232 S    
O30   C54   1.409875 S    
C41   C42   1.392891 A    
C11   O22   1.395312 S    
Ba1   O20   2.961178 S    
C16   N4    1.453151 S    
P5    O17   1.751106 S    
C4    O31   1.418774 S    
C33   O29   1.371413 S    
C53   H70   1.038420 S    
C24   H35   1.084528 S    
C12   H23   1.110212 S    
C31   H40   1.079207 S    
O4    P6    1.541420 D    
O29   C53   1.400195 S    
C8    H14   1.104191 S    
P1    O1    1.553514 D    
C50   H61   1.105714 S    
O10   C8    1.404557 S    
C19   H32   1.084719 S    
C9    H15   1.110817 S    
C16   H31   1.107913 S    
O12   Ba2   2.892797 S    
C11   H20   1.099445 S    
C51   H65   1.110479 S    
C36   C37   1.423079 A    
C31   C39   1.409654 A    
P5    C42   1.845788 S    
C38   C39   1.417116 A    
C55   H77   1.109940 S    
C12   H22   1.110719 S    
C2    H3    1.111232 S    
P4    O15   1.748622 S    
C38   C44   1.402960 A    
O31   C55   1.415218 S    
C34   C35   1.384478 A    
C45   H44   1.113794 S    
C40   C41   1.399024 A    
P7    C40   1.845673 S    
O28   C52   1.402497 S    
C38   C40   1.418894 A    
P1    C29   1.866859 S    
C18   H34   1.078153 S    
P3    O11   1.753681 S    
P1    Ba1   3.442864 S    
C4    H6    1.108827 S    
C7    H11   1.109629 S    
O7    Ba1   2.864071 S    
C1    H18   1.111908 S    
P5    O18   1.540619 D    
C15   C16   1.533535 S    
P8    O24   1.756864 S    
C44   H41   1.080395 S    
C39   C43   1.405180 A    
C43   H38   1.074565 S    
O13   Ba2   2.969638 S    
C53   H71   1.102345 S    
C4    O15   1.413576 S    
C3    H5    1.112320 S    
C3    H24   1.108125 S    
C51   H66   1.111425 S    
C47   H50   1.109972 S    
P4    O13   1.615015 S    
C49   H59   1.107894 S    
C25   H36   1.083828 S    
C42   C43   1.396522 A    
O3    Ba1   2.894451 S    
C55   H78   1.106044 S    
C10   N1    1.454701 S    
P1    O5    1.747967 S    
C52   H69   1.092761 S    
C47   H51   1.106056 S    
C8    C9    1.518057 S    
C19   C20   1.344391 D    
C9    H17   1.108934 S    
C49   H58   1.110561 S    
C50   H62   1.107947 S    
H1    C10   1.112125 S    
C26   C27   1.404358 A    
C14   H28   1.111853 S    
C21   C22   1.523270 S    
C13   H25   1.114550 S    
C11   C12   1.521071 S    
P5    O19   1.739585 S    
O14   Ba2   2.893923 S    
C5    H7    1.111667 S    
C17   C21   1.356691 D    
C18   C29   1.398007 A    
P8    O23   1.544561 D    
C27   C30   1.414639 A    
O14   P8    1.771393 S    
P1    O2    1.615037 S    
C8    H13   1.104387 S    
P7    O22   1.751703 S    
N1    C47   1.452153 S    
C15   H29   1.120795 S    
C6    H9    1.110475 S    
C26   C28   1.403417 A    
P2    O10   1.755454 S    
C25   C27   1.499051 S    
C55   H76   1.107225 S    
P3    O9    1.545588 D    
O17   Ba2   2.800230 S    
C18   C30   1.406411 A    
O11   C2    1.414268 S    
C7    H12   1.107645 S    
C32   C37   1.429399 A    
P4    C20   1.878848 S    
P8    C21   1.868212 S    
C45   H42   1.106309 S    
C48   H54   1.110906 S    
C14   N3    1.448249 S    
N2    C48   1.444871 S    
C36   C44   1.402183 A    
C53   H72   1.077136 S    
C22   C24   1.520889 S    
C46   H45   1.112161 S    
O26   C46   1.410668 S    
N3    C49   1.439903 S    
N4    C51   1.448155 S    
P4    O12   1.553868 D    
O6    P6    1.768310 S    
C5    O25   1.412854 S    
C28   H33   1.080236 S    
C51   H64   1.106166 S    
O25   C45   1.410408 S    
C1    H2    1.089375 S    
Ba1   O16   2.803566 S    
C46   H46   1.102237 S    
C35   H37   1.078183 S    
C7    H10   1.111191 S    
C19   C23   1.516173 S    
P3    O8    1.744742 S    
N2    H52   1.028781 S    
C48   H55   1.109959 S    
O2    Ba2   2.901606 S    
P3    C34   1.867274 S    
C15   O27   1.413903 S    
C5    H8    1.111522 S    
C17   C20   1.476250 S    
C35   C36   1.403331 A    
C46   H47   1.111295 S    
C41   H39   1.082742 S    
P7    O21   1.570032 D    
N1    H48   1.030906 S    
N4    H63   1.029915 S    
C14   H27   1.108344 S    
C6    C7    1.528260 S    
C50   H60   1.111811 S    
C52   H67   1.093409 S    
C9    H16   1.107347 S    
C17   O28   1.366506 S    
P2    O7    1.528897 D    
C11   H19   1.111834 S    
C54   H74   1.112933 S    
P2    Ba1   3.443453 S    
C13   C14   1.525447 S    
C3    O30   1.412185 S    
Ba1   O13   2.900952 S    
C47   H49   1.092731 S    
P2    C32   1.917733 S    
C2    H4    1.107539 S    
O19   C13   1.399442 S    
C4    C5    1.542248 S    
C32   C33   1.427475 A    
C15   O24   1.409837 S    
C45   H43   1.110481 S    
O16   P7    1.770326 S    
C48   H53   1.110016 S    
Ba2   O21   2.864132 S    
H30   C16   1.110037 S    
C1    N2    1.449250 S    
C49   H57   1.110256 S    
O16   Ba2   2.960252 S    
O5    C6    1.410171 S    
O2    Ba1   2.968707 S    
C13   H26   1.110155 S    
C54   H73   1.112881 S    
P4    Ba2   3.443414 S    
C33   C34   1.400967 A    
N3    H56   1.029685 S    
C12   H21   1.107000 S    
O1    Ba1   2.892216 S    
C1    C10   1.552907 S    
O6    C10   1.414458 S    
O8    Ba1   2.799589 S    
C24   C25   1.352067 D    
O27   C50   1.406339 S    
P2    O20   1.570696 S    
Ba2   O20   2.802925 S    
C52   H68   1.113240 S    
C54   H75   1.109291 S    
