data_mof_unit_39135.cif
_audit_creation_date              2013-03-05T16:03:40-0500
_audit_creation_method            fapswitch 2.2
_symmetry_space_group_name_H-M    P1
_symmetry_Int_Tables_number       1
_space_group_crystal_system       triclinic
_cell_length_a                    25.918764
_cell_length_b                    7.302686
_cell_length_c                    23.274464
_cell_angle_alpha                 90.021873
_cell_angle_beta                  103.456793
_cell_angle_gamma                 89.974832
_cell_volume                      4284.36590681

loop_
_atom_site_label
_atom_site_type_symbol
_atom_site_description
_atom_site_fract_x
_atom_site_fract_y
_atom_site_fract_z
_atom_type_partial_charge
O1    O     O_R   0.438720 0.630760 0.439780 -0.586933
O2    O     O_R   0.061280 0.869240 0.060220 -0.586975
O3    O     O_R   0.561280 0.130760 0.560220 -0.586977
O4    O     O_R   0.938720 0.369240 0.939780 -0.587079
O5    O     O_R   0.546410 0.956760 0.446260 -0.604441
O6    O     O_R   0.953590 0.543240 0.053740 -0.604463
O7    O     O_R   0.453590 0.456760 0.553740 -0.604510
O8    O     O_R   0.046410 0.043240 0.946260 -0.603543
C1    C     C_R   0.562488 0.791720 0.434238 0.974918
C2    C     C_R   0.937510 0.708282 0.065761 0.974820
C3    C     C_R   0.437534 0.291815 0.565804 0.974773
C4    C     C_R   0.062543 0.208207 0.934270 0.979400
O9    O     O_R   0.438220 0.960230 0.432810 -0.533368
O10   O     O_R   0.061780 0.539770 0.067190 -0.533385
O11   O     O_R   0.561780 0.460230 0.567190 -0.533402
O12   O     O_R   0.938220 0.039770 0.932810 -0.533256
O13   O     O_R   0.452310 0.134250 0.546660 -0.591850
O14   O     O_R   0.047690 0.365750 0.953340 -0.593747
O15   O     O_R   0.547690 0.634250 0.453340 -0.591930
O16   O     O_R   0.952310 0.865750 0.046660 -0.592044
C5    C     C_R   0.419199 0.792769 0.416547 0.963457
C6    C     C_R   0.080857 0.707217 0.083377 0.964929
C7    C     C_R   0.580819 0.292764 0.583430 0.963233
C8    C     C_R   0.919179 0.207235 0.916572 0.963451
O17   O     O_3   0.504750 0.798450 0.537370 -0.268674
O18   O     O_3   0.995250 0.701550 0.962630 -0.268887
O19   O     O_3   0.495250 0.298450 0.462630 -0.268541
O20   O     O_3   0.004750 0.201550 0.037370 -0.268751
V1    V     V_3+5 0.499120 0.071860 0.493070 1.242862
V2    V     V_3+5 0.000880 0.428140 0.006930 1.242725
V3    V     V_3+5 0.500880 0.571860 0.506930 1.242801
V4    V     V_3+5 0.999120 0.928140 0.993070 1.243414
C9    C     C_R   0.694679 0.103088 0.701384 -0.188381
C10   C     C_R   0.805311 0.396910 0.798628 -0.188266
C11   C     C_R   0.305510 0.603052 0.298399 -0.187917
C12   C     C_R   0.194899 0.896874 0.201080 -0.188345
H1    H     H_    0.704947 0.966020 0.715840 0.252059
H2    H     H_    0.795041 0.533980 0.784174 0.252033
H3    H     H_    0.295284 0.465980 0.283906 0.251941
H4    H     H_    0.205187 0.033973 0.215483 0.251837
C13   C     C_R   0.649437 0.117340 0.655605 -0.166935
C14   C     C_R   0.850556 0.382659 0.844404 -0.166832
C15   C     C_R   0.350691 0.617323 0.344254 -0.166713
C16   C     C_R   0.149619 0.882623 0.155356 -0.164699
H5    H     H_    0.630069 0.994134 0.636965 0.257247
H6    H     H_    0.869923 0.505865 0.863045 0.257204
H7    H     H_    0.370058 0.494125 0.362915 0.257220
H8    H     H_    0.130266 0.005845 0.136694 0.256827
C17   C     C_R   0.628896 0.286351 0.633903 -0.359461
C18   C     C_R   0.871100 0.213648 0.866103 -0.359353
C19   C     C_R   0.371180 0.786346 0.366001 -0.359470
C20   C     C_R   0.129021 0.713614 0.133737 -0.358023
C21   C     C_R   0.653186 0.444520 0.663350 0.280259
C22   C     C_R   0.846807 0.055479 0.836658 0.280342
C23   C     C_R   0.346923 0.944492 0.336500 0.280418
C24   C     C_R   0.153359 0.555459 0.163142 0.280798
C25   C     C_R   0.696492 0.430314 0.712643 0.378202
C26   C     C_R   0.803499 0.069684 0.787368 0.378172
C27   C     C_R   0.303676 0.930253 0.287144 0.378689
C28   C     C_R   0.196704 0.569677 0.212393 0.378307
C29   C     C_R   0.722962 0.258973 0.727933 -0.054968
C30   C     C_R   0.777029 0.241025 0.772079 -0.054957
C31   C     C_R   0.277229 0.758929 0.271826 -0.055137
C32   C     C_R   0.223175 0.740989 0.227656 -0.054180
C33   C     C_R   0.124223 0.387147 0.886492 -0.272919
C34   C     C_R   0.373479 0.116082 0.611135 -0.297889
C35   C     C_R   0.873000 0.884196 0.110374 -0.298063
C36   C     C_R   0.627005 0.615844 0.389617 -0.298841
H9    H     H_    0.112804 0.511713 0.905579 0.167032
H10   H     H_    0.381635 0.993681 0.588464 0.159781
H11   H     H_    0.881126 0.006222 0.087540 0.159670
H12   H     H_    0.618878 0.493803 0.412443 0.159446
C37   C     C_R   0.162923 0.398585 0.853286 0.615328
C38   C     C_R   0.335992 0.105621 0.646010 0.561541
C39   C     C_R   0.835267 0.895070 0.144936 0.560749
C40   C     C_R   0.664738 0.605022 0.355048 0.561164
C41   C     C_R   0.177551 0.239708 0.825731 -0.076656
C42   C     C_R   0.324982 0.261813 0.677238 -0.055443
C43   C     C_R   0.824345 0.739426 0.176466 -0.053599
C44   C     C_R   0.675649 0.760693 0.323527 -0.053339
C45   C     C_R   0.154448 0.071299 0.835400 -0.191198
C46   C     C_R   0.350893 0.427162 0.670549 -0.208119
C47   C     C_R   0.850709 0.574325 0.170384 -0.205891
C48   C     C_R   0.649269 0.925759 0.329604 -0.206562
H13   H     H_    0.164822 0.946653 0.815534 0.189036
H14   H     H_    0.343361 0.549617 0.693561 0.186139
H15   H     H_    0.843303 0.452134 0.193556 0.186299
H16   H     H_    0.656661 0.047955 0.306426 0.186170
C49   C     C_R   0.117284 0.060566 0.870349 -0.151191
C50   C     C_R   0.387060 0.437489 0.634392 -0.137852
C51   C     C_R   0.887066 0.563584 0.134466 -0.139755
C52   C     C_R   0.612914 0.936453 0.365524 -0.139265
H17   H     H_    0.100737 0.928048 0.876752 0.160242
H18   H     H_    0.405945 0.567612 0.630401 0.156725
H19   H     H_    0.906217 0.433621 0.130889 0.156952
H20   H     H_    0.593751 0.066395 0.369099 0.156861
C53   C     C_R   0.101510 0.218451 0.896244 -0.193480
C54   C     C_R   0.399089 0.281878 0.604429 -0.179111
C55   C     C_R   0.898927 0.718579 0.104197 -0.178294
C56   C     C_R   0.601068 0.781442 0.395797 -0.177938
N1    N     N_R   0.237438 0.089368 0.771007 -0.077508
N2    N     N_R   0.265278 0.412464 0.732020 -0.081971
N3    N     N_R   0.767353 0.588286 0.234437 -0.078563
N4    N     N_R   0.732661 0.911878 0.265579 -0.078359
N5    N     N_R   0.271791 0.094070 0.736377 -0.032768
N6    N     N_R   0.230852 0.407700 0.766567 -0.048500
N7    N     N_R   0.732638 0.592801 0.268632 -0.032477
N8    N     N_R   0.767378 0.907364 0.231384 -0.032606
C57   C     C_R   0.286493 0.255658 0.716011 0.134535
C58   C     C_R   0.216218 0.246169 0.787060 0.121274
C59   C     C_R   0.714503 0.754624 0.285108 0.132542
C60   C     C_R   0.785507 0.745534 0.214903 0.132043
N9    N     N_R   0.633985 0.622865 0.644786 0.245837
O21   O     O_R   0.646249 0.695794 0.598722 -0.449368
O22   O     O_R   0.597950 0.698240 0.667748 -0.431810
N10   N     N_R   0.866008 0.877133 0.855222 0.245804
O23   O     O_R   0.853747 0.804211 0.901289 -0.449451
O24   O     O_R   0.902039 0.801748 0.832256 -0.431097
N11   N     N_R   0.366107 0.122835 0.355069 0.245800
O25   O     O_R   0.353796 0.195948 0.401102 -0.449168
O26   O     O_R   0.402168 0.198031 0.332145 -0.431611
N12   N     N_R   0.134173 0.377114 0.144573 0.245616
O27   O     O_R   0.146347 0.304240 0.098429 -0.446706
O28   O     O_R   0.098211 0.301733 0.167609 -0.432205
O29   O     O_3   0.709906 0.586391 0.746292 -0.620631
C61   C     C_3   0.686632 0.576572 0.795440 0.272116
H21   H     H_    0.700750 0.453723 0.823020 0.090904
H22   H     H_    0.642554 0.571971 0.780877 0.119716
C62   C     C_3   0.702062 0.745413 0.833876 -0.819417
H23   H     H_    0.686251 0.870627 0.808897 0.248845
H24   H     H_    0.685367 0.735787 0.873590 0.194287
H25   H     H_    0.745907 0.755580 0.848264 0.284683
O30   O     O_3   0.790083 0.913607 0.753719 -0.620720
C63   C     C_3   0.813356 0.923422 0.704570 0.272107
H26   H     H_    0.857433 0.928022 0.719132 0.120178
H27   H     H_    0.799237 0.046269 0.676990 0.090994
C64   C     C_3   0.797925 0.754578 0.666135 -0.818908
H28   H     H_    0.754080 0.744413 0.651748 0.284573
H29   H     H_    0.814620 0.764199 0.626421 0.194504
H30   H     H_    0.813735 0.629366 0.691116 0.248883
O31   O     O_3   0.290287 0.086280 0.253481 -0.620755
C65   C     C_3   0.313564 0.076193 0.204335 0.267603
H31   H     H_    0.299524 0.953125 0.176819 0.092855
H32   H     H_    0.357643 0.071821 0.218910 0.120427
C66   C     C_3   0.298030 0.244733 0.165798 -0.810706
H33   H     H_    0.313740 0.370175 0.190714 0.247847
H34   H     H_    0.314751 0.234934 0.126103 0.195964
H35   H     H_    0.254179 0.254621 0.151379 0.284472
O32   O     O_3   0.210147 0.413656 0.246040 -0.620765
C67   C     C_3   0.186860 0.423580 0.295181 0.271511
H36   H     H_    0.142783 0.428350 0.280613 0.119888
H37   H     H_    0.200988 0.546387 0.322788 0.091059
C68   C     C_3   0.202262 0.254690 0.333578 -0.818188
H38   H     H_    0.246104 0.244379 0.347985 0.284630
H39   H     H_    0.185548 0.264375 0.373281 0.194461
H40   H     H_    0.186451 0.129530 0.308560 0.248749
O33   O     O_3   0.184147 0.568551 0.846160 -0.657767
C69   C     C_3   0.232729 0.591644 0.888489 0.251886
H41   H     H_    0.257663 0.687164 0.869486 0.142211
H42   H     H_    0.256077 0.462448 0.898863 0.080038
C70   C     C_3   0.223779 0.677310 0.945228 -0.963712
H43   H     H_    0.203481 0.579054 0.968916 0.255841
H44   H     H_    0.262576 0.713914 0.974728 0.231296
H45   H     H_    0.199412 0.803238 0.934940 0.272078
O34   O     O_3   0.311296 0.940144 0.650278 -0.640109
C71   C     C_3   0.266662 0.925894 0.602311 0.243530
H46   H     H_    0.279012 0.920977 0.559570 0.098468
H47   H     H_    0.238990 0.043231 0.601731 0.093653
C72   C     C_3   0.236782 0.750405 0.608343 -0.861503
H48   H     H_    0.225313 0.748510 0.651450 0.268139
H49   H     H_    0.200362 0.742030 0.572197 0.206987
H50   H     H_    0.262065 0.629702 0.605449 0.252653
O35   O     O_3   0.810555 0.060786 0.148927 -0.639223
C73   C     C_3   0.766611 0.076356 0.100215 0.245824
H51   H     H_    0.738491 0.960132 0.099114 0.093094
H52   H     H_    0.779714 0.080197 0.057895 0.097584
C74   C     C_3   0.737074 0.253273 0.105571 -0.863788
H53   H     H_    0.762863 0.372814 0.103006 0.252567
H54   H     H_    0.701052 0.262507 0.068928 0.206701
H55   H     H_    0.724988 0.256607 0.148338 0.268104
O36   O     O_3   0.689482 0.439377 0.351030 -0.639254
C75   C     C_3   0.733188 0.423152 0.399978 0.245319
H56   H     H_    0.719722 0.416515 0.442032 0.098176
H57   H     H_    0.761084 0.540442 0.401903 0.092685
C76   C     C_3   0.763270 0.247852 0.394120 -0.862857
H58   H     H_    0.775825 0.247552 0.351622 0.267879
H59   H     H_    0.799035 0.238011 0.431067 0.206732
H60   H     H_    0.737686 0.127094 0.395730 0.252645

loop_
_geom_bond_atom_site_label_1
_geom_bond_atom_site_label_2
_geom_bond_distance
_ccdc_geom_bond_type
O17   V3    1.793392 S    
C47   H15   1.082900 S    
C26   C30   1.431401 A    
O34   C71   1.412252 S    
C23   C27   1.409816 A    
O19   V1    1.793810 S    
O13   V1    1.984611 S    
C72   H48   1.110852 S    
O3    C7    1.349313 A    
C10   C14   1.392699 A    
C10   C30   1.415787 A    
C44   C48   1.408795 A    
O15   V3    1.985071 S    
C65   H32   1.113958 S    
C63   C64   1.521050 S    
C70   H43   1.109601 S    
O4    V2    2.012822 S    
C23   N11   1.424906 S    
O35   C73   1.412282 S    
O1    C5    1.349351 A    
C64   H29   1.110306 S    
C18   C22   1.414021 A    
C43   C60   1.494880 S    
C3    C54   1.491108 S    
O9    V1    2.023123 S    
C1    O15   1.321861 A    
N9    O21   1.301266 A    
C25   O29   1.380670 S    
C11   H3    1.069757 S    
O4    C8    1.349309 A    
C33   H9    1.083089 S    
C7    C17   1.501200 S    
C39   O35   1.382142 S    
C34   C38   1.405662 A    
C37   O33   1.383459 S    
O1    V3    2.012774 S    
C33   C37   1.404030 A    
N10   O23   1.301269 A    
O2    V4    2.012774 S    
C14   H6    1.071665 S    
O3    V1    2.012820 S    
C37   C41   1.418937 A    
C73   H51   1.115371 S    
C69   C70   1.526718 S    
C66   H34   1.110310 S    
C75   H56   1.114123 S    
C69   H42   1.116390 S    
O33   C69   1.416776 S    
C2    O16   1.321851 A    
C74   H54   1.110409 S    
C67   C68   1.521030 S    
C22   N10   1.424917 S    
O2    C6    1.349298 A    
O14   V2    1.984609 S    
C68   H39   1.110306 S    
C11   C15   1.392702 A    
C19   C23   1.414043 A    
C36   H12   1.083274 S    
C62   H25   1.109951 S    
C45   C49   1.400144 A    
C16   C20   1.391608 A    
N4    N8    1.333213 A    
O11   C7    1.339774 A    
O29   C61   1.413790 S    
O12   C8    1.339775 A    
C71   H47   1.115248 S    
C72   H49   1.110372 S    
C65   C66   1.521107 S    
C41   C58   1.495543 S    
O10   V2    2.023123 S    
O16   V4    1.985072 S    
C13   C17   1.391637 A    
C70   H44   1.110323 S    
C21   N9    1.424916 S    
C50   H18   1.082962 S    
O5    V1    2.003921 S    
N11   O26   1.300992 A    
C26   O30   1.380669 S    
N1    N5    1.333287 A    
C64   H30   1.109619 S    
O7    V3    2.004725 S    
C20   C24   1.413955 A    
O8    V4    2.004725 S    
C48   H16   1.082901 S    
C12   H4    1.069685 S    
C21   C25   1.409786 A    
O18   V4    1.793393 S    
C76   H60   1.109447 S    
C63   H27   1.114277 S    
C61   C62   1.521051 S    
N1    C58   1.359423 A    
O36   C75   1.412271 S    
C9    H1    1.069729 S    
N8    C60   1.359272 A    
C49   C53   1.404815 A    
N3    C60   1.359126 A    
C75   C76   1.521103 S    
C24   N12   1.424925 S    
C69   H41   1.110646 S    
O7    C3    1.325903 A    
C2    C55   1.490720 S    
C36   C56   1.406833 A    
O5    C1    1.325947 A    
O30   C63   1.413789 S    
C42   C46   1.408119 A    
C41   C45   1.408996 A    
O8    C4    1.326288 A    
C74   H55   1.111125 S    
C22   C26   1.409789 A    
O9    C5    1.339843 A    
C36   C40   1.405768 A    
C68   H40   1.109623 S    
O11   V3    2.022994 S    
C73   C74   1.521261 S    
C4    C53   1.491681 S    
C14   C18   1.391637 A    
O6    V2    2.003924 S    
C1    C56   1.490719 S    
C71   H46   1.114217 S    
C72   H50   1.109473 S    
C67   H37   1.114270 S    
C12   C16   1.392638 A    
C35   C39   1.405680 A    
N12   O28   1.300993 A    
C40   O36   1.382192 S    
C66   H33   1.109624 S    
C5    C19   1.501249 S    
C70   H45   1.109571 S    
C66   H35   1.109956 S    
C52   C56   1.404896 A    
C6    C20   1.501118 S    
C62   H23   1.109620 S    
N6    C58   1.359357 A    
C8    C18   1.501199 S    
N5    C57   1.359140 A    
C3    O13   1.322057 A    
C61   H22   1.113981 S    
C10   H2    1.069727 S    
N7    C59   1.359246 A    
C40   C44   1.417052 A    
O6    C2    1.325957 A    
N4    C59   1.359153 A    
N3    N7    1.333179 A    
N11   O25   1.301268 A    
C52   H20   1.082976 S    
C25   C29   1.431400 A    
C63   H26   1.113981 S    
C35   C55   1.406815 A    
O12   V4    2.022996 S    
C47   C51   1.399808 A    
C64   H28   1.109952 S    
C27   C31   1.431421 A    
C46   C50   1.399954 A    
C28   C32   1.431438 A    
C9    C13   1.392698 A    
C34   C54   1.407108 A    
O20   V2    1.793811 S    
C68   H38   1.109928 S    
C33   C53   1.406687 A    
C46   H14   1.082969 S    
O32   C67   1.413794 S    
C43   C47   1.408826 A    
O10   C6    1.339841 A    
C76   H58   1.110880 S    
C34   H10   1.083268 S    
N9    O22   1.300995 A    
C15   H7    1.071665 S    
C15   C19   1.391661 A    
C61   H21   1.114276 S    
C17   C21   1.414021 A    
C44   C59   1.494887 S    
C12   C32   1.415791 A    
C73   H52   1.114448 S    
N10   O24   1.300994 A    
N2    N6    1.333365 A    
C42   C57   1.493535 S    
C35   H11   1.083281 S    
C28   O32   1.380653 S    
C49   H17   1.082994 S    
C29   C30   1.538338 S    
C75   H57   1.115291 S    
C76   H59   1.110371 S    
C51   H19   1.082975 S    
C31   C32   1.538357 S    
C24   C28   1.409793 A    
C27   O31   1.380699 S    
C71   C72   1.521005 S    
C9    C29   1.415785 A    
C74   H53   1.109751 S    
C38   C42   1.416440 A    
C4    O14   1.321949 A    
C13   H5    1.071666 S    
C65   H31   1.114298 S    
N2    C57   1.359021 A    
C11   C31   1.415758 A    
C48   C52   1.399786 A    
C51   C55   1.404884 A    
N12   O27   1.301282 A    
O31   C65   1.413805 S    
C39   C43   1.417091 A    
C50   C54   1.405388 A    
C38   O34   1.382107 S    
C45   H13   1.082569 S    
C16   H8    1.071677 S    
C67   H36   1.113986 S    
C62   H24   1.110305 S    
