data_mof_unit_5766.cif
_audit_creation_date              2012-12-10T17:10:22-0500
_audit_creation_method            fapswitch 2.2
_symmetry_space_group_name_H-M    P1
_symmetry_Int_Tables_number       1
_space_group_crystal_system       triclinic
_cell_length_a                    10.775296
_cell_length_b                    13.011788
_cell_length_c                    11.723175
_cell_angle_alpha                 99.045321
_cell_angle_beta                  94.898642
_cell_angle_gamma                 91.815051
_cell_volume                      1615.58913013

loop_
_atom_site_label
_atom_site_type_symbol
_atom_type_description
_atom_site_fract_x
_atom_site_fract_y
_atom_site_fract_z
_atom_type_partial_charge
C1    C     C_R   0.496075 0.299667 0.479295 0.934667
C2    C     C_R   0.503924 0.700332 0.520705 0.934667
C3    C     C_R   0.514421 0.813152 0.531518 -0.207461
C4    C     C_R   0.485579 0.186848 0.468482 -0.207462
C5    C     C_R   0.383377 0.021743 0.378148 0.382099
C6    C     C_R   0.616620 0.978257 0.621854 0.382102
C7    C     C_R   0.395059 0.130958 0.387651 0.221395
C8    C     C_R   0.604939 0.869042 0.612350 0.221393
C9    C     C_R   0.559312 0.137543 0.545631 0.338556
C10   C     C_R   0.440688 0.862457 0.454368 0.338556
C11   C     C_R   0.544534 0.029181 0.542360 -0.132778
C12   C     C_R   0.455465 0.970819 0.457640 -0.132782
C13   C     C_R   0.409582 0.382630 0.022059 -0.294262
C14   C     C_R   0.590418 0.617370 0.977941 -0.294262
C15   C     C_R   0.414323 0.396524 0.143553 -0.023456
C16   C     C_R   0.585677 0.603476 0.856447 -0.023455
C17   C     C_R   0.535404 0.554443 0.156452 0.567456
C18   C     C_R   0.464596 0.445557 0.843548 0.567454
C19   C     C_R   0.531147 0.543709 0.033959 -0.015598
C20   C     C_R   0.468853 0.456291 0.966040 -0.015597
C21   C     C_R   0.262638 0.512149 0.499298 0.834609
C22   C     C_R   0.737362 0.487851 0.500702 0.834609
C23   C     C_R   0.136608 0.610674 0.699032 -0.162473
C24   C     C_R   0.863392 0.389326 0.300967 -0.162473
C25   C     C_R   0.088539 0.622007 0.806259 -0.210564
C26   C     C_R   0.911461 0.377993 0.193741 -0.210565
C27   C     C_R   0.979355 0.566228 0.820236 0.099034
C28   C     C_R   0.020645 0.433772 0.179764 0.099034
C29   C     C_R   0.914242 0.503237 0.722381 0.450931
C30   C     C_R   0.085758 0.496763 0.277619 0.450931
C31   C     C_R   0.951165 0.508647 0.609457 0.004594
C32   C     C_R   0.048835 0.491353 0.390543 0.004594
C33   C     C_R   0.072236 0.548665 0.601033 -0.017450
C34   C     C_R   0.927764 0.451335 0.398966 -0.017450
C35   C     C_R   0.873601 0.473536 0.504923 -0.114027
C36   C     C_R   0.126399 0.526464 0.495076 -0.114027
Cu1   Cu    Cu3+1 0.509250 0.507730 0.615930 0.994413
Cu2   Cu    Cu3+1 0.490750 0.492270 0.384070 0.994415
H1    H     H_    0.359259 0.314364 0.972681 0.204919
H2    H     H_    0.640741 0.685636 0.027319 0.204919
H3    H     H_    0.222965 0.653307 0.692457 0.172425
H4    H     H_    0.777035 0.346693 0.307543 0.172425
H5    H     H_    0.139221 0.671495 0.879440 0.160767
H6    H     H_    0.860779 0.328505 0.120560 0.160767
H7    H     H_    0.631906 0.660790 0.815263 0.194323
H8    H     H_    0.368095 0.339210 0.184737 0.194323
N1    N     N_R   0.523180 0.519350 0.790130 -0.217043
N2    N     N_R   0.476820 0.480650 0.209870 -0.217042
O1    O     O_R   0.506570 0.354460 0.582000 -0.557547
O2    O     O_R   0.493430 0.645540 0.418000 -0.557543
O3    O     O_R   0.490940 0.341410 0.386200 -0.573123
O4    O     O_R   0.509060 0.658590 0.613800 -0.573123
O5    O     O_R   0.327470 0.506520 0.597900 -0.636689
O6    O     O_R   0.672530 0.493480 0.402100 -0.636689
O7    O     O_R   0.311840 0.493460 0.402100 -0.524665
O8    O     O_R   0.688160 0.506540 0.597900 -0.524666
N3    N     N_3   0.066582 0.426138 0.067396 -0.590566
H9    H     H_    0.004291 0.381172 0.004330 0.247951
H10   H     H_    0.148704 0.385767 0.070441 0.217178
N4    N     N_3   0.933418 0.573861 0.932604 -0.590566
H11   H     H_    0.995709 0.618828 0.995670 0.247951
H12   H     H_    0.851296 0.614233 0.929559 0.217178
O9    O     O_3   0.825382 0.427702 0.735336 -0.681948
H13   H     H_    0.816084 0.427436 0.818549 0.343048
O10   O     O_3   0.174618 0.572298 0.264664 -0.681947
H14   H     H_    0.183916 0.572563 0.181451 0.343048
O11   O     O_3   0.352212 0.803243 0.378062 -0.625414
H15   H     H_    0.388854 0.792004 0.302469 0.374166
O12   O     O_3   0.647790 0.196756 0.621936 -0.625412
H16   H     H_    0.611147 0.208000 0.697528 0.374165
O13   O     O_3   0.684387 0.814322 0.677115 -0.744166
H17   H     H_    0.765555 0.853815 0.696177 0.340036
O14   O     O_3   0.315610 0.185678 0.322887 -0.744166
H18   H     H_    0.234443 0.146186 0.303826 0.340036
O15   O     O_3   0.302481 0.964287 0.292028 -0.690922
H19   H     H_    0.298187 0.999358 0.222713 0.327140
O16   O     O_3   0.697514 0.035714 0.707976 -0.690921
H20   H     H_    0.701808 0.000642 0.777290 0.327140
O17   O     O_3   0.400790 0.359091 0.780368 -0.750566
H21   H     H_    0.351906 0.381689 0.714902 0.361007
O18   O     O_3   0.599210 0.640909 0.219632 -0.750565
H22   H     H_    0.648094 0.618311 0.285098 0.361007

loop_
_geom_bond_atom_site_label_1
_geom_bond_atom_site_label_2
_ccdc_geom_bond_type
C30   C32   A    
C29   O9    S    
C27   C29   A    
C24   H4    S    
O14   H18   S    
C19   C20   A    
C17   N2    A    
C18   N1    A    
C25   H5    S    
O18   H22   S    
C26   H6    S    
C22   O6    A    
C21   C36   S    
C28   N3    S    
C22   C35   S    
C32   C36   A    
C24   C26   A    
C27   N4    S    
N3    H10   S    
C33   C36   A    
C18   C20   A    
N4    H12   S    
C34   C35   A    
C2    O2    A    
Cu1   O8    S    
Cu2   O7    S    
C18   O17   S    
C23   C33   A    
C31   C33   A    
C14   C16   A    
Cu1   N1    S    
Cu2   N2    S    
O16   H20   S    
Cu1   O5    S    
C15   N2    A    
C4    C7    A    
C10   C12   A    
C16   N1    A    
O11   H15   S    
C5    C12   A    
C7    O14   S    
C3    C8    A    
C6    C11   A    
C21   O7    A    
Cu1   O4    S    
C6    O16   S    
C6    C8    A    
Cu2   O3    S    
C10   O11   S    
C24   C34   A    
O17   H21   S    
N4    H11   S    
C32   C34   A    
C5    O15   S    
O15   H19   S    
Cu1   Cu2   S    
Cu1   O1    S    
Cu2   O6    S    
C13   C15   A    
C1    O3    A    
C2    O4    A    
C9    C11   A    
C31   C35   A    
C5    C7    A    
C8    O13   S    
C13   C20   A    
C14   C19   A    
C9    O12   S    
C16   H7    S    
C22   O8    A    
C11   C12   A    
Cu2   O2    S    
C25   C27   A    
C26   C28   A    
C23   H3    S    
C1    C4    S    
C28   C30   A    
C2    C3    S    
O13   H17   S    
C29   C31   A    
C3    C10   A    
C21   O5    A    
N3    H9    S    
C17   C19   A    
C17   O18   S    
C23   C25   A    
O12   H16   S    
C13   H1    S    
C30   O10   S    
C14   H2    S    
O9    H13   S    
O10   H14   S    
C15   H8    S    
C4    C9    A    
C1    O1    A    
