data_mof_unit_30398.cif
_audit_creation_date              2012-12-10T20:34:56-0500
_audit_creation_method            fapswitch 2.2
_symmetry_space_group_name_H-M    P1
_symmetry_Int_Tables_number       1
_space_group_crystal_system       triclinic
_cell_length_a                    10.638762
_cell_length_b                    10.618479
_cell_length_c                    9.896973
_cell_angle_alpha                 88.84274
_cell_angle_beta                  90.224183
_cell_angle_gamma                 89.368978
_cell_volume                      1117.73060729

loop_
_atom_site_label
_atom_site_type_symbol
_atom_type_description
_atom_site_fract_x
_atom_site_fract_y
_atom_site_fract_z
_atom_type_partial_charge
C1    C     C_R   0.502802 0.260781 0.500978 0.873134
C2    C     C_3   0.878783 0.500021 0.499664 0.176367
C3    C     C_3   0.927307 0.601326 0.596830 -0.406987
C4    C     C_3   0.927673 0.529869 0.354953 -0.404016
C5    C     C_R   0.610372 0.062608 0.485241 0.093807
C6    C     C_R   0.499179 0.129558 0.500317 -0.055444
C7    C     C_R   0.383636 0.071829 0.480492 -0.231532
C8    C     C_R   0.379257 0.941243 0.471137 -0.022731
C9    C     C_R   0.493139 0.872532 0.490038 -0.176131
C10   C     C_R   0.607196 0.934467 0.482596 0.094272
C11   C     C_3   0.725396 0.919400 0.562831 -0.487111
C12   C     C_R   0.257725 0.500163 0.499772 0.872273
C13   C     C_3   0.729063 0.062214 0.566137 -0.473890
C14   C     C_R   0.515915 0.390782 0.073219 0.179109
C15   C     C_R   0.491122 0.609599 0.069465 -0.117309
C16   C     C_R   0.490267 0.609590 0.925906 -0.129794
C17   C     C_R   0.520547 0.390903 0.931145 0.143590
C18   C     C_3   0.446071 0.272019 0.925451 -0.268877
C19   C     C_3   0.438021 0.273735 0.079785 -0.215310
C20   C     C_R   0.496765 0.739774 0.498074 0.938110
C21   C     C_R   0.742288 0.500053 0.500026 0.824465
C22   C     C_3   0.074113 0.370732 0.551978 -0.406250
C23   C     C_3   0.929615 0.368916 0.546178 -0.391254
C24   C     C_3   0.071048 0.603853 0.594072 -0.379231
C25   C     C_3   0.070262 0.525204 0.354042 -0.387522
C26   C     C_3   0.121281 0.500183 0.499604 0.165879
H1    H     H_    0.106088 0.353114 0.658016 0.184776
H2    H     H_    0.894230 0.625033 0.320473 0.176215
H3    H     H_    0.102521 0.697995 0.559033 0.200245
H4    H     H_    0.889395 0.695241 0.566525 0.154075
H5    H     H_    0.298450 0.128608 0.472022 0.164496
H6    H     H_    0.710633 0.873710 0.663537 0.210340
H7    H     H_    0.802505 0.879532 0.501214 0.192559
H8    H     H_    0.716745 0.101019 0.668470 0.245779
H9    H     H_    0.808874 0.101524 0.507761 0.199186
H10   H     H_    0.482228 0.697966 0.121125 0.169517
H11   H     H_    0.113509 0.293633 0.490174 0.158979
H12   H     H_    0.480289 0.698051 0.870800 0.163602
H13   H     H_    0.355034 0.286140 0.871085 0.159925
H14   H     H_    0.489380 0.195242 0.133053 0.187796
H15   H     H_    0.899171 0.296918 0.473340 0.160435
H16   H     H_    0.891829 0.342168 0.647368 0.184534
H17   H     H_    0.107498 0.588807 0.698832 0.182386
H18   H     H_    0.895629 0.580888 0.702017 0.192660
H19   H     H_    0.105682 0.615593 0.311612 0.229652
H20   H     H_    0.102057 0.449132 0.285973 0.177824
H21   H     H_    0.892155 0.460114 0.281767 0.190921
N1    N     N_R   0.499150 0.499140 0.142800 -0.113901
N2    N     N_R   0.499150 0.499180 0.857150 -0.119800
O1    O     O_R   0.500020 0.316790 0.614690 -0.610631
O2    O     O_R   0.500000 0.316760 0.385350 -0.641874
O3    O     O_R   0.314800 0.500000 0.614670 -0.632170
O4    O     O_R   0.314790 0.499960 0.385330 -0.616618
O5    O     O_R   0.500000 0.683240 0.614650 -0.634512
O6    O     O_R   0.499980 0.683210 0.385310 -0.592212
O7    O     O_R   0.685210 0.500040 0.614670 -0.620775
O8    O     O_R   0.685200 0.500000 0.385330 -0.626141
Zn1   Zn    Zn3+2 0.500010 0.500020 0.653130 0.948438
Zn2   Zn    Zn3+2 0.499990 0.499980 0.346870 0.952970
C27   C     C_2   0.257371 0.882721 0.438687 0.854186
O9    O     O_2   0.254855 0.783202 0.379300 -0.674387
O10   O     O_R   0.144800 0.945450 0.468600 -0.818749
H22   H     H_    0.067935 0.899020 0.436148 0.329047
C28   C     C_2   0.519849 0.159588 0.877736 0.935828
O11   O     O_2   0.631261 0.146670 0.906703 -0.663756
O12   O     O_R   0.458015 0.066973 0.805444 -0.806747
H23   H     H_    0.515233 0.993453 0.782873 0.337893
C29   C     C_3   0.302672 0.291670 0.131278 -0.382208
C30   C     C_3   0.226551 0.171038 0.113555 -0.354711
C31   C     C_3   0.093083 0.185976 0.167141 -0.860786
H24   H     H_    0.095056 0.202519 0.277350 0.259052
H25   H     H_    0.043970 0.265951 0.114672 0.256371
H26   H     H_    0.039811 0.098491 0.149272 0.268015
H27   H     H_    0.221288 0.147338 0.004858 0.246503
H28   H     H_    0.273637 0.091337 0.168927 0.236178
H29   H     H_    0.305621 0.312632 0.240177 0.247200
H30   H     H_    0.255542 0.372120 0.077069 0.204780

loop_
_geom_bond_atom_site_label_1
_geom_bond_atom_site_label_2
_ccdc_geom_bond_type
O6    Zn2   S    
C4    C25   S    
O4    Zn2   S    
C7    C8    A    
C23   H16   S    
C24   C26   S    
C13   H9    S    
O5    Zn1   S    
C5    C6    A    
O8    Zn2   S    
C15   C16   A    
C27   O10   S    
C18   C19   S    
C24   H3    S    
C12   O3    A    
C8    C9    A    
C31   H24   S    
C1    O1    A    
C5    C13   S    
C12   O4    A    
O12   H23   S    
C14   C17   A    
C3    C24   S    
C15   N1    A    
C2    C21   S    
C20   O6    A    
C4    H2    S    
C3    H18   S    
C7    H5    S    
C1    C6    S    
O1    Zn1   S    
C11   H7    S    
C16   N2    A    
C20   O5    A    
C10   C11   S    
C17   N2    A    
C29   C30   S    
C14   N1    A    
C25   C26   S    
C22   H11   S    
N2    Zn1   S    
C19   C29   S    
C12   C26   S    
C27   O9    D    
C28   O12   S    
C3    H4    S    
C2    C4    S    
C18   H13   S    
C21   O8    A    
O10   H22   S    
C9    C20   S    
C31   H26   S    
C17   C18   S    
C30   H27   S    
C1    O2    A    
O3    Zn1   S    
C11   H6    S    
C22   H1    S    
O2    Zn2   S    
C25   H19   S    
C15   H10   S    
N1    Zn2   S    
C9    C10   A    
C29   H30   S    
C14   C19   S    
C21   O7    A    
C6    C7    A    
C29   H29   S    
C23   H15   S    
C28   O11   D    
C2    C3    S    
C13   H8    S    
C8    C27   S    
C11   C13   S    
C18   C28   S    
O7    Zn1   S    
C30   H28   S    
C30   C31   S    
C19   H14   S    
C5    C10   A    
C22   C26   S    
C2    C23   S    
C24   H17   S    
C22   C23   S    
C31   H25   S    
C25   H20   S    
C16   H12   S    
C4    H21   S    
