data_mof_unit_20852.cif
_audit_creation_date              2013-03-05T15:48:19-0500
_audit_creation_method            fapswitch 2.2
_symmetry_space_group_name_H-M    P1
_symmetry_Int_Tables_number       1
_space_group_crystal_system       triclinic
_cell_length_a                    21.14651
_cell_length_b                    7.235704
_cell_length_c                    18.260777
_cell_angle_alpha                 90.008378
_cell_angle_beta                  93.412503
_cell_angle_gamma                 90.006611
_cell_volume                      2789.12508654

loop_
_atom_site_label
_atom_site_type_symbol
_atom_site_description
_atom_site_fract_x
_atom_site_fract_y
_atom_site_fract_z
_atom_type_partial_charge
O1    O     O_R   0.448880 0.506250 0.415280 -0.579577
O2    O     O_R   0.551120 0.006250 0.584720 -0.579502
O3    O     O_R   0.434830 0.174000 0.557310 -0.559759
O4    O     O_R   0.565170 0.674000 0.442690 -0.559738
C1    C     C_R   0.416936 0.344594 0.579600 0.921629
C2    C     C_R   0.583063 0.844593 0.420400 0.921519
O5    O     O_R   0.441680 0.176440 0.414130 -0.575640
O6    O     O_R   0.558320 0.676440 0.585870 -0.575619
O7    O     O_R   0.558020 0.007570 0.440520 -0.563634
O8    O     O_R   0.441980 0.507570 0.559480 -0.563615
C3    C     C_R   0.427989 0.344905 0.388360 0.902033
C4    C     C_R   0.572009 0.844946 0.611638 0.902024
O9    O     O_3   0.538160 0.339670 0.508820 -0.269153
O10   O     O_3   0.461840 0.839670 0.491180 -0.269174
V1    V     V_3+5 0.492920 0.064260 0.498360 1.183601
V2    V     V_3+5 0.507080 0.564260 0.501640 1.183589
C5    C     C_R   0.879683 0.897723 0.686000 0.264377
C6    C     C_R   0.120358 0.399948 0.314067 0.264418
C7    C     C_R   0.887665 0.937540 0.818973 -0.456940
C8    C     C_R   0.112358 0.437783 0.181010 -0.457007
C9    C     C_R   0.584321 0.803883 0.745279 -0.166757
C10   C     C_R   0.415591 0.302434 0.254794 -0.166671
C11   C     C_R   0.620455 0.789288 0.811081 -0.096773
C12   C     C_R   0.379413 0.287218 0.189044 -0.096803
C13   C     C_R   0.685277 0.824962 0.813915 -0.066882
C14   C     C_R   0.314629 0.323413 0.186178 -0.066933
C15   C     C_R   0.715701 0.883703 0.751059 0.148759
C16   C     C_R   0.284297 0.383360 0.248930 0.148704
C17   C     C_R   0.678880 0.888536 0.682915 0.058090
C18   C     C_R   0.321157 0.388884 0.317040 0.058134
C19   C     C_R   0.782643 0.919636 0.752795 -0.087149
C20   C     C_R   0.217392 0.419839 0.247159 -0.087154
C21   C     C_R   0.812817 0.920688 0.685153 -0.214294
C22   C     C_R   0.187252 0.422223 0.314820 -0.214333
C23   C     C_R   0.774996 0.942246 0.618612 0.415665
C24   C     C_R   0.225130 0.444419 0.381290 0.415599
C25   C     C_R   0.709150 0.925918 0.618510 -0.315578
C26   C     C_R   0.290956 0.427471 0.381387 -0.315816
C27   C     C_R   0.820876 0.951521 0.819061 0.283100
C28   C     C_R   0.179161 0.451062 0.180846 0.283100
C29   C     C_R   0.916459 0.901819 0.752951 0.199536
C30   C     C_R   0.083553 0.403394 0.247128 0.199144
C31   C     C_R   0.612601 0.851207 0.680601 -0.140815
C32   C     C_R   0.387395 0.350963 0.319394 -0.140989
H1    H     H_    0.711215 0.795725 0.865186 0.165003
H2    H     H_    0.288638 0.293617 0.134989 0.165154
H3    H     H_    0.598307 0.745278 0.860106 0.135384
H4    H     H_    0.401490 0.242269 0.140099 0.135472
C33   C     C_1   0.864849 0.939012 0.132511 -0.166755
C34   C     C_1   0.135150 0.439012 0.867487 -0.166414
C35   C     C_1   0.822083 0.924981 0.176378 0.130463
C36   C     C_1   0.177915 0.424983 0.823619 0.130567
C37   C     C_1   0.771570 0.905867 0.228563 0.055362
C38   C     C_1   0.228428 0.405870 0.771436 0.055398
C39   C     C_1   0.728992 0.889223 0.272545 0.054695
C40   C     C_1   0.271007 0.389227 0.727453 0.054705
C41   C     C_1   0.678368 0.870069 0.324583 0.123716
C42   C     C_1   0.321631 0.370072 0.675416 0.123673
C43   C     C_1   0.635436 0.855983 0.368235 -0.261594
C44   C     C_1   0.364563 0.355986 0.631764 -0.261559
O11   O     O_R   0.058070 0.289240 0.940580 -0.561586
O12   O     O_R   0.941930 0.789240 0.059420 -0.561537
O13   O     O_R   0.058330 0.616740 0.085880 -0.568709
O14   O     O_R   0.941670 0.116740 0.914120 -0.568477
C45   C     C_R   0.071963 0.448448 0.111803 1.125538
C46   C     C_R   0.928040 0.948407 0.888194 1.125353
O15   O     O_R   0.065180 0.619040 0.942700 -0.559197
O16   O     O_R   0.934820 0.119040 0.057300 -0.559164
O17   O     O_R   0.948870 0.787780 0.915270 -0.586148
O18   O     O_R   0.051130 0.287780 0.084730 -0.586065
C47   C     C_R   0.083027 0.450358 0.919981 0.996068
C48   C     C_R   0.916973 0.950359 0.080017 0.995733
O19   O     O_3   0.961870 0.453310 0.991210 -0.279907
O20   O     O_3   0.038130 0.953310 0.008790 -0.279933
V3    V     V_3+5 0.007070 0.728770 0.001630 1.284144
V4    V     V_3+5 0.992930 0.228770 0.998370 1.284250
N1    N     N_R   0.983553 0.868785 0.753684 0.254746
O21   O     O_R   0.023385 0.988765 0.782869 -0.377094
O22   O     O_R   0.004989 0.717423 0.725721 -0.307534
N2    N     N_R   0.016417 0.371115 0.246516 0.254642
O23   O     O_R   0.976724 0.491017 0.217039 -0.377368
O24   O     O_R   0.994794 0.220608 0.274961 -0.306731
N3    N     N_R   0.801805 0.998291 0.551645 0.260584
O25   O     O_R   0.779818 0.930595 0.489177 -0.349141
O26   O     O_R   0.839358 0.140804 0.551653 -0.286884
N4    N     N_R   0.198420 0.501743 0.448154 0.260573
O27   O     O_R   0.220342 0.434702 0.510752 -0.349101
O28   O     O_R   0.161072 0.644718 0.447869 -0.287373
N5    N     N_R   0.910204 0.853625 0.619978 0.281590
O29   O     O_R   0.892085 0.709857 0.581368 -0.271799
O30   O     O_R   0.959518 0.946852 0.601789 -0.210532
N6    N     N_R   0.089815 0.357309 0.380214 0.281626
O31   O     O_R   0.107739 0.213922 0.419139 -0.271424
O32   O     O_R   0.040665 0.451510 0.398239 -0.210619
N7    N     N_R   0.793092 0.020123 0.883723 0.222263
O33   O     O_R   0.807128 0.946222 0.947591 -0.465518
O34   O     O_R   0.753592 0.158084 0.878764 -0.384292
N8    N     N_R   0.206982 0.518415 0.116013 0.222068
O35   O     O_R   0.192846 0.443636 0.052321 -0.465498
O36   O     O_R   0.246619 0.656107 0.120636 -0.384448
H5    H     H_    0.534166 0.772447 0.744337 0.115941
H6    H     H_    0.465707 0.270488 0.255772 0.115983
H7    H     H_    0.681668 0.941119 0.566897 0.147340
H8    H     H_    0.318477 0.443179 0.432951 0.147657

loop_
_geom_bond_atom_site_label_1
_geom_bond_atom_site_label_2
_geom_bond_distance
_ccdc_geom_bond_type
O13   C45   1.331926 A    
C30   N2    1.438135 S    
C15   C17   1.428498 A    
N7    O33   1.301237 A    
O1    C3    1.331763 A    
O2    C4    1.331696 A    
C2    O7    1.352501 A    
N1    O21   1.301317 A    
O5    C3    1.332353 A    
C23   C25   1.397286 A    
C12   C14   1.392723 A    
C4    C31   1.481906 S    
C6    C30   1.409707 A    
C29   N1    1.438103 S    
C8    C28   1.416072 A    
N4    O28   1.301435 A    
C41   C43   1.247458 T    
C46   O17   1.328031 A    
C42   C44   1.247454 T    
C45   O18   1.328078 A    
C18   C26   1.398486 A    
C7    C46   1.484718 S    
C26   H8    1.083036 S    
C9    C31   1.397839 A    
C10   C32   1.397866 A    
C40   C42   1.479625 S    
C33   C35   1.247427 T    
C33   C48   1.505432 S    
C34   C36   1.247423 T    
C19   C21   1.423643 A    
N5    O30   1.301531 A    
C22   C24   1.422978 A    
O16   C48   1.350145 A    
C9    H5    1.083833 S    
O11   C47   1.342654 A    
N1    O22   1.301234 A    
O6    V2    1.999934 S    
C17   C31   1.425466 A    
C18   C32   1.425493 A    
C5    C21   1.422909 A    
C36   C38   1.479642 S    
C37   C39   1.247533 T    
O11   V4    1.837278 S    
C38   C40   1.247533 T    
C11   H3    1.082666 S    
O20   V3    1.754317 S    
C15   C19   1.437718 A    
C12   H4    1.082668 S    
C8    C45   1.484684 S    
C16   C20   1.437726 A    
C5    N5    1.436796 S    
N2    O24   1.301213 A    
C25   H7    1.083040 S    
C23   N3    1.436630 S    
N4    O27   1.301534 A    
C24   N4    1.436622 S    
C35   C37   1.479649 S    
C20   C22   1.423660 A    
O4    V2    1.858958 S    
C34   C47   1.505427 S    
N3    O25   1.301534 A    
O6    C4    1.332419 A    
N6    O32   1.301527 A    
O14   V4    1.999973 S    
O12   C48   1.342666 A    
C3    C32   1.481950 S    
O1    V2    1.986564 S    
O2    V1    1.986724 S    
C6    C22   1.422953 A    
C27   N7    1.438152 S    
C7    C27   1.416088 A    
O4    C2    1.360463 A    
N3    O26   1.301441 A    
N8    O36   1.301399 A    
C39   C41   1.479631 S    
O18   V4    1.988101 S    
O19   V4    1.754494 S    
C10   C12   1.389070 A    
O12   V3    1.837281 S    
C13   C15   1.414222 A    
C24   C26   1.397286 A    
C13   H1    1.077538 S    
C20   C28   1.433370 A    
O3    V1    1.858943 S    
C1    C44   1.505441 S    
C2    C43   1.505445 S    
N2    O23   1.301333 A    
O3    C1    1.360444 A    
C8    C30   1.406524 A    
N7    O34   1.301396 A    
O16   V4    1.858993 S    
C14   C16   1.414227 A    
C10   H6    1.083839 S    
C6    N6    1.436783 S    
C9    C11   1.389100 A    
O7    V1    1.830863 S    
C16   C18   1.428515 A    
O8    V2    1.830858 S    
C28   N8    1.438150 S    
O13   V3    2.000252 S    
O5    V1    2.000215 S    
N6    O31   1.301367 A    
C21   C23   1.422960 A    
C19   C27   1.433375 A    
O17   V3    1.988265 S    
O15   C47   1.350121 A    
C11   C13   1.392749 A    
C5    C29   1.409672 A    
C14   H2    1.077528 S    
C1    O8    1.352486 A    
O15   V3    1.858979 S    
N8    O35   1.301233 A    
O9    V2    1.755004 S    
C17   C25   1.398501 A    
O10   V1    1.754828 S    
N5    O29   1.301378 A    
C7    C29   1.406546 A    
O14   C46   1.332012 A    
