data_mof_unit_42088.cif
_audit_creation_date              2012-12-10T16:32:36-0500
_audit_creation_method            fapswitch 2.2
_symmetry_space_group_name_H-M    P1
_symmetry_Int_Tables_number       1
_space_group_crystal_system       triclinic
_cell_length_a                    16.877068
_cell_length_b                    16.930061
_cell_length_c                    16.861372
_cell_angle_alpha                 65.270391
_cell_angle_beta                  64.913075
_cell_angle_gamma                 65.428898
_cell_volume                      3793.00657856

loop_
_atom_site_label
_atom_site_type_symbol
_atom_type_description
_atom_site_fract_x
_atom_site_fract_y
_atom_site_fract_z
_atom_type_partial_charge
C1    C     C_R   0.586159 0.047386 0.585567 0.128747
C2    C     C_R   0.824271 0.568998 0.019856 0.967774
C3    C     C_R   0.436561 0.963304 0.179117 0.916866
C4    C     C_R   0.563053 0.037314 0.820932 1.022315
C5    C     C_R   0.564967 0.822062 0.031997 0.982806
C6    C     C_R   0.432444 0.177728 0.972550 0.955621
C7    C     C_R   0.036374 0.563257 0.820911 0.978790
C8    C     C_R   0.964492 0.436405 0.179081 0.934960
C9    C     C_R   0.821085 0.035758 0.563837 0.960105
C10   C     C_R   0.178906 0.963856 0.436398 0.943379
C11   C     C_R   0.537587 0.033832 0.536134 -0.025075
C12   C     C_R   0.414412 0.949690 0.415645 0.135455
C13   C     C_R   0.463516 0.961761 0.465581 -0.025565
C14   C     C_R   0.019315 0.543921 0.542962 -0.108742
C15   C     C_R   0.985938 0.454595 0.455756 -0.101630
C16   C     C_R   0.525962 0.537403 0.053643 -0.046601
C17   C     C_R   0.437340 0.445966 0.021070 -0.039750
C18   C     C_R   0.584121 0.016637 0.449857 0.099843
C19   C     C_R   0.417303 0.978324 0.552077 0.091437
C20   C     C_R   0.092796 0.484458 0.495137 0.145299
C21   C     C_R   0.912466 0.513996 0.503667 0.141451
C22   C     C_R   0.438636 0.581740 0.038393 0.120388
C23   C     C_R   0.037104 0.590316 0.589186 0.136342
C24   C     C_R   0.528704 0.406119 0.025288 0.115518
C25   C     C_R   0.553248 0.970294 0.421944 0.097471
C26   C     C_R   0.447901 0.024975 0.579890 0.096460
C27   C     C_R   0.389332 0.529584 0.042292 0.114880
C28   C     C_R   0.561752 0.443510 0.061105 0.105458
C29   C     C_R   0.076204 0.439994 0.451442 0.122533
C30   C     C_R   0.929065 0.558553 0.547238 0.111808
C31   C     C_R   0.548225 0.044574 0.678264 -0.171988
C32   C     C_R   0.451759 0.954291 0.322415 -0.211451
C33   C     C_R   0.040401 0.679986 0.548101 -0.147924
C34   C     C_R   0.967905 0.408274 0.409626 0.135709
C35   C     C_R   0.963373 0.319005 0.451136 -0.163444
C36   C     C_R   0.680138 0.553507 0.027917 -0.197808
C37   C     C_R   0.321586 0.454061 0.954792 -0.164029
C38   C     C_R   0.321185 0.955725 0.451661 -0.177371
C39   C     C_R   0.679457 0.040896 0.550047 -0.171189
C40   C     C_R   0.421784 0.309313 0.007132 -0.225404
C41   C     C_R   0.546923 0.672148 0.068412 -0.182550
C42   C     C_R   0.963537 0.449831 0.320079 -0.180531
C43   C     C_R   0.041026 0.548848 0.678881 -0.180529
C44   C     C_R   0.593015 0.060583 0.722180 -0.161358
C45   C     C_R   0.583994 0.587455 0.051384 0.143913
C46   C     C_R   0.406636 0.939387 0.277990 -0.181180
C47   C     C_R   0.056489 0.723338 0.593544 -0.146644
C48   C     C_R   0.945314 0.276453 0.406374 -0.172536
C49   C     C_R   0.732382 0.607022 0.015652 -0.182614
C50   C     C_R   0.278469 0.409641 0.937400 -0.151574
C51   C     C_R   0.277328 0.940274 0.406578 -0.186687
C52   C     C_R   0.722747 0.058419 0.594119 -0.175345
C53   C     C_R   0.394129 0.272664 0.965037 -0.198666
C54   C     C_R   0.603297 0.729157 0.034961 -0.194848
C55   C     C_R   0.945171 0.405540 0.277374 -0.182056
C56   C     C_R   0.394058 0.403208 0.993050 0.132286
C57   C     C_R   0.057171 0.593942 0.722459 -0.141781
C58   C     C_R   0.672461 0.085670 0.672336 0.386738
C59   C     C_R   0.327168 0.914212 0.327728 0.390747
C60   C     C_R   0.080956 0.674016 0.673160 0.274202
C61   C     C_R   0.920135 0.326288 0.327367 0.357040
C62   C     C_R   0.696120 0.698619 0.994947 0.386529
C63   C     C_R   0.326300 0.326212 0.922558 0.379758
C64   C     C_R   0.964652 0.178813 0.436553 0.944640
C65   C     C_R   0.035777 0.821167 0.563372 0.953303
C66   C     C_R   0.179301 0.438820 0.959769 0.951404
H1    H     H_    0.488792 0.021042 0.719060 0.201333
H2    H     H_    0.474872 0.696347 0.101642 0.192235
H3    H     H_    0.977766 0.514781 0.283163 0.196659
H4    H     H_    0.027738 0.483447 0.715385 0.185197
H5    H     H_    0.636881 0.246878 0.784281 0.400114
H6    H     H_    0.363316 0.737739 0.236088 0.387513
H7    H     H_    0.017617 0.781236 0.782158 0.354327
H8    H     H_    0.793537 0.383159 0.184634 0.386608
H9    H     H_    0.836062 0.854763 0.892205 0.378217
H10   H     H_    0.233929 0.366014 0.743854 0.392915
H11   H     H_    0.511251 0.977828 0.281877 0.202896
H12   H     H_    0.026705 0.716538 0.482837 0.191718
H13   H     H_    0.977347 0.282209 0.516250 0.195620
H14   H     H_    0.715459 0.487683 0.016867 0.196718
H15   H     H_    0.293853 0.526394 0.944428 0.213486
H16   H     H_    0.280169 0.980963 0.509823 0.199610
H17   H     H_    0.720964 0.013536 0.493347 0.199244
H18   H     H_    0.465771 0.264442 0.049585 0.195325
I1    I     I_    0.341224 0.115326 0.655429 -0.182190
I2    I     I_    0.383754 0.725567 0.984974 -0.206514
I3    I     I_    0.776039 0.534897 0.510049 -0.132949
I4    I     I_    0.229135 0.463223 0.489270 -0.146113
I5    I     I_    0.659033 0.880177 0.345709 -0.224312
I6    I     I_    0.818105 0.647704 0.621341 -0.219011
I7    I     I_    0.187155 0.350995 0.377254 -0.277016
I8    I     I_    0.643774 0.349764 0.148922 -0.179045
I9    I     I_    0.244070 0.569053 0.104379 -0.239691
I10   I     I_    0.334098 0.896504 0.662459 -0.133081
I11   I     I_    0.669836 0.095952 0.339663 -0.153708
I12   I     I_    0.630732 0.306725 0.958548 -0.247083
O1    O     O_R   0.982940 0.138950 0.510160 -0.628114
O2    O     O_R   0.982940 0.510160 0.138950 -0.630886
O3    O     O_R   0.861050 0.017060 0.489840 -0.624595
O4    O     O_R   0.138950 0.982940 0.510160 -0.622457
O5    O     O_R   0.867700 0.025880 0.612340 -0.572019
O6    O     O_R   0.132300 0.974120 0.387660 -0.574530
O7    O     O_R   0.025880 0.612340 0.867700 -0.577870
O8    O     O_R   0.974120 0.387660 0.132300 -0.584950
O9    O     O_R   0.612340 0.867700 0.025880 -0.568214
O10   O     O_R   0.387660 0.132300 0.974120 -0.577213
O11   O     O_R   0.387660 0.974120 0.132300 -0.569725
O12   O     O_R   0.017060 0.861050 0.489840 -0.623976
O13   O     O_R   0.612340 0.025880 0.867700 -0.545104
O14   O     O_R   0.132300 0.387660 0.974120 -0.579808
O15   O     O_R   0.867700 0.612340 0.025880 -0.568502
O16   O     O_R   0.974120 0.132300 0.387660 -0.573755
O17   O     O_R   0.025880 0.867700 0.612340 -0.600353
O18   O     O_2   0.766606 0.088155 0.766083 -0.280360
O19   O     O_2   0.757887 0.210221 0.622505 -0.270802
O20   O     O_3   0.612985 0.216247 0.764284 -0.521196
O21   O     O_2   0.239986 0.791233 0.377884 -0.284179
O22   O     O_2   0.233636 0.911881 0.233055 -0.262253
O23   O     O_R   0.138950 0.510160 0.982940 -0.612182
O24   O     O_3   0.385845 0.782508 0.237425 -0.566040
O25   O     O_2   0.208015 0.623849 0.755398 -0.244124
O26   O     O_2   0.207892 0.757794 0.621169 -0.235334
O27   O     O_3   0.081489 0.774366 0.774261 -0.485202
O28   O     O_2   0.907932 0.236484 0.235350 -0.281377
O29   O     O_2   0.790062 0.245071 0.382177 -0.231948
O30   O     O_3   0.781708 0.390842 0.244066 -0.524661
O31   O     O_2   0.841788 0.716399 0.842985 -0.340512
O32   O     O_2   0.704674 0.845916 0.846124 -0.322893
O33   O     O_3   0.803035 0.814030 0.946370 -0.518264
O34   O     O_R   0.861050 0.489840 0.017060 -0.655266
O35   O     O_2   0.391153 0.245590 0.790278 -0.253414
O36   O     O_2   0.242005 0.234076 0.902763 -0.275753
O37   O     O_3   0.250943 0.388730 0.778076 -0.534552
O38   O     O_R   0.510160 0.982940 0.138950 -0.648011
O39   O     O_R   0.489840 0.017060 0.861050 -0.625903
O40   O     O_R   0.489840 0.861050 0.017060 -0.605482
O41   O     O_R   0.510160 0.138950 0.982940 -0.619264
O42   O     O_R   0.017060 0.489840 0.861050 -0.638298
S1    S     S_3+6 0.706372 0.150546 0.705988 0.080605
S2    S     S_3+6 0.292813 0.849627 0.294200 0.070149
S3    S     S_3+6 0.148095 0.707077 0.705517 0.109779
S4    S     S_3+6 0.849434 0.295925 0.297467 0.092657
S5    S     S_3+6 0.762728 0.770198 0.903347 0.044585
S6    S     S_3+6 0.303251 0.294844 0.847627 0.081092
Zn1   Zn    Zn3+2 0.004880 0.004880 0.583590 1.125207
Zn2   Zn    Zn3+2 0.995120 0.995120 0.416410 1.144752
Zn3   Zn    Zn3+2 0.004880 0.583590 0.004880 1.128870
Zn4   Zn    Zn3+2 0.995120 0.416410 0.995120 1.099725
Zn5   Zn    Zn3+2 0.583590 0.004880 0.004880 1.131509
Zn6   Zn    Zn3+2 0.416410 0.995120 0.995120 1.156288

loop_
_geom_bond_atom_site_label_1
_geom_bond_atom_site_label_2
_ccdc_geom_bond_type
C58   S1    S    
O36   S6    D    
C5    O40   A    
C4    O13   A    
C21   I3    S    
C11   C18   A    
C16   C28   A    
O10   Zn6   S    
C46   C59   A    
C40   H18   S    
C34   C42   A    
C62   S5    S    
C30   I6    S    
O28   S4    D    
O7    Zn3   S    
C5    O9    A    
C31   H1    S    
C18   C25   A    
O5    Zn1   S    
C47   C65   S    
O15   Zn3   S    
C24   I12   S    
C42   C55   A    
O14   Zn4   S    
C33   H12   S    
C48   C64   S    
O2    Zn3   S    
C35   C48   A    
O23   Zn3   S    
C55   C61   A    
C66   O23   A    
C1    C31   A    
C23   C43   A    
C34   C35   A    
O17   Zn1   S    
C19   C26   A    
O8    Zn4   S    
C8    O2    A    
C47   C60   A    
C37   C56   A    
O42   Zn4   S    
C23   C33   A    
C1    C11   S    
C63   S6    S    
O24   S2    S    
O4    Zn1   S    
C15   C34   S    
O20   S1    S    
C39   C52   A    
C32   H11   S    
C9    O3    A    
C7    O7    A    
C12   C32   A    
C18   I11   S    
O11   Zn6   S    
C37   H15   S    
C9    C52   S    
C32   C46   A    
C14   C30   A    
O22   S2    D    
C10   C51   S    
C8    C55   S    
C15   C29   A    
C41   H2    S    
O12   Zn2   S    
C20   C29   A    
C2    O15   A    
C17   C24   A    
C31   C44   A    
C13   C19   A    
O34   Zn4   S    
C17   C27   A    
O25   S3    D    
C5    C54   S    
C10   O6    A    
C36   H14   S    
C44   C58   A    
C1    C39   A    
C57   C60   A    
C38   C51   A    
C54   C62   A    
C11   C26   A    
C40   C56   A    
O38   Zn5   S    
O30   S4    S    
C42   H3    S    
C14   C23   S    
O13   Zn5   S    
C36   C49   A    
C2    C49   S    
C14   C20   A    
C60   S3    S    
C8    O8    A    
O29   S4    D    
O27   S3    S    
C6    O10   A    
C36   C45   A    
C28   I8    S    
O31   S5    D    
O18   S1    D    
C66   O14   A    
C10   O4    A    
C50   C66   S    
C17   C56   S    
C19   I10   S    
C52   C58   A    
C4    O39   A    
C64   O1    A    
O41   Zn5   S    
O3    Zn2   S    
O19   S1    D    
C43   H4    S    
H6    O24   S    
C33   C47   A    
O1    Zn1   S    
C27   I9    S    
O21   S2    D    
C51   C59   A    
C6    C53   S    
C29   I7    S    
O9    Zn5   S    
O37   S6    S    
C16   C22   A    
C49   C62   A    
C65   O12   A    
C65   O17   A    
C24   C28   A    
C13   C25   A    
C16   C45   S    
C7    O42   A    
O40   Zn6   S    
H10   O37   S    
O33   S5    S    
O39   Zn6   S    
C4    C44   S    
C21   C30   A    
C3    C46   S    
C25   I5    S    
C22   C27   A    
C3    O38   A    
C3    O11   A    
C6    O41   A    
C39   H17   S    
O6    Zn2   S    
C37   C50   A    
C53   C63   A    
C48   C61   A    
H8    O30   S    
C59   S2    S    
C26   I1    S    
C20   I4    S    
C35   H13   S    
C2    O34   A    
O16   Zn2   S    
H5    O20   S    
C50   C63   A    
C22   I2    S    
C12   C38   A    
O32   S5    D    
C41   C54   A    
C64   O16   A    
C43   C57   A    
C61   S4    S    
C15   C21   A    
C12   C13   S    
C9    O5    A    
C40   C53   A    
C41   C45   A    
O26   S3    D    
C7    C57   S    
C38   H16   S    
O35   S6    D    
H9    O33   S    
H7    O27   S    
