data_mof_unit_27800.cif
_audit_creation_date              2012-12-10T17:02:02-0500
_audit_creation_method            fapswitch 2.2
_symmetry_space_group_name_H-M    P1
_symmetry_Int_Tables_number       1
_space_group_crystal_system       triclinic
_cell_length_a                    10.870464
_cell_length_b                    11.030871
_cell_length_c                    9.837529
_cell_angle_alpha                 110.334658
_cell_angle_beta                  100.22934
_cell_angle_gamma                 91.040798
_cell_volume                      1084.44170467

loop_
_atom_site_label
_atom_site_type_symbol
_atom_type_description
_atom_site_fract_x
_atom_site_fract_y
_atom_site_fract_z
_atom_type_partial_charge
C1    C     C_R   0.494698 0.254357 0.441757 0.862148
C2    C     C_R   0.084450 0.560187 0.635261 0.064956
C3    C     C_R   0.126675 0.511057 0.499347 -0.145650
C4    C     C_R   0.037557 0.452227 0.366252 -0.027250
C5    C     C_R   0.911630 0.443049 0.370705 -0.210938
C6    C     C_R   0.871972 0.478242 0.505167 -0.124815
C7    C     C_2   0.506014 0.116975 0.412641 -0.314700
C8    C     C_2   0.543427 0.076637 0.525554 -0.182670
C9    C     C_2   0.515746 0.885490 0.590833 -0.221430
C10   C     C_2   0.556549 0.939566 0.501126 -0.033919
C11   C     C_2   0.508373 0.509461 0.078713 -0.080080
C12   C     C_R   0.261950 0.506305 0.500201 0.792304
C13   C     C_2   0.488647 0.488349 0.915006 -0.050102
C14   C     C_R   0.512146 0.745956 0.558664 0.812826
C15   C     C_R   0.737425 0.490129 0.500290 0.811942
C16   C     C_R   0.159973 0.647933 0.766116 -0.191083
C17   C     C_R   0.123691 0.677295 0.902394 -0.034253
C18   C     C_R   0.014562 0.612631 0.911069 -0.062655
C19   C     C_R   0.937698 0.527239 0.780259 -0.055721
C20   C     C_R   0.962362 0.520116 0.640267 0.038866
Cu1   Cu    Cu3+1 0.521920 0.521810 0.644910 0.967197
Cu2   Cu    Cu3+1 0.478080 0.478190 0.355090 0.987965
H1    H     H_    0.487106 0.049201 0.299086 0.181450
H2    H     H_    0.415907 0.416546 0.837810 0.170427
H3    H     H_    0.579447 0.584289 0.152455 0.187314
H4    H     H_    0.624248 0.621984 0.936964 0.213041
H5    H     H_    0.245651 0.697492 0.762720 0.170139
H6    H     H_    0.843661 0.406842 0.267372 0.174297
H7    H     H_    0.559759 0.144514 0.639022 0.198309
N1    N     N_2   0.445130 0.445430 0.137370 -0.242564
N2    N     N_2   0.554930 0.554500 0.862630 -0.283809
O1    O     O_R   0.511700 0.332330 0.577400 -0.573821
O2    O     O_R   0.474680 0.295500 0.332650 -0.578006
O3    O     O_R   0.338160 0.518420 0.622400 -0.585922
O4    O     O_R   0.301140 0.481590 0.377650 -0.571932
O5    O     O_R   0.525320 0.704500 0.667350 -0.571614
O6    O     O_R   0.488300 0.667670 0.422600 -0.570302
O7    O     O_R   0.698860 0.518410 0.622350 -0.580527
O8    O     O_R   0.661840 0.481580 0.377600 -0.584320
C21   C     C_1   0.068407 0.403221 0.221184 0.309838
N3    N     N_1   0.090385 0.363880 0.103615 -0.267360
C22   C     C_1   0.363707 0.339078 0.043197 0.465492
N4    N     N_1   0.296247 0.250472 0.964547 -0.279237
C23   C     C_1   0.204467 0.767321 0.033095 0.271356
N5    N     N_1   0.269276 0.839206 0.137728 -0.274444
C24   C     C_1   0.979952 0.635593 0.053121 0.253698
N6    N     N_1   0.951865 0.654630 0.166382 -0.267824
C25   C     C_1   0.854334 0.428372 0.791594 0.303464
N7    N     N_1   0.788407 0.349338 0.801084 -0.276552
C26   C     C_1   0.622131 0.869004 0.385205 0.308890
N8    N     N_1   0.676025 0.814949 0.293571 -0.301671
C27   C     C_1   0.468025 0.962260 0.720000 0.254724
N9    N     N_1   0.430258 0.022737 0.823533 -0.255471

loop_
_geom_bond_atom_site_label_1
_geom_bond_atom_site_label_2
_ccdc_geom_bond_type
C9    C14   S    
C15   O7    A    
Cu1   O3    S    
C2    C16   A    
C5    H6    S    
Cu1   N2    S    
C9    C10   D    
C19   C20   A    
C16   H5    S    
C17   C18   A    
C2    C20   A    
C17   C23   S    
C1    O2    A    
H4    N2    S    
Cu1   O5    S    
Cu1   Cu2   S    
C23   N5    T    
C12   O4    A    
Cu2   O4    S    
C11   C13   S    
C15   O8    A    
C16   C17   A    
C9    C27   S    
C7    H1    S    
C8    H7    S    
C18   C24   S    
C21   N3    T    
C2    C3    A    
C14   O5    A    
C5    C6    A    
Cu1   O1    S    
C22   N4    T    
C11   H3    S    
C12   O3    A    
C3    C4    A    
C10   C26   S    
C7    C8    D    
C6    C20   A    
C27   N9    T    
C13   H2    S    
C8    C10   S    
C18   C19   A    
C24   N6    T    
Cu2   O2    S    
C19   C25   S    
C25   N7    T    
C3    C12   S    
Cu2   N1    S    
C26   N8    T    
C6    C15   S    
C1    C7    S    
Cu2   O6    S    
Cu2   O8    S    
C13   N2    D    
C1    O1    A    
N1    C22   S    
Cu1   O7    S    
C4    C21   S    
C11   N1    D    
C4    C5    A    
C14   O6    A    
