data_mof_unit_38583.cif
_audit_creation_date              2012-12-10T17:02:58-0500
_audit_creation_method            fapswitch 2.2
_symmetry_space_group_name_H-M    P1
_symmetry_Int_Tables_number       1
_space_group_crystal_system       triclinic
_cell_length_a                    9.83158
_cell_length_b                    11.046764
_cell_length_c                    13.430466
_cell_angle_alpha                 94.10727
_cell_angle_beta                  81.812132
_cell_angle_gamma                 111.450616
_cell_volume                      1343.46753663

loop_
_atom_site_label
_atom_site_type_symbol
_atom_type_description
_atom_site_fract_x
_atom_site_fract_y
_atom_site_fract_z
_atom_type_partial_charge
C1    C     C_R   0.556592 0.745517 0.507440 0.858205
C2    C     C_R   0.437571 0.500761 0.972020 0.070627
C3    C     C_R   0.476641 0.541595 0.870894 0.068158
C4    C     C_R   0.547666 0.542281 0.038423 0.076559
C5    C     C_R   0.689445 0.635358 0.006570 0.102840
C6    C     C_R   0.718390 0.688498 0.910333 -0.059223
C7    C     C_R   0.613419 0.641242 0.843747 -0.225383
C8    C     C_R   0.520848 0.493619 0.135977 -0.218670
C9    C     C_R   0.765991 0.628888 0.170238 -0.188243
C10   C     C_R   0.375888 0.484074 0.799872 -0.109412
C11   C     C_2   0.588368 0.884831 0.511799 -0.347334
C12   C     C_R   0.423535 0.492872 0.690683 0.792956
C13   C     C_2   0.483786 0.930387 0.499422 -0.137946
C14   C     C_2   0.411065 0.115062 0.489466 -0.339919
C15   C     C_2   0.515137 0.069430 0.502969 -0.146043
C16   C     C_2   0.922021 0.485983 0.496882 -0.089820
C17   C     C_2   0.079350 0.509073 0.510432 -0.068067
C18   C     C_R   0.443236 0.254452 0.492955 0.870280
C19   C     C_R   0.577874 0.513911 0.309773 0.795163
C20   C     C_R   0.798055 0.675204 0.072762 -0.174687
C21   C     C_R   0.625791 0.540904 0.202859 -0.047738
C22   C     C_R   0.230732 0.404648 0.833087 -0.216273
C23   C     C_R   0.186803 0.376182 0.934387 0.035692
C24   C     C_R   0.289277 0.421314 0.003031 -0.217536
Cu1   Cu    Cu3+1 0.362000 0.479240 0.482530 0.945726
Cu2   Cu    Cu3+1 0.638000 0.520760 0.517470 0.954739
H1    H     H_    0.301713 0.049321 0.475848 0.157010
H2    H     H_    0.131787 0.577367 0.567886 0.171323
H3    H     H_    0.103804 0.383314 0.401878 0.193493
H4    H     H_    0.907197 0.745082 0.050657 0.149968
H5    H     H_    0.417796 0.419726 0.163241 0.141593
H6    H     H_    0.248438 0.395685 0.080410 0.130068
H7    H     H_    0.638160 0.686843 0.771347 0.168140
N1    N     N_2   0.845330 0.551960 0.543750 -0.227590
N2    N     N_2   0.154690 0.448120 0.456210 -0.289843
O1    O     O_R   0.426290 0.668220 0.490680 -0.576959
O2    O     O_R   0.659360 0.703290 0.520190 -0.585186
O3    O     O_R   0.326580 0.473880 0.629020 -0.577927
O4    O     O_R   0.559660 0.508940 0.658530 -0.575239
O5    O     O_R   0.340640 0.296710 0.479810 -0.571155
O6    O     O_R   0.573710 0.331780 0.509320 -0.581769
O7    O     O_R   0.440340 0.491060 0.341470 -0.573870
O8    O     O_R   0.673420 0.526120 0.370980 -0.585942
H8    H     H_    0.848362 0.666739 0.221444 0.155049
H9    H     H_    0.374039 0.864892 0.486262 0.185335
H10   H     H_    0.697888 0.950576 0.525042 0.155680
H11   H     H_    0.868524 0.407505 0.446092 0.153348
C25   C     C_1   0.917272 0.664262 0.597538 0.415434
N3    N     N_1   0.977364 0.757956 0.641781 -0.329164
C26   C     C_1   0.853970 0.794182 0.878598 0.254762
N4    N     N_1   0.962326 0.879178 0.853818 -0.253435
H12   H     H_    0.152196 0.361857 0.779685 0.164091
C27   C     C_1   0.036640 0.295912 0.967621 0.240748
N5    N     N_1   0.916044 0.231468 0.994310 -0.272803
H13   H     H_    0.624695 0.134898 0.516546 0.180188

loop_
_geom_bond_atom_site_label_1
_geom_bond_atom_site_label_2
_ccdc_geom_bond_type
Cu1   O7    S    
C2    C4    A    
C23   C24   A    
C24   H6    S    
Cu2   O2    S    
C23   C27   S    
C6    C7    A    
Cu1   O3    S    
C11   C13   D    
C14   C18   S    
C9    C20   A    
C1    C11   S    
C19   O7    A    
C1    O2    A    
C4    C8    A    
C16   N1    D    
C12   O4    A    
C8    C21   A    
C3    C10   A    
C20   H4    S    
C27   N5    T    
C6    C26   S    
C2    C24   A    
C7    H7    S    
C9    C21   A    
C10   C12   S    
Cu1   N2    S    
C16   H11   S    
C25   N3    T    
C19   C21   S    
C19   O8    A    
Cu2   O8    S    
C2    C3    A    
C3    C7    A    
C13   C15   S    
Cu1   O5    S    
C12   O3    A    
C5    C6    A    
C14   H1    S    
Cu2   O4    S    
N1    C25   S    
Cu2   O6    S    
Cu1   O1    S    
C13   H9    S    
C22   H12   S    
C18   O6    A    
C5    C20   A    
H3    N2    S    
C14   C15   D    
C16   C17   S    
C9    H8    S    
C18   O5    A    
C17   N2    D    
C26   N4    T    
Cu1   Cu2   S    
C22   C23   A    
C17   H2    S    
Cu2   N1    S    
C10   C22   A    
C8    H5    S    
C1    O1    A    
C4    C5    A    
C11   H10   S    
C15   H13   S    
