data_mof_unit_43215.cif
_audit_creation_date              2013-03-05T16:48:41-0500
_audit_creation_method            fapswitch 2.2
_symmetry_space_group_name_H-M    P1
_symmetry_Int_Tables_number       1
_space_group_crystal_system       triclinic
_cell_length_a                    27.684716
_cell_length_b                    8.911244
_cell_length_c                    8.087328
_cell_angle_alpha                 89.760028
_cell_angle_beta                  90.07546
_cell_angle_gamma                 89.849279
_cell_volume                      1995.16018934

loop_
_atom_site_label
_atom_site_type_symbol
_atom_site_description
_atom_site_fract_x
_atom_site_fract_y
_atom_site_fract_z
_atom_type_partial_charge
O1    O     O_R   0.500000 0.285350 0.636850 -0.616306
O2    O     O_R   0.500000 0.714650 0.363150 -0.619331
O3    O     O_R   0.500000 0.714650 0.636850 -0.613726
O4    O     O_R   0.500000 0.285350 0.363150 -0.607198
C1    C     C_R   0.499828 0.217959 0.500222 0.936488
C2    C     C_R   0.499967 0.782043 0.499772 0.921531
O5    O     O_R   0.428760 0.500000 0.636860 -0.623182
O6    O     O_R   0.571240 0.500000 0.363140 -0.587554
O7    O     O_R   0.571240 0.500000 0.636860 -0.634953
O8    O     O_R   0.428760 0.500000 0.363140 -0.620361
C3    C     C_R   0.405767 0.503147 0.499553 0.877914
C4    C     C_R   0.594369 0.497905 0.500002 0.914583
Zn1   Zn    Zn3+2 0.500000 0.500000 0.682780 0.971122
Zn2   Zn    Zn3+2 0.500000 0.500000 0.317220 0.984253
C5    C     C_R   0.179407 0.400331 0.390944 0.583717
C6    C     C_R   0.820822 0.618123 0.401513 0.594192
C7    C     C_R   0.174365 0.655618 0.478687 0.597333
C8    C     C_R   0.825771 0.355968 0.463145 0.598667
O9    O     O_2   0.206716 0.280455 0.349792 -0.519630
O10   O     O_2   0.793493 0.741621 0.375027 -0.521594
O11   O     O_2   0.196299 0.779465 0.537749 -0.522728
O12   O     O_2   0.803585 0.227139 0.507096 -0.526880
N1    N     N_R   0.200874 0.529409 0.445158 -0.322529
N2    N     N_R   0.799396 0.484814 0.442341 -0.321778
C9    C     C_R   0.281091 0.623607 0.366150 -0.022030
C10   C     C_R   0.719354 0.401889 0.350131 -0.041859
C11   C     C_R   0.273569 0.436980 0.589083 -0.017979
C12   C     C_R   0.726912 0.557680 0.598993 -0.038957
C13   C     C_R   0.331590 0.621008 0.384322 0.090426
C14   C     C_R   0.668989 0.398251 0.371492 0.081934
C15   C     C_R   0.324199 0.426018 0.599313 0.085924
C16   C     C_R   0.676252 0.565922 0.610766 0.056018
C17   C     C_R   0.252313 0.531218 0.468040 0.080580
C18   C     C_R   0.748041 0.480700 0.464618 0.104751
C19   C     C_R   0.101446 0.521447 0.409106 -0.043618
C20   C     C_R   0.898779 0.495423 0.407723 -0.046696
C21   C     C_R   0.129129 0.391475 0.380761 -0.023861
C22   C     C_R   0.871080 0.627145 0.389658 -0.026283
C23   C     C_R   0.124457 0.656390 0.452006 -0.022315
C24   C     C_R   0.875771 0.357704 0.439626 -0.022774
C25   C     C_R   0.106081 0.255885 0.344904 -0.131537
C26   C     C_R   0.894116 0.764447 0.361830 -0.127362
C27   C     C_R   0.097134 0.787548 0.470401 -0.134254
C28   C     C_R   0.903197 0.226040 0.451059 -0.130918
C29   C     C_R   0.353085 0.517365 0.495951 -0.184025
C30   C     C_R   0.647325 0.485827 0.496906 -0.147896
H1    H     H_    0.126651 0.154947 0.319726 0.195663
H2    H     H_    0.873519 0.866590 0.342890 0.195264
H3    H     H_    0.114063 0.892783 0.503313 0.189992
H4    H     H_    0.886351 0.119061 0.477447 0.186346
C31   C     C_R   0.976931 0.367372 0.399942 0.049208
C32   C     C_R   0.023354 0.649998 0.408408 0.049255
C33   C     C_R   0.972710 0.643289 0.388773 0.048254
C34   C     C_R   0.027542 0.375059 0.380868 0.048015
C35   C     C_R   0.949593 0.501921 0.397386 0.075696
C36   C     C_R   0.050657 0.515709 0.398027 0.075898
C37   C     C_R   0.952926 0.230304 0.428748 -0.212397
C38   C     C_R   0.047453 0.785288 0.445265 -0.214155
C39   C     C_R   0.944228 0.772915 0.363835 -0.217167
C40   C     C_R   0.055989 0.246914 0.348171 -0.218649
H5    H     H_    0.972265 0.126055 0.444139 0.130276
H6    H     H_    0.028276 0.889274 0.464706 0.134086
H7    H     H_    0.960069 0.881419 0.341086 0.136265
H8    H     H_    0.040175 0.139314 0.320400 0.139995
C41   C     C_1   0.499874 0.065214 0.500311 -0.201349
C42   C     C_1   0.499932 0.934777 0.499662 -0.199210
N3    N     N_1   0.500000 0.500000 0.073640 -0.042585
N4    N     N_1   0.500000 0.500000 0.926360 -0.042863
N5    N     N_2   0.345550 0.317468 0.707632 -0.262209
H9    H     H_    0.375923 0.264416 0.662647 0.234475
C43   C     C_3   0.350231 0.363569 0.878242 -0.650735
H10   H     H_    0.376788 0.455729 0.888525 0.227433
H11   H     H_    0.363043 0.267278 0.954166 0.244376
H12   H     H_    0.314987 0.401801 0.928351 0.244067
N6    N     N_2   0.655116 0.655517 0.737292 -0.275108
H13   H     H_    0.631787 0.600191 0.815492 0.250574
C44   C     C_3   0.638586 0.802341 0.684322 -0.624895
H14   H     H_    0.607446 0.792465 0.598547 0.196101
H15   H     H_    0.668205 0.864054 0.621391 0.267422
H16   H     H_    0.627078 0.868086 0.793777 0.236103
N7    N     N_2   0.360216 0.730057 0.298909 -0.265427
H17   H     H_    0.390094 0.768296 0.362120 0.228759
C45   C     C_3   0.369260 0.703244 0.125087 -0.657007
H18   H     H_    0.382646 0.808132 0.066666 0.240776
H19   H     H_    0.335951 0.668486 0.059396 0.229450
H20   H     H_    0.397182 0.615325 0.109497 0.234103
N8    N     N_2   0.639362 0.310495 0.264458 -0.279404
H21   H     H_    0.649850 0.306588 0.142321 0.243535
C46   C     C_3   0.625266 0.166340 0.331682 -0.660366
H22   H     H_    0.657356 0.092522 0.347098 0.269110
H23   H     H_    0.599368 0.111538 0.246296 0.230825
H24   H     H_    0.607346 0.180360 0.453450 0.209699
C47   C     C_2   0.242340 0.347938 0.702610 0.979315
O13   O     O_2   0.252229 0.217109 0.734443 -0.540168
O14   O     O_R   0.201395 0.414205 0.772707 -0.800916
H25   H     H_    0.183002 0.342704 0.847236 0.358246
C48   C     C_2   0.758239 0.627823 0.727762 1.001016
O15   O     O_2   0.746391 0.745762 0.793140 -0.554366
O16   O     O_R   0.801572 0.558466 0.774348 -0.814412
H26   H     H_    0.819752 0.616893 0.861791 0.364376
C49   C     C_2   0.258022 0.722723 0.240161 0.971622
O17   O     O_2   0.269871 0.854485 0.228690 -0.537126
O18   O     O_R   0.222687 0.664871 0.134581 -0.805179
H27   H     H_    0.209621 0.742909 0.054544 0.367053
C50   C     C_2   0.742588 0.324969 0.207788 0.938195
O19   O     O_2   0.732730 0.194517 0.176230 -0.580635
O20   O     O_R   0.776628 0.401377 0.111895 -0.796626
H28   H     H_    0.790526 0.336649 0.020709 0.372791

loop_
_geom_bond_atom_site_label_1
_geom_bond_atom_site_label_2
_geom_bond_distance
_ccdc_geom_bond_type
C12   C48   1.494437 S    
C38   H6    1.078945 S    
O5    Zn1   2.006438 S    
N8    H21   1.030617 S    
C47   O13   1.223132 D    
O14   H25   1.013835 S    
O3    C2    1.258595 A    
C16   N6    1.425777 S    
N7    H17   1.031264 S    
C33   C39   1.410522 A    
C34   C40   1.411561 A    
C44   H14   1.109730 S    
C11   C17   1.413787 A    
C5    O9    1.350145 S    
C50   O20   1.397849 S    
C7    N1    1.369585 A    
C2    C42   1.361045 S    
O1    C1    1.259822 A    
C19   C21   1.406902 A    
C22   C26   1.398777 A    
C48   O15   1.222709 D    
C7    C23   1.398148 A    
N5    C43   1.447038 S    
O7    Zn1   2.007397 S    
C5    C21   1.396716 A    
C8    C24   1.397617 A    
C27   C38   1.390281 A    
N7    C45   1.448920 S    
C10   C18   1.409863 A    
C12   C16   1.407609 A    
C45   H18   1.110313 S    
N1    C17   1.435952 S    
Zn2   N3    1.969911 S    
C31   C37   1.410721 A    
C46   H23   1.110297 S    
O3    Zn1   1.947003 S    
C6    O10   1.350056 S    
C33   C35   1.416005 A    
C12   C18   1.414057 A    
C6    N2    1.368585 A    
C21   C25   1.399164 A    
O2    C2    1.259781 A    
C10   C50   1.488298 S    
C48   O16   1.398586 S    
O5    C3    1.279401 A    
C44   H15   1.111288 S    
C9    C13   1.405692 A    
C34   C36   1.416024 A    
C11   C15   1.407127 A    
N3    N4    1.191101 T    
C49   O17   1.223137 D    
C20   C24   1.407239 A    
C4    C30   1.469997 S    
O8    Zn2   2.007399 S    
C43   H11   1.110189 S    
C27   H3    1.083523 S    
C23   C27   1.399104 A    
N2    C18   1.433893 S    
C13   C29   1.418046 A    
C19   C23   1.406834 A    
N6    H13   1.029723 S    
C13   N7    1.431561 S    
O16   H26   1.013920 S    
C15   N5    1.428647 S    
C28   C37   1.389352 A    
O6    C4    1.278033 A    
C25   H1    1.083504 S    
C26   H2    1.083049 S    
C46   H24   1.110630 S    
N6    C44   1.447913 S    
C32   C38   1.412157 A    
C1    C41   1.361143 S    
C45   H19   1.109101 S    
C10   C14   1.405670 A    
N8    C46   1.447558 S    
C8    N2    1.368733 A    
C3    C29   1.463886 S    
O1    Zn1   1.950058 S    
O20   H28   1.013765 S    
C32   C33   1.412262 A    
C49   O18   1.398543 S    
C44   H16   1.110144 S    
C28   H4    1.082934 S    
O6    Zn2   2.006435 S    
C19   C36   1.409902 A    
C8    O12   1.349980 S    
C16   C30   1.416065 A    
C14   C30   1.415363 A    
C25   C40   1.389575 A    
O4    C1    1.258567 A    
C26   C39   1.389657 A    
C43   H12   1.110299 S    
C37   H5    1.077684 S    
C50   O19   1.222698 D    
C39   H7    1.077977 S    
C40   H8    1.079479 S    
C31   C34   1.411638 A    
C20   C22   1.407385 A    
C46   H22   1.110614 S    
C43   H10   1.107028 S    
C20   C35   1.410695 A    
C9    C49   1.487942 S    
C5    N1    1.369537 A    
C31   C35   1.416274 A    
O4    Zn2   1.947004 S    
N5    H9    1.031046 S    
O2    Zn2   1.950057 S    
O7    C4    1.279593 A    
C7    O11   1.349833 S    
C11   C47   1.489841 S    
O8    C3    1.274788 A    
C24   C28   1.398523 A    
C45   H20   1.106884 S    
C47   O14   1.398568 S    
C41   C42   1.162389 T    
C15   C29   1.414354 A    
C9    C17   1.411049 A    
O18   H27   1.013773 S    
C14   N8    1.428557 S    
C32   C36   1.416574 A    
C6    C22   1.397320 A    
Zn1   N4    1.969911 S    
