data_mof_unit_42209.cif
_audit_creation_date              2012-12-10T18:58:11-0500
_audit_creation_method            fapswitch 2.2
_symmetry_space_group_name_H-M    P1
_symmetry_Int_Tables_number       1
_space_group_crystal_system       triclinic
_cell_length_a                    11.056966
_cell_length_b                    10.798734
_cell_length_c                    9.571514
_cell_angle_alpha                 89.696976
_cell_angle_beta                  103.252284
_cell_angle_gamma                 90.288421
_cell_volume                      1112.39248534

loop_
_atom_site_label
_atom_site_type_symbol
_atom_type_description
_atom_site_fract_x
_atom_site_fract_y
_atom_site_fract_z
_atom_type_partial_charge
C1    C     C_R   0.501459 0.262533 0.500843 0.793574
C2    C     C_R   0.510613 0.129451 0.505778 -0.087084
C3    C     C_R   0.568295 0.065709 0.411455 -0.224751
C4    C     C_R   0.569171 0.936498 0.412392 -0.207798
C5    C     C_R   0.509880 0.871018 0.504956 -0.085912
C6    C     C_R   0.466925 0.935783 0.609609 0.091015
C7    C     C_3   0.342861 0.929586 0.646828 -0.473367
C8    C     C_3   0.344635 0.070052 0.648769 -0.471181
C9    C     C_R   0.574855 0.579040 0.092232 0.241888
C10   C     C_R   0.432424 0.415742 0.056951 -0.093684
C11   C     C_R   0.431459 0.416511 0.907948 -0.075163
C12   C     C_R   0.262714 0.498481 0.441165 0.858596
C13   C     C_R   0.579297 0.575579 0.946574 0.227763
C14   C     C_3   0.590335 0.713267 0.937280 -0.293258
C15   C     C_3   0.578281 0.718359 0.092821 -0.009734
C16   C     C_R   0.501363 0.737607 0.500378 0.799751
C17   C     C_R   0.737624 0.500220 0.559002 0.772025
C18   C     C_2   0.127315 0.496453 0.407409 -0.378036
C19   C     C_2   0.068332 0.483252 0.513745 -0.147250
C20   C     C_2   0.873997 0.500979 0.593958 0.074349
C21   C     C_2   0.933372 0.490381 0.486507 -0.166573
C22   C     C_R   0.467967 0.063302 0.610486 0.135209
Cu1   Cu    Cu3+1 0.499990 0.499980 0.640670 0.937889
Cu2   Cu    Cu3+1 0.500010 0.500020 0.359330 0.944190
H1    H     H_    0.881586 0.485832 0.375370 0.162670
H2    H     H_    0.352137 0.109146 0.757655 0.190682
H3    H     H_    0.375493 0.349314 0.097864 0.144667
H4    H     H_    0.373483 0.350960 0.837414 0.137953
H5    H     H_    0.512564 0.757346 0.859982 0.162244
H6    H     H_    0.661930 0.754663 0.169451 0.145529
H7    H     H_    0.120615 0.469354 0.623479 0.211547
H8    H     H_    0.076033 0.508351 0.296868 0.167596
H9    H     H_    0.609696 0.115283 0.335319 0.160357
H10   H     H_    0.613474 0.888419 0.339237 0.157122
H11   H     H_    0.269352 0.890144 0.558895 0.200700
H12   H     H_    0.347511 0.888439 0.754450 0.193475
H13   H     H_    0.271729 0.112579 0.562470 0.194188
N1    N     N_R   0.500780 0.500930 0.148120 -0.190994
N2    N     N_R   0.500790 0.500890 0.852210 -0.199959
O1    O     O_R   0.500000 0.319640 0.618810 -0.580807
O2    O     O_R   0.500010 0.319680 0.381230 -0.586461
O3    O     O_R   0.320680 0.500000 0.575130 -0.582886
O4    O     O_R   0.320690 0.500040 0.337550 -0.585514
O5    O     O_R   0.499990 0.680320 0.618770 -0.601375
O6    O     O_R   0.500000 0.680360 0.381190 -0.546106
O7    O     O_R   0.679310 0.499960 0.662450 -0.571273
O8    O     O_R   0.679320 0.500000 0.424870 -0.596415
C23   C     C_2   0.715292 0.753714 0.915792 0.345581
H14   H     H_    0.720023 0.815406 0.827336 0.073871
O9    O     O_2   0.811403 0.717639 0.995594 -0.575381
N3    N     N_2   0.464677 0.781082 0.107086 -0.399565
H15   H     H_    0.469945 0.875662 0.093876 0.244569
C24   C     C_3   0.342830 0.730677 0.041677 -0.616330
H16   H     H_    0.320879 0.651289 0.105227 0.263698
H17   H     H_    0.336329 0.701941 0.929171 0.203009
H18   H     H_    0.270822 0.802034 0.041563 0.201351
N4    N     N_2   0.941144 0.512401 0.739950 -0.436996
H19   H     H_    0.895142 0.476628 0.813541 0.277040
C25   C     C_3   0.990041 0.635302 0.778796 -0.625459
H20   H     H_    0.040654 0.635941 0.893328 0.237554
H21   H     H_    0.913207 0.703492 0.762828 0.234576
H22   H     H_    0.056041 0.663803 0.712896 0.223082

loop_
_geom_bond_atom_site_label_1
_geom_bond_atom_site_label_2
_ccdc_geom_bond_type
C16   O6    A    
C2    C22   A    
C8    C22   S    
Cu1   Cu2   S    
C6    C7    S    
C15   N3    S    
C8    H2    S    
C7    H12   S    
C16   O5    A    
Cu1   O1    S    
Cu2   N1    S    
C10   H3    S    
C10   N1    A    
C19   H7    S    
C23   O9    D    
C2    C3    A    
C9    C15   S    
C7    C8    S    
C5    C16   S    
Cu1   O7    S    
C13   C14   S    
C17   O7    A    
C11   N2    A    
Cu2   O2    S    
N4    H19   S    
Cu1   O3    S    
C11   H4    S    
Cu1   N2    S    
Cu2   O6    S    
C1    O2    A    
C9    N1    A    
C19   C21   S    
C18   C19   D    
C12   O4    A    
C24   H17   S    
C5    C6    A    
C9    C13   A    
C4    H10   S    
C13   N2    A    
N4    C25   S    
C10   C11   A    
C3    H9    S    
C14   H5    S    
C12   O3    A    
N3    H15   S    
C6    C22   A    
C25   H20   S    
C17   C20   S    
C18   H8    S    
C20   C21   D    
C3    C4    A    
C15   H6    S    
C1    C2    S    
C8    H13   S    
C24   H18   S    
C12   C18   S    
Cu2   O4    S    
C21   H1    S    
C14   C15   S    
C23   H14   S    
C25   H22   S    
C14   C23   S    
C1    O1    A    
N3    C24   S    
C20   N4    S    
C24   H16   S    
Cu2   O8    S    
C7    H11   S    
Cu1   O5    S    
C17   O8    A    
C4    C5    A    
C25   H21   S    
