data_mof_unit_57202.cif
_audit_creation_date              2012-12-10T20:44:03-0500
_audit_creation_method            fapswitch 2.2
_symmetry_space_group_name_H-M    P1
_symmetry_Int_Tables_number       1
_space_group_crystal_system       triclinic
_cell_length_a                    17.503676
_cell_length_b                    10.750939
_cell_length_c                    9.891482
_cell_angle_alpha                 91.072775
_cell_angle_beta                  89.994475
_cell_angle_gamma                 90.306074
_cell_volume                      1861.03569249

loop_
_atom_site_label
_atom_site_type_symbol
_atom_type_description
_atom_site_fract_x
_atom_site_fract_y
_atom_site_fract_z
_atom_type_partial_charge
C1    C     C_R   0.501305 0.260113 0.498428 0.938107
C2    C     C_R   0.886139 0.521968 0.505166 -0.033018
C3    C     C_1   0.966761 0.523608 0.497650 0.071114
C4    C     C_1   0.034408 0.523334 0.492143 -0.022742
C5    C     C_R   0.157048 0.611863 0.561561 0.194817
C6    C     C_R   0.236096 0.602604 0.564752 -0.237656
C7    C     C_R   0.272320 0.504744 0.497374 -0.073817
C8    C     C_R   0.231011 0.417317 0.420999 -0.256675
C9    C     C_R   0.151751 0.424947 0.415529 0.227270
C10   C     C_R   0.115002 0.521076 0.488440 0.032426
C11   C     C_R   0.499424 0.066945 0.617599 -0.067774
C12   C     C_R   0.354048 0.499122 0.499657 0.912857
C13   C     C_R   0.508952 0.128149 0.496291 -0.086037
C14   C     C_R   0.530238 0.059648 0.378823 0.169169
C15   C     C_R   0.532804 0.930701 0.384794 -0.206195
C16   C     C_R   0.511317 0.870972 0.503753 -0.125530
C17   C     C_R   0.501874 0.940545 0.622628 0.019134
C18   C     C_3   0.446151 0.938112 0.739421 0.347652
C19   C     C_3   0.441007 0.080760 0.727482 0.127802
C20   C     C_R   0.453469 0.420517 0.069933 0.159499
C21   C     C_R   0.551911 0.567688 0.073994 -0.178554
C22   C     C_R   0.552630 0.566842 0.930500 0.422036
C23   C     C_R   0.501529 0.739750 0.501317 0.924577
C24   C     C_R   0.452367 0.422090 0.927821 0.053527
C25   C     C_3   0.366492 0.417043 0.927238 0.026304
C26   C     C_3   0.368973 0.411661 0.080993 -0.552664
C27   C     C_R   0.646043 0.501381 0.499960 1.005554
C28   C     C_R   0.849767 0.424625 0.573168 0.150553
C29   C     C_R   0.769782 0.415958 0.569058 0.097152
C30   C     C_R   0.728383 0.507039 0.500053 -0.192691
C31   C     C_R   0.765279 0.606216 0.435578 0.277013
C32   C     C_R   0.844940 0.613760 0.438199 0.133391
H1    H     H_    0.545693 0.877950 0.293177 0.189334
H2    H     H_    0.462576 0.135076 0.816066 0.114154
H3    H     H_    0.592715 0.624322 0.130017 0.212712
H4    H     H_    0.343383 0.331532 0.876964 0.205400
H5    H     H_    0.343897 0.493760 0.134260 0.228380
H6    H     H_    0.349714 0.320549 0.119930 0.181814
H7    H     H_    0.269609 0.671506 0.619652 0.172449
H8    H     H_    0.260366 0.343454 0.366257 0.155539
N1    N     N_R   0.499490 0.499140 0.142800 -0.120277
N2    N     N_R   0.499490 0.499180 0.857150 -0.138993
O1    O     O_R   0.500010 0.316790 0.614690 -0.607512
O2    O     O_R   0.500000 0.316760 0.385350 -0.601428
O3    O     O_R   0.389120 0.500020 0.614710 -0.576927
O4    O     O_R   0.389110 0.499990 0.385370 -0.637655
O5    O     O_R   0.500000 0.683240 0.614650 -0.567174
O6    O     O_R   0.499990 0.683210 0.385310 -0.626536
O7    O     O_R   0.610890 0.500010 0.614630 -0.552486
O8    O     O_R   0.610880 0.499980 0.385290 -0.605699
Zn1   Zn    Zn3+2 0.500010 0.500020 0.653130 1.038798
Zn2   Zn    Zn3+2 0.499990 0.499980 0.346870 0.971452
N3    N     N_2   0.894368 0.333552 0.639961 -0.297984
H9    H     H_    0.872885 0.244165 0.634879 0.233123
C33   C     C_3   0.919290 0.370118 0.774459 -0.768747
H10   H     H_    0.869260 0.381955 0.842560 0.239800
H11   H     H_    0.952273 0.458607 0.772054 0.247290
H12   H     H_    0.956895 0.297068 0.815559 0.238833
N4    N     N_2   0.375478 0.870627 0.707657 -0.282688
H13   H     H_    0.355548 0.881824 0.610447 0.237348
C34   C     C_3   0.315570 0.875650 0.809273 -0.750533
H14   H     H_    0.307472 0.971664 0.849475 0.271761
H15   H     H_    0.329728 0.814762 0.894478 0.218478
H16   H     H_    0.260613 0.843111 0.765252 0.245218
N5    N     N_2   0.481238 0.896731 0.865379 -0.283689
H17   H     H_    0.445240 0.901070 0.947520 0.216359
C35   C     C_3   0.558078 0.938294 0.900175 -0.733487
H18   H     H_    0.576806 0.891781 0.993755 0.259930
H19   H     H_    0.559993 0.040060 0.919429 0.202748
H20   H     H_    0.599131 0.914081 0.818568 0.290058
Cl1   Cl    Cl    0.352845 0.140938 0.662596 -0.700940
Cl2   Cl    Cl    0.623132 0.654621 0.850029 -0.600959
N6    N     N_2   0.331743 0.530880 0.880929 -0.241466
H21   H     H_    0.356998 0.610987 0.918966 0.234570
C36   C     C_3   0.249200 0.532358 0.889101 -0.762832
H22   H     H_    0.227459 0.622402 0.852605 0.242256
H23   H     H_    0.230036 0.521827 0.995317 0.227317
H24   H     H_    0.224571 0.456054 0.825273 0.262331
N7    N     N_2   0.730325 0.317698 0.635088 -0.290263
H25   H     H_    0.754176 0.290582 0.725047 0.242169
C37   C     C_3   0.709192 0.213713 0.547622 -0.780100
H26   H     H_    0.761057 0.166206 0.508277 0.239283
H27   H     H_    0.674292 0.245481 0.461245 0.235879
H28   H     H_    0.674740 0.146002 0.605579 0.245787
Cl3   Cl    Cl    0.711850 0.725652 0.359291 -0.662498
N8    N     N_2   0.884378 0.712000 0.372289 -0.291798
H29   H     H_    0.859989 0.739625 0.282942 0.274854
C38   C     C_3   0.905080 0.815708 0.460369 -0.732569
H30   H     H_    0.939578 0.883810 0.403064 0.230014
H31   H     H_    0.939868 0.783634 0.546807 0.238238
H32   H     H_    0.852899 0.862701 0.499303 0.266259
N9    N     N_2   0.121094 0.711270 0.634072 -0.320599
H33   H     H_    0.067478 0.691632 0.671428 0.226006
C39   C     C_3   0.124700 0.829640 0.567241 -0.786895
H34   H     H_    0.099268 0.902849 0.633596 0.247045
H35   H     H_    0.092161 0.824658 0.470781 0.245361
H36   H     H_    0.184947 0.856000 0.546193 0.256401
N10   N     N_2   0.109238 0.334551 0.339498 -0.296470
H37   H     H_    0.134674 0.248219 0.334732 0.231531
C40   C     C_3   0.085704 0.375572 0.207490 -0.781800
H38   H     H_    0.136585 0.392736 0.143116 0.231760
H39   H     H_    0.051446 0.461998 0.216200 0.253966
H40   H     H_    0.049790 0.302466 0.158010 0.242340
N11   N     N_2   0.541516 0.116966 0.251996 -0.279611
H41   H     H_    0.587845 0.081932 0.199539 0.230181
C41   C     C_3   0.473298 0.116987 0.169365 -0.749904
H42   H     H_    0.455290 0.020205 0.144277 0.218476
H43   H     H_    0.484780 0.166709 0.074275 0.222870
H44   H     H_    0.425856 0.164288 0.223775 0.258043

loop_
_geom_bond_atom_site_label_1
_geom_bond_atom_site_label_2
_ccdc_geom_bond_type
C33   H10   S    
C9    N10   S    
C31   Cl3   S    
C24   N2    A    
N6    H21   S    
C19   Cl1   S    
N11   C41   S    
C37   H26   S    
C7    C8    A    
C22   N2    A    
N3    H9    S    
C18   N5    S    
C11   C19   S    
C20   C26   S    
C28   C29   A    
C30   C31   A    
N8    C38   S    
C41   H42   S    
O3    Zn1   S    
C15   C16   A    
O4    Zn2   S    
C2    C32   A    
C18   C19   S    
C34   H15   S    
N9    H33   S    
C1    O1    A    
C20   C24   A    
C8    C9    A    
N5    C35   S    
O8    Zn2   S    
C9    C10   A    
N1    Zn2   S    
C27   O8    A    
N2    Zn1   S    
O2    Zn2   S    
N4    H13   S    
C21   C22   A    
C27   C30   S    
N6    C36   S    
C39   H34   S    
C22   Cl2   S    
N11   H41   S    
C37   H27   S    
C20   N1    A    
N3    C33   S    
C7    C12   S    
N4    C34   S    
C23   O5    A    
C35   H18   S    
C24   C25   S    
C12   O4    A    
N7    C37   S    
N8    H29   S    
C16   C17   A    
O5    Zn1   S    
C39   H36   S    
O7    Zn1   S    
C25   C26   S    
C40   H40   S    
C35   H19   S    
C34   H16   S    
C36   H22   S    
C29   C30   A    
C1    O2    A    
C14   N11   S    
C31   C32   A    
C29   N7    S    
C38   H32   S    
C32   N8    S    
N9    C39   S    
C17   C18   S    
C39   H35   S    
C36   H23   S    
C21   N1    A    
C38   H31   S    
N10   H37   S    
C16   C23   S    
N10   C40   S    
C33   H11   S    
C1    C13   S    
C4    C10   S    
C3    C4    T    
C37   H28   S    
C40   H39   S    
C11   C17   A    
C23   O6    A    
C6    H7    S    
C26   H6    S    
C12   O3    A    
C19   H2    S    
C28   N3    S    
C26   H5    S    
C6    C7    A    
C21   H3    S    
C35   H20   S    
C2    C3    S    
C5    C10   A    
C11   C13   A    
O1    Zn1   S    
C5    C6    A    
C41   H43   S    
C40   H38   S    
C25   N6    S    
C34   H14   S    
C36   H24   S    
C5    N9    S    
C25   H4    S    
N7    H25   S    
C18   N4    S    
O6    Zn2   S    
C38   H30   S    
N5    H17   S    
C33   H12   S    
C14   C15   A    
C2    C28   A    
C8    H8    S    
C13   C14   A    
C15   H1    S    
C27   O7    A    
C41   H44   S    
