data_mof_unit_23130.cif
_audit_creation_date              2012-10-26T18:43:31-0400
_audit_creation_method            fapswitch 2.2
_symmetry_space_group_name_H-M    P1
_symmetry_Int_Tables_number       1
_space_group_crystal_system       triclinic
_cell_length_a                    10.873877
_cell_length_b                    10.87463
_cell_length_c                    9.5864
_cell_angle_alpha                 91.384819
_cell_angle_beta                  90.718678
_cell_angle_gamma                 93.222227
_cell_volume                      1131.3534745

loop_
_atom_site_label
_atom_site_type_symbol
_atom_type_description
_atom_site_fract_x
_atom_site_fract_y
_atom_site_fract_z
_atom_type_partial_charge
C1    C     C_R   0.501413 0.262244 0.498153 0.576095
C2    C     C_R   0.480573 0.939356 0.624712 0.040518
C3    C     C_3   0.563844 0.936788 0.748914 -0.235831
C4    C     C_R   0.260587 0.495891 0.499400 0.571187
C5    C     C_3   0.573080 0.076580 0.746251 -0.136147
C6    C     C_R   0.544524 0.601903 0.076584 0.160850
C7    C     C_R   0.429215 0.414484 0.067983 0.132498
C8    C     C_R   0.434131 0.412630 0.919947 0.019331
C9    C     C_R   0.545927 0.600175 0.929685 0.138786
C10   C     C_3   0.671776 0.658708 0.925323 -0.228196
C11   C     C_3   0.669939 0.666633 0.083467 -0.179479
C12   C     C_3   0.878570 0.489386 0.500956 0.075621
C13   C     C_R   0.495112 0.737061 0.501168 0.569534
C14   C     C_R   0.739449 0.490460 0.500737 0.614912
C15   C     C_3   0.074916 0.446054 0.640325 -0.217157
C16   C     C_3   0.934110 0.420970 0.634184 -0.107599
C17   C     C_3   0.081150 0.630242 0.480720 0.221809
C18   C     C_3   0.068860 0.401644 0.381132 -0.133074
C19   C     C_3   0.123305 0.493897 0.498695 0.011041
C20   C     C_3   0.890858 0.441369 0.219116 -0.324709
C21   C     C_3   0.126076 0.685581 0.340287 -0.344461
C22   C     C_3   0.871201 0.715360 0.399889 -0.336292
C23   C     C_3   0.935303 0.629295 0.501453 0.216632
C24   C     C_3   0.703697 0.128767 0.715508 -0.382269
C25   C     C_3   0.329388 0.330740 0.126060 -0.326167
C26   C     C_3   0.671697 0.800577 0.136549 -0.391470
C27   C     C_3   0.885678 0.432969 0.784463 -0.395824
C28   C     C_3   0.112847 0.268961 0.397306 -0.367439
C29   C     C_3   0.923690 0.406298 0.370490 0.167652
C30   C     C_R   0.487714 0.066543 0.621379 -0.009921
C31   C     C_R   0.494864 0.127937 0.494762 0.034873
C32   C     C_R   0.486331 0.056518 0.368951 0.217545
C33   C     C_R   0.470741 0.928845 0.374268 -0.128914
C34   C     C_R   0.480458 0.869000 0.501432 -0.009540
Cl1   Cl    Cl    0.516493 0.115740 0.202809 -0.641804
Cl2   Cl    Cl    0.162667 0.732832 0.608136 -0.557456
Cl3   Cl    Cl    0.897118 0.702104 0.666356 -0.626675
Cl4   Cl    Cl    0.843764 0.254084 0.376137 -0.660402
Cu1   Cu    Cu3+1 0.499990 0.499980 0.640670 0.968998
Cu2   Cu    Cu3+1 0.500010 0.500020 0.359330 0.965682
H1    H     H_    0.101658 0.514381 0.725029 0.215586
H2    H     H_    0.739812 0.612760 0.133159 0.144551
H3    H     H_    0.918426 0.320512 0.616134 0.182440
H4    H     H_    0.110100 0.431867 0.281503 0.132748
H5    H     H_    0.933804 0.376599 0.145164 0.143924
H6    H     H_    0.791477 0.428353 0.193908 0.207466
H7    H     H_    0.926895 0.532312 0.188763 0.062735
H8    H     H_    0.228004 0.694209 0.336360 0.184862
H9    H     H_    0.094013 0.631533 0.247229 0.086603
H10   H     H_    0.097635 0.781252 0.329334 0.153431
H11   H     H_    0.771251 0.716414 0.420126 0.160547
H12   H     H_    0.461749 0.876391 0.277110 0.157867
H13   H     H_    0.907659 0.812137 0.417405 0.184765
H14   H     H_    0.884274 0.693929 0.289239 0.082738
H15   H     H_    0.742486 0.081500 0.623239 0.191185
H16   H     H_    0.702161 0.228106 0.694319 0.170898
H17   H     H_    0.764630 0.116992 0.807440 0.153521
H18   H     H_    0.333216 0.323475 0.238661 0.207346
H19   H     H_    0.238775 0.365655 0.097204 0.071462
H20   H     H_    0.332638 0.236722 0.079270 0.154835
H21   H     H_    0.596936 0.850606 0.087075 0.166627
H22   H     H_    0.661714 0.804637 0.250794 0.162314
H23   H     H_    0.514992 0.900345 0.841670 0.149771
H24   H     H_    0.761463 0.848113 0.111487 0.165837
H25   H     H_    0.912946 0.522669 0.835235 0.198437
H26   H     H_    0.786402 0.408651 0.793780 0.167586
H27   H     H_    0.930482 0.364604 0.849791 0.099213
H28   H     H_    0.091529 0.213637 0.300197 0.179875
H29   H     H_    0.213348 0.268517 0.416491 0.107026
H30   H     H_    0.068616 0.221136 0.485973 0.183540
H31   H     H_    0.651018 0.893343 0.722782 0.161502
H32   H     H_    0.530804 0.121086 0.838238 0.186287
H33   H     H_    0.119194 0.360223 0.669349 0.101934
H34   H     H_    0.381021 0.342608 0.859201 0.118676
H35   H     H_    0.737752 0.594661 0.885869 0.166104
H36   H     H_    0.675580 0.748128 0.873534 0.160360
N1    N     N_R   0.500800 0.500930 0.147930 -0.224881
N2    N     N_R   0.500800 0.500890 0.852020 -0.254959
O1    O     O_R   0.500000 0.319640 0.618810 -0.539349
O2    O     O_R   0.500010 0.319680 0.381230 -0.444762
O3    O     O_R   0.317690 0.499960 0.618790 -0.479857
O4    O     O_R   0.317700 0.500000 0.381210 -0.546696
O5    O     O_R   0.499990 0.680320 0.618770 -0.466960
O6    O     O_R   0.500000 0.680360 0.381190 -0.531834
O7    O     O_R   0.682300 0.500000 0.618790 -0.490567
O8    O     O_R   0.682310 0.500040 0.381210 -0.507471

loop_
_geom_bond_atom_site_label_1
_geom_bond_atom_site_label_2
_ccdc_geom_bond_type
C12   C29   S    
Cu2   O6    S    
C28   H29   S    
C6    C9    A    
C21   H9    S    
C7    C8    A    
C22   H14   S    
C33   H12   S    
C15   C19   S    
C13   O6    A    
C17   C23   S    
C28   H28   S    
C26   H21   S    
C5    H32   S    
C30   C31   A    
C15   C16   S    
C1    C31   S    
C11   H2    S    
C18   C19   S    
Cu2   O8    S    
C26   H24   S    
C4    C19   S    
C10   H36   S    
C4    O3    A    
C12   C16   S    
C24   H17   S    
C29   Cl4   S    
Cu2   O2    S    
C25   H20   S    
C9    C10   S    
C20   H5    S    
C7    N1    A    
C21   H8    S    
C2    C34   A    
C16   C27   S    
C8    N2    A    
C21   H10   S    
C22   H13   S    
C20   C29   S    
C32   Cl1   S    
Cu2   O4    S    
C18   C28   S    
Cu1   O3    S    
C6    C11   S    
C6    N1    A    
C11   C26   S    
C23   Cl3   S    
C17   C21   S    
C24   H15   S    
Cu1   O1    S    
C3    H31   S    
Cu1   N2    S    
C27   H25   S    
C18   H4    S    
C10   H35   S    
C31   C32   A    
C12   C23   S    
C8    H34   S    
C33   C34   A    
C18   C29   S    
C16   H3    S    
C14   O8    A    
C17   Cl2   S    
C12   C14   S    
C1    O1    A    
C25   H18   S    
Cu1   O7    S    
Cu1   Cu2   S    
C5    C30   S    
C15   H33   S    
Cu2   N1    S    
C28   H30   S    
C14   O7    A    
C3    C5    S    
C3    H23   S    
C24   H16   S    
C13   O5    A    
C7    C25   S    
C2    C30   A    
C32   C33   A    
C2    C3    S    
C26   H22   S    
Cu1   O5    S    
C13   C34   S    
C27   H26   S    
C5    C24   S    
C17   C19   S    
C9    N2    A    
C20   H7    S    
C27   H27   S    
C10   C11   S    
C15   H1    S    
C4    O4    A    
C1    O2    A    
C22   C23   S    
C25   H19   S    
C20   H6    S    
C22   H11   S    
