data_mof_unit_10456.cif
_audit_creation_date              2012-12-10T20:00:01-0500
_audit_creation_method            fapswitch 2.2
_symmetry_space_group_name_H-M    P1
_symmetry_Int_Tables_number       1
_space_group_crystal_system       triclinic
_cell_length_a                    14.6157
_cell_length_b                    14.179625
_cell_length_c                    8.912318
_cell_angle_alpha                 90.051282
_cell_angle_beta                  90.659869
_cell_angle_gamma                 90.113827
_cell_volume                      1846.90772155

loop_
_atom_site_label
_atom_site_type_symbol
_atom_type_description
_atom_site_fract_x
_atom_site_fract_y
_atom_site_fract_z
_atom_type_partial_charge
C1    C     C_R   0.326560 0.499864 0.494168 0.918642
C2    C     C_R   0.673513 0.500112 0.496248 0.917929
C3    C     C_R   0.454676 0.204330 0.389477 0.023388
C4    C     C_R   0.573138 0.795718 0.557803 0.029784
C5    C     C_R   0.545433 0.204693 0.610486 0.027398
C6    C     C_R   0.426929 0.795422 0.442154 0.029360
C7    C     C_R   0.454102 0.105118 0.387084 -0.275730
C8    C     C_R   0.574713 0.894938 0.558459 -0.273651
C9    C     C_R   0.546100 0.105478 0.612898 -0.274357
C10   C     C_R   0.425429 0.894629 0.441570 -0.273768
C11   C     C_R   0.499933 0.499967 0.218521 0.929180
C12   C     C_R   0.500103 0.500021 0.781466 0.933923
C13   C     C_R   0.500103 0.053411 0.500012 0.136543
C14   C     C_R   0.500085 0.946672 0.500033 0.135156
C15   C     C_1   0.500019 0.499937 0.065340 -0.202156
C16   C     C_1   0.500078 0.500014 0.934643 -0.200526
C17   C     C_R   0.106392 0.560567 0.303673 0.531870
C18   C     C_R   0.890466 0.437278 0.307469 0.532342
C19   C     C_R   0.916003 0.580034 0.456269 0.474997
C20   C     C_R   0.083039 0.421134 0.459879 0.470285
C21   C     C_R   0.195742 0.567383 0.357552 -0.290761
C22   C     C_R   0.802906 0.430242 0.365192 -0.292791
C23   C     C_R   0.824195 0.577792 0.498326 -0.337093
C24   C     C_R   0.175867 0.423106 0.499114 -0.336126
C25   C     C_R   0.230262 0.498910 0.455555 -0.165974
C26   C     C_R   0.769512 0.500704 0.459253 -0.167123
C27   C     C_R   0.048119 0.491853 0.364079 -0.063131
C28   C     C_R   0.949552 0.507562 0.363417 -0.056466
H1    H     H_    0.418984 0.242945 0.302155 0.131027
H2    H     H_    0.630917 0.757233 0.603327 0.122451
H3    H     H_    0.581159 0.243597 0.697743 0.129182
H4    H     H_    0.369163 0.756713 0.396497 0.125522
H5    H     H_    0.239278 0.623748 0.317833 0.162373
H6    H     H_    0.759401 0.372208 0.329761 0.179086
H7    H     H_    0.795991 0.634503 0.564374 0.165778
H8    H     H_    0.205043 0.367590 0.567576 0.175956
H9    H     H_    0.418844 0.069523 0.295829 0.137686
H10   H     H_    0.634788 0.930517 0.602641 0.136338
H11   H     H_    0.581422 0.070160 0.704120 0.136792
H12   H     H_    0.365386 0.929961 0.397380 0.138681
N1    N     N_R   0.500000 0.252470 0.500000 -0.093044
N2    N     N_R   0.500000 0.747530 0.500000 -0.091046
O1    O     O_R   0.369060 0.579480 0.500010 -0.630774
O2    O     O_R   0.630940 0.420520 0.499990 -0.620017
O3    O     O_R   0.630940 0.579480 0.499990 -0.623441
O4    O     O_R   0.369060 0.420520 0.500010 -0.613313
O5    O     O_R   0.500000 0.579460 0.285340 -0.612560
O6    O     O_R   0.500000 0.420540 0.714660 -0.625660
O7    O     O_R   0.500000 0.579460 0.714660 -0.610451
O8    O     O_R   0.500000 0.420540 0.285340 -0.625959
Zn1   Zn    Zn3+2 0.500000 0.606140 0.500000 0.939766
Zn2   Zn    Zn3+2 0.500000 0.393860 0.500000 0.933573
O9    O     O_3   0.075645 0.622244 0.194122 -0.613524
C29   C     C_3   0.086414 0.579129 0.051559 0.045267
H13   H     H_    0.028414 0.601546 0.978609 0.145637
H14   H     H_    0.083026 0.500340 0.054945 0.127523
C30   C     C_3   0.175665 0.611538 0.978254 -0.343470
H15   H     H_    0.168433 0.686003 0.941234 0.219636
H16   H     H_    0.233423 0.607882 0.059662 0.223120
C31   C     C_3   0.199757 0.549855 0.844040 -0.973156
H17   H     H_    0.214865 0.476762 0.881504 0.261504
H18   H     H_    0.261363 0.578757 0.788554 0.276295
H19   H     H_    0.142497 0.547810 0.761562 0.252218
O10   O     O_3   0.919524 0.372055 0.202951 -0.614844
C32   C     C_3   0.897161 0.405292 0.056800 0.045065
H20   H     H_    0.943141 0.369307 0.977094 0.166512
H21   H     H_    0.910313 0.482335 0.043766 0.108952
C33   C     C_3   0.797297 0.382723 0.012765 -0.369456
H22   H     H_    0.781663 0.307873 0.039274 0.238085
H23   H     H_    0.750468 0.428557 0.077270 0.211141
C34   C     C_3   0.778108 0.400398 0.846433 -0.948651
H24   H     H_    0.802613 0.471493 0.813051 0.254590
H25   H     H_    0.703272 0.396234 0.824266 0.268139
H26   H     H_    0.811690 0.345833 0.777271 0.263813
O11   O     O_3   0.972947 0.654719 0.496645 -0.613538
C35   C     C_3   0.975794 0.669047 0.654006 0.061334
H27   H     H_    0.048763 0.669384 0.689280 0.169921
H28   H     H_    0.941771 0.612454 0.720476 0.103266
C36   C     C_3   0.935892 0.765743 0.692294 -0.340112
H29   H     H_    0.975689 0.821483 0.634323 0.238321
H30   H     H_    0.863793 0.770298 0.652637 0.212659
C37   C     C_3   0.939344 0.784052 0.861039 -0.935794
H31   H     H_    0.898739 0.729966 0.921233 0.265873
H32   H     H_    0.910110 0.854599 0.885138 0.268084
H33   H     H_    0.011201 0.782508 0.902917 0.272120
O12   O     O_3   0.025995 0.348327 0.505618 -0.612272
C38   C     C_3   0.030343 0.333581 0.662729 0.057350
H34   H     H_    0.959584 0.337306 0.704873 0.159328
H35   H     H_    0.069889 0.388045 0.726633 0.111646
C39   C     C_3   0.067891 0.234972 0.695752 -0.330803
H36   H     H_    0.024768 0.181489 0.637058 0.239527
H37   H     H_    0.138678 0.228821 0.653088 0.217450
C40   C     C_3   0.068570 0.214000 0.863664 -0.944975
H38   H     H_    0.109336 0.267975 0.925539 0.265097
H39   H     H_    0.099679 0.143727 0.884028 0.269430
H40   H     H_    0.997592 0.213051 0.906780 0.272600

loop_
_geom_bond_atom_site_label_1
_geom_bond_atom_site_label_2
_ccdc_geom_bond_type
C6    H4    S    
C38   H34   S    
C40   H38   S    
C11   O5    A    
C35   C36   S    
C4    C8    A    
C18   O10   S    
C12   O7    A    
C39   H36   S    
O9    C29   S    
C24   H8    S    
C31   H19   S    
C10   H12   S    
C35   H28   S    
C3    C7    A    
C1    O4    A    
C30   H16   S    
C21   H5    S    
O3    Zn1   S    
C15   C16   T    
O4    Zn2   S    
C9    H11   S    
C31   H18   S    
C23   C26   A    
C3    H1    S    
C9    C13   A    
C21   C25   A    
C11   C15   S    
C1    O1    A    
C20   C24   A    
C2    O2    A    
C33   H22   S    
C32   H21   S    
C20   O12   S    
O8    Zn2   S    
N1    Zn2   S    
C12   O6    A    
N2    Zn1   S    
O2    Zn2   S    
C40   H39   S    
C13   C14   S    
C1    C25   S    
C8    H10   S    
C2    O3    A    
C22   H6    S    
C29   H14   S    
C17   C27   A    
C12   C16   S    
C18   C28   A    
C35   H27   S    
C10   C14   A    
C36   H30   S    
O12   C38   S    
C30   C31   S    
O5    Zn1   S    
O7    Zn1   S    
C17   C21   A    
C31   H17   S    
C19   C23   A    
O11   C35   S    
C5    C9    A    
C34   H26   S    
C39   H37   S    
C7    C13   A    
C32   C33   S    
C7    H9    S    
C2    C26   S    
C24   C25   A    
C19   C28   A    
C32   H20   S    
C40   H40   S    
C23   H7    S    
C38   H35   S    
C6    N2    A    
C17   O9    S    
C39   C40   S    
C34   H25   S    
C5    N1    A    
C29   H13   S    
C3    N1    A    
C8    C14   A    
C18   C22   A    
C6    C10   A    
C36   C37   S    
C20   C27   A    
C37   H33   S    
C37   H32   S    
O10   C32   S    
C19   O11   S    
C34   H24   S    
C11   O8    A    
O1    Zn1   S    
C30   H15   S    
C4    N2    A    
C33   C34   S    
C36   H29   S    
O6    Zn2   S    
C33   H23   S    
C37   H31   S    
C22   C26   A    
C38   C39   S    
C27   C28   S    
C4    H2    S    
C5    H3    S    
C29   C30   S    
