data_mof_unit_66698.cif
_audit_creation_date              2013-03-05T15:41:44-0500
_audit_creation_method            fapswitch 2.2
_symmetry_space_group_name_H-M    P1
_symmetry_Int_Tables_number       1
_space_group_crystal_system       triclinic
_cell_length_a                    8.405094
_cell_length_b                    15.550898
_cell_length_c                    15.310188
_cell_angle_alpha                 97.08172
_cell_angle_beta                  99.601237
_cell_angle_gamma                 98.94634
_cell_volume                      1926.09913204

loop_
_atom_site_label
_atom_site_type_symbol
_atom_site_description
_atom_site_fract_x
_atom_site_fract_y
_atom_site_fract_z
_atom_type_partial_charge
P1    P     P_3+3 0.004200 0.709230 0.580350 0.428222
O1    O     O_2   0.174080 0.723060 0.553930 -0.359076
O2    O     O_3   0.901570 0.609580 0.550840 -0.409744
O3    O     O_3   0.370350 0.665080 0.388270 -0.393864
O4    O     O_2   0.282766 0.815593 0.448266 -0.380682
O5    O     O_3   0.083501 0.732117 0.697514 -0.629291
O6    O     O_3   0.378065 0.820120 0.297253 -0.561798
H1    H     H_    0.231750 0.711024 0.216311 0.167952
C1    C     C_3   0.353317 0.800455 0.137223 0.372417
P2    P     P_3+3 0.305000 0.425570 0.290900 0.474035
P3    P     P_3+3 0.873014 0.631781 0.228774 0.487742
O7    O     O_2   0.134790 0.452800 0.278150 -0.325943
O8    O     O_3   0.937650 0.618620 0.340860 -0.355287
O9    O     O_2   0.977790 0.577546 0.177195 -0.354474
O10   O     O_3   0.254574 0.311051 0.265348 -0.580440
O11   O     O_3   0.949615 0.741125 0.217431 -0.506175
C2    C     C_3   0.925149 0.800309 0.289547 0.575414
H2    H     H_    0.968409 0.779000 0.354750 0.090767
C3    C     C_3   0.026134 0.893179 0.293955 -0.138103
H3    H     H_    0.035256 0.931595 0.361179 0.097726
H4    H     H_    0.151798 0.889247 0.285210 0.216615
C4    C     C_3   0.670845 0.298097 0.250109 0.480877
H5    H     H_    0.550695 0.293876 0.271357 0.092821
C5    C     C_3   0.654774 0.255838 0.150097 0.040536
H6    H     H_    0.742919 0.209400 0.148240 0.205786
Ba1   Ba    Ba6+2 0.154730 0.543770 0.458180 1.558269
C6    C     C_3   0.990359 0.700319 0.758386 0.541555
H7    H     H_    0.898062 0.644389 0.724189 0.152197
C7    C     C_3   0.914398 0.773377 0.804498 -0.286995
H8    H     H_    0.012440 0.831181 0.834000 0.204688
H9    H     H_    0.829187 0.796679 0.753417 0.215754
C8    C     C_3   0.203236 0.275311 0.337405 0.403882
H10   H     H_    0.118619 0.312999 0.367025 0.116487
H11   H     H_    0.311535 0.274153 0.389569 0.124585
C9    C     C_3   0.114074 0.181657 0.301888 -0.867302
H12   H     H_    0.991026 0.181841 0.262909 0.283116
H13   H     H_    0.103050 0.142799 0.357162 0.225919
H14   H     H_    0.181146 0.148641 0.255245 0.288510
P4    P     P_3+3 0.806080 0.290760 0.419570 0.502464
O12   O     O_2   0.636200 0.276890 0.446040 -0.347612
O13   O     O_3   0.908720 0.390410 0.449080 -0.382256
O14   O     O_3   0.439930 0.334910 0.611650 -0.324198
O15   O     O_3   0.774650 0.255299 0.303103 -0.599849
P5    P     P_3+3 0.916809 0.394165 0.776994 0.499628
O16   O     O_3   0.402060 0.547860 0.609750 -0.389795
O17   O     O_3   0.872630 0.381370 0.659060 -0.418369
O18   O     O_2   0.775934 0.432513 0.811933 -0.318493
O19   O     O_3   0.896110 0.287765 0.805649 -0.499904
Ba2   Ba    Ba6+2 0.655430 0.456220 0.541750 1.567590
P6    P     P_3+3 0.413633 0.781050 0.400568 0.431727
C10   C     C_3   0.351010 0.754804 0.221914 0.209640
H15   H     H_    0.444072 0.712244 0.227205 0.059574
O20   O     O_3   0.408220 0.452130 0.390170 -0.406973
C11   C     C_3   0.455481 0.746257 0.719350 0.183489
H16   H     H_    0.474082 0.787593 0.666623 0.139251
H17   H     H_    0.336827 0.704007 0.697123 0.142130
C12   C     C_3   0.462274 0.806145 0.807121 -0.262780
H18   H     H_    0.493850 0.770695 0.863760 0.211002
H19   H     H_    0.342047 0.825645 0.810464 0.186737
P7    P     P_3+3 0.509651 0.584074 0.720514 0.405014
O21   O     O_2   0.675490 0.547140 0.721820 -0.366550
O22   O     O_3   0.580677 0.697334 0.729116 -0.599691
C13   C     C_3   0.905852 0.227955 0.730475 0.482379
H20   H     H_    0.801817 0.225895 0.674399 0.165063
H21   H     H_    0.023678 0.246427 0.707795 0.037083
C14   C     C_3   0.896270 0.135566 0.754574 -0.978946
H22   H     H_    0.767191 0.105915 0.753517 0.300527
H23   H     H_    0.943345 0.092947 0.704897 0.230970
H24   H     H_    0.969236 0.137919 0.822453 0.284334
P8    P     P_3+3 0.388512 0.220499 0.602074 0.496933
C15   C     C_3   0.366057 0.179723 0.761194 0.592820
H25   H     H_    0.241055 0.150531 0.723422 -0.027883
O23   O     O_2   0.497301 0.187826 0.538510 -0.334504
O24   O     O_3   0.480153 0.192724 0.704236 -0.519173
C16   C     C_3   0.419625 0.115849 0.825450 0.006908
H26   H     H_    0.447491 0.059247 0.784434 0.221958
C17   C     C_R   0.169919 0.168418 0.550674 0.197292
C18   C     C_R   0.103691 0.076249 0.542437 -0.127747
C19   C     C_R   0.957238 0.893838 0.543659 -0.105495
C20   C     C_R   0.113933 0.931908 0.590872 0.247338
C21   C     C_R   0.194380 0.012718 0.575713 0.154054
C22   C     C_R   0.887492 0.801072 0.540820 0.209965
C23   C     C_R   0.716225 0.776171 0.511108 -0.219303
C24   C     C_R   0.905193 0.199966 0.474264 0.273586
C25   C     C_R   0.835719 0.105543 0.464523 -0.074676
C26   C     C_R   0.933668 0.045817 0.504659 -0.007804
C27   C     C_R   0.674577 0.064759 0.417482 0.305133
C28   C     C_R   0.610338 0.977015 0.420632 -0.154540
C29   C     C_R   0.698169 0.920702 0.464261 -0.056565
C30   C     C_R   0.863449 0.953226 0.503490 -0.012807
C31   C     C_R   0.623753 0.832061 0.467130 0.250520
C32   C     C_R   0.067968 0.227064 0.520612 -0.542292
H27   H     H_    0.483072 0.954044 0.391548 0.219505
H28   H     H_    0.120915 0.296280 0.528976 0.158190
C33   C     C_R   0.217947 0.499470 0.767549 -0.132474
C34   C     C_R   0.123179 0.462820 0.825487 0.236133
C35   C     C_R   0.188758 0.474822 0.917884 -0.291480
C36   C     C_R   0.359630 0.505184 0.952293 0.166994
C37   C     C_R   0.456378 0.534834 0.889684 -0.218042
C38   C     C_R   0.385962 0.536031 0.799500 0.239165
C39   C     C_R   0.591041 0.562338 0.089934 -0.221049
C40   C     C_R   0.647471 0.584654 0.182801 0.257208
C41   C     C_R   0.405309 0.487044 0.207825 0.288375
C42   C     C_R   0.354044 0.461970 0.112928 0.099853
C43   C     C_R   0.434364 0.509374 0.052415 0.105360
C44   C     C_R   0.541831 0.555633 0.240220 -0.469231
H29   H     H_    0.671428 0.589320 0.048340 0.166234
H30   H     H_    0.103716 0.458863 0.961286 0.186291
H31   H     H_    0.586560 0.557976 0.909230 0.143035
H32   H     H_    0.582858 0.574304 0.311857 0.169164
C45   C     C_3   0.483831 0.200716 0.110797 -0.908755
H33   H     H_    0.495467 0.136365 0.074303 0.286168
H34   H     H_    0.409891 0.186456 0.162445 0.276508
H35   H     H_    0.414117 0.235051 0.062665 0.264703
I1    I     I_    0.731351 0.342248 0.056360 -0.381615
C46   C     C_3   0.110372 0.673384 0.832587 -0.992208
H36   H     H_    0.163530 0.728690 0.887715 0.285097
H37   H     H_    0.048089 0.618252 0.860915 0.246096
H38   H     H_    0.218771 0.657722 0.808474 0.235162
C47   C     C_3   0.832338 0.744750 0.882561 -0.667340
H39   H     H_    0.794914 0.801385 0.920090 0.292667
H40   H     H_    0.728447 0.689932 0.862993 0.252474
H41   H     H_    0.914242 0.717268 0.930592 0.247249
I2    I     I_    0.120900 0.814434 0.074630 -0.293006
I3    I     I_    0.451382 0.734196 0.036711 -0.506388
I4    I     I_    0.638569 0.924165 0.821636 -0.454364
I5    I     I_    0.483450 0.931475 0.156768 -0.246889
I6    I     I_    0.933416 0.971640 0.198149 -0.270670
I7    I     I_    0.358438 0.303450 0.833560 -0.396948
C48   C     C_3   0.284063 0.082572 0.875780 -0.937991
H42   H     H_    0.323692 0.032911 0.916966 0.303082
H43   H     H_    0.255714 0.137601 0.920541 0.280010
H44   H     H_    0.169819 0.050820 0.828322 0.247919
C49   C     C_3   0.578240 0.154143 0.891924 -0.694684
H45   H     H_    0.549260 0.199411 0.944741 0.279277
H46   H     H_    0.631029 0.101901 0.923615 0.266549
H47   H     H_    0.670200 0.190754 0.859953 0.296455
C50   C     C_3   0.174509 0.904364 0.677926 -0.860163
H48   H     H_    0.069805 0.882311 0.709311 0.242266
H49   H     H_    0.255745 0.857046 0.667387 0.291892
H50   H     H_    0.246853 0.959440 0.726341 0.226759
I8    I     I_    0.451469 0.011133 0.595919 -0.393726
I9    I     I_    0.496001 0.111786 0.331097 -0.331753
C51   C     C_3   0.628519 0.690904 0.531477 -0.576925
H51   H     H_    0.687648 0.676084 0.596060 0.230882
H52   H     H_    0.502908 0.695444 0.541817 0.239892
H53   H     H_    0.626176 0.635943 0.477448 0.232649
C52   C     C_3   0.229523 0.378607 0.079043 -0.851191
H54   H     H_    0.106013 0.389916 0.088085 0.282834
H55   H     H_    0.229192 0.351479 0.008808 0.253388
H56   H     H_    0.261184 0.325488 0.115889 0.268628
C53   C     C_3   0.744614 0.803882 0.279159 -0.930088
H57   H     H_    0.689248 0.791151 0.207098 0.297142
H58   H     H_    0.687136 0.752404 0.313648 0.187779
H59   H     H_    0.722892 0.868934 0.306111 0.264331
C54   C     C_3   0.129726 0.514204 0.677717 -0.615608
H60   H     H_    0.003270 0.523659 0.680069 0.234418
H61   H     H_    0.176729 0.578218 0.660591 0.223061
H62   H     H_    0.132818 0.459745 0.624199 0.241828
I10   I     I_    0.779587 0.428084 0.274329 -0.183689

loop_
_geom_bond_atom_site_label_1
_geom_bond_atom_site_label_2
_geom_bond_distance
_ccdc_geom_bond_type
C39   H29   1.076722 S    
C14   H23   1.109915 S    
C27   C28   1.396959 A    
C13   H21   1.111161 S    
C17   C32   1.411690 A    
C39   C40   1.403255 A    
C6    C7    1.541097 S    
C42   C52   1.508701 S    
C33   C34   1.401894 A    
C1    C10   1.554579 S    
C52   H56   1.097540 S    
C49   H47   1.104183 S    
C35   C36   1.427759 A    
O2    Ba2   2.876573 S    
C16   C49   1.522762 S    
O10   C8    1.395557 S    
O16   P7    1.762186 S    
C17   C18   1.436661 A    
O17   Ba2   2.827722 S    
C1    I5    2.117675 S    
C36   C43   1.545964 S    
P2    C41   1.910306 S    
C9    H13   1.106682 S    
C52   H55   1.105023 S    
P4    C24   1.952790 S    
P1    O1    1.538587 D    
C28   C29   1.392423 A    
P2    O10   1.744224 S    
C23   C51   1.507828 S    
P3    O9    1.552176 D    
Ba2   O20   2.832153 S    
C12   H19   1.106553 S    
C14   H24   1.108384 S    
O12   Ba2   2.953581 S    
C37   H31   1.076129 S    
C3    I6    2.145534 S    
O14   P8    1.746193 S    
C1    I2    2.083430 S    
C46   H36   1.107885 S    
C19   C22   1.462750 A    
P7    O22   1.750842 S    
C33   C54   1.511377 S    
O2    Ba1   2.985605 S    
P2    O20   1.589692 S    
C19   C30   1.434341 A    
Ba1   O16   2.832646 S    
C28   H27   1.073853 S    
C35   H30   1.076103 S    
C3    H3    1.108986 S    
P5    O17   1.761362 S    
O11   C2    1.411537 S    
P8    O24   1.759105 S    
C41   C44   1.414010 A    
P5    O18   1.547915 D    
C6    C46   1.532971 S    
P2    Ba1   3.489049 S    
C14   H22   1.107545 S    
C13   C14   1.520349 S    
P8    C17   1.883780 S    
C5    C45   1.537071 S    
C51   H53   1.109112 S    
O13   Ba2   2.986613 S    
C42   C43   1.442131 A    
C47   H40   1.094159 S    
C25   C27   1.431846 A    
C39   C43   1.426957 A    
C7    C47   1.553382 S    
C11   H17   1.081645 S    
Ba2   O21   2.904774 S    
C13   H20   1.112122 S    
P1    O5    1.777260 S    
C8    C9    1.519121 S    
C9    H14   1.106929 S    
C24   C25   1.472945 A    
P4    O13   1.622138 S    
C26   C30   1.465492 A    
Ba1   Ba2   4.641797 S    
C12   I4    2.134761 S    
C33   C38   1.417065 A    
C20   C21   1.396517 A    
O19   C13   1.409821 S    
P4    O15   1.763099 S    
C11   O22   1.390335 S    
P1    C22   1.954278 S    
C25   C26   1.458709 A    
C1    I3    2.098923 S    
C10   H15   1.099784 S    
O7    Ba1   2.904696 S    
P7    O21   1.586119 D    
P1    O2    1.622112 S    
C9    H12   1.105093 S    
C8    H11   1.110343 S    
C48   H43   1.109957 S    
C16   H26   1.095830 S    
C7    H8    1.111954 S    
P5    C34   1.870496 S    
C15   I7    2.114235 S    
P3    O11   1.762284 S    
O3    Ba1   2.840858 S    
O5    C6    1.400911 S    
C53   H59   1.098459 S    
O16   Ba2   2.994594 S    
C34   C35   1.408033 A    
P8    O23   1.536476 D    
C32   H28   1.082143 S    
C2    H2    1.111988 S    
C45   H34   1.106788 S    
C5    H6    1.113358 S    
H1    C10   1.104679 S    
P3    C40   1.903109 S    
P2    O7    1.542647 D    
C51   H52   1.104941 S    
C21   I8    2.135666 S    
P4    Ba2   3.512795 S    
C53   H58   1.105495 S    
C36   C37   1.430071 A    
C16   C48   1.538717 S    
P1    Ba1   3.512149 S    
C4    C5    1.565243 S    
O4    P6    1.544902 D    
C48   H44   1.106854 S    
C29   C31   1.431496 A    
Ba1   O20   2.995506 S    
P4    O12   1.538939 D    
C47   H39   1.107449 S    
C44   H32   1.081809 S    
C11   H16   1.108211 S    
C54   H60   1.101225 S    
C45   H33   1.110846 S    
C3    H4    1.096585 S    
C54   H62   1.110016 S    
O6    P6    1.759623 S    
C51   H51   1.098033 S    
P7    C38   1.871345 S    
C50   H50   1.088058 S    
O1    Ba1   2.953086 S    
C15   O24   1.408240 S    
C49   H46   1.108952 S    
C47   H41   1.094271 S    
C49   H45   1.089706 S    
C50   H49   1.094283 S    
C23   C31   1.411625 A    
C46   H38   1.088477 S    
C8    H10   1.107551 S    
C54   H61   1.091956 S    
C48   H42   1.111284 S    
O6    C10   1.402006 S    
C15   H25   1.108427 S    
C7    H9    1.104360 S    
C37   C38   1.412169 A    
C15   C16   1.545792 S    
P3    O8    1.758428 S    
C18   C21   1.430189 A    
C18   C26   1.430790 A    
C12   H18   1.101321 S    
C4    I10   2.046101 S    
C20   C50   1.483683 S    
C2    C3    1.544785 S    
C46   H37   1.106809 S    
C40   C44   1.413665 A    
C45   H35   1.105333 S    
C52   H54   1.107475 S    
O8    Ba1   2.827199 S    
C50   H48   1.100366 S    
O14   Ba2   2.840169 S    
C19   C20   1.393545 A    
C2    C53   1.509581 S    
P6    C31   1.884518 S    
C53   H57   1.104157 S    
C5    I1    2.189552 S    
C22   C23   1.412036 A    
O3    P6    1.763393 S    
C41   C42   1.431027 A    
C4    H5    1.106445 S    
C24   C32   1.405709 A    
C27   I9    2.110574 S    
C29   C30   1.405220 A    
C4    O15   1.392869 S    
P5    O19   1.753681 S    
Ba1   O13   2.875913 S    
C6    H7    1.083887 S    
C11   C12   1.525006 S    
