data_mof_unit_11329.cif
_audit_creation_date              2012-12-11T16:17:49-0500
_audit_creation_method            fapswitch 2.2
_symmetry_space_group_name_H-M    P1
_symmetry_Int_Tables_number       1
_space_group_crystal_system       triclinic
_cell_length_a                    14.056991
_cell_length_b                    14.06773
_cell_length_c                    30.09736
_cell_angle_alpha                 97.121951
_cell_angle_beta                  97.129737
_cell_angle_gamma                 61.296642
_cell_volume                      5165.83497727

loop_
_atom_site_label
_atom_site_type_symbol
_atom_type_description
_atom_site_fract_x
_atom_site_fract_y
_atom_site_fract_z
_atom_type_partial_charge
C1    C     C_R   0.385481 0.711204 0.442234 0.528574
C2    C     C_R   0.416363 0.269499 0.220812 -0.108139
C3    C     C_R   0.427379 0.272834 0.267707 0.007679
C4    C     C_R   0.337608 0.344655 0.292411 0.023531
C5    C     C_R   0.317098 0.337545 0.198558 0.025068
C6    C     C_1   0.303727 0.324275 0.150615 -0.052130
C7    C     C_1   0.349209 0.354528 0.340622 -0.042416
C8    C     C_1   0.291880 0.304748 0.110934 -0.009599
C9    C     C_R   0.762773 0.370141 0.399366 -0.002418
C10   C     C_R   0.787743 0.267555 0.376166 -0.021301
C11   C     C_R   0.809325 0.250057 0.330877 -0.100809
C12   C     C_R   0.398931 0.381227 0.426440 0.547489
C13   C     C_R   0.807860 0.332524 0.308905 0.020851
C14   C     C_R   0.793177 0.429666 0.332518 -0.116271
C15   C     C_R   0.771441 0.448225 0.377453 -0.128358
C16   C     C_R   0.825683 0.401519 0.157355 -0.112974
C17   C     C_R   0.855883 0.392045 0.114014 -0.123780
C18   C     C_R   0.887565 0.205426 0.104895 -0.124882
C19   C     C_R   0.857579 0.215095 0.148311 -0.108705
C20   C     C_R   0.830550 0.311824 0.174982 0.038014
C21   C     C_1   0.820419 0.315633 0.221806 -0.017108
C22   C     C_1   0.815193 0.321016 0.261526 -0.014765
C23   C     C_R   0.709814 0.405603 0.442254 0.537405
C24   C     C_R   0.891808 0.292315 0.088159 0.019933
C25   C     C_R   0.363736 0.767379 0.400735 -0.038395
C26   C     C_R   0.432169 0.806851 0.388721 -0.014221
C27   C     C_R   0.425718 0.829318 0.343474 -0.018994
C28   C     C_R   0.350382 0.814619 0.311599 0.007059
C29   C     C_R   0.273955 0.788157 0.325155 0.012717
C30   C     C_R   0.281994 0.764854 0.369443 -0.163282
C31   C     C_R   0.261801 0.826732 0.151391 -0.099847
C32   C     C_R   0.238935 0.857138 0.107447 -0.131143
C33   C     C_R   0.391758 0.895101 0.116127 -0.124553
C34   C     C_R   0.389729 0.711513 0.568237 0.544537
C35   C     C_R   0.414111 0.865084 0.160149 -0.120190
C36   C     C_R   0.346695 0.834733 0.178149 0.034599
C37   C     C_1   0.355017 0.825234 0.225225 0.024612
C38   C     C_1   0.355174 0.820777 0.264717 0.047655
C39   C     C_R   0.300822 0.896198 0.090120 0.020645
C40   C     C_R   0.365788 0.363537 0.592447 0.017119
C41   C     C_R   0.431966 0.268418 0.614721 -0.118033
C42   C     C_R   0.412565 0.261394 0.658163 -0.109970
C43   C     C_R   0.326655 0.348822 0.679454 0.035974
C44   C     C_R   0.255313 0.440141 0.656370 -0.106931
C45   C     C_R   0.402347 0.383159 0.552410 0.539292
C46   C     C_R   0.274417 0.447394 0.612893 -0.124209
C47   C     C_R   0.216607 0.412348 0.834937 -0.000804
C48   C     C_R   0.209497 0.393021 0.878528 -0.126929
C49   C     C_R   0.392018 0.240879 0.878272 -0.126430
C50   C     C_R   0.399442 0.260011 0.834886 -0.125106
C51   C     C_R   0.310672 0.342676 0.812548 0.022888
C52   C     C_1   0.314279 0.347722 0.765637 -0.010986
C53   C     C_1   0.318255 0.348752 0.726183 -0.012842
C54   C     C_R   0.295171 0.304088 0.899676 0.003977
C55   C     C_1   0.762005 0.376886 0.612520 0.002548
C56   C     C_R   0.712981 0.407848 0.568513 0.546458
C57   C     C_R   0.817062 0.421605 0.728321 -0.120636
C58   C     C_R   0.832965 0.410255 0.774569 0.002388
C59   C     C_R   0.848506 0.229581 0.760613 -0.119917
C60   C     C_R   0.832528 0.240986 0.714284 0.002042
C61   C     C_R   0.817186 0.337512 0.698064 0.008308
C62   C     C_R   0.848694 0.313655 0.790834 0.005570
C63   C     C_1   0.874547 0.296522 0.837994 -0.035477
C64   C     C_1   0.791758 0.356306 0.651038 -0.040002
C65   C     C_1   0.904161 0.283562 0.877076 0.006737
C66   C     C_1   0.374944 0.760231 0.613263 -0.006096
C67   C     C_1   0.366897 0.364643 0.380532 0.005271
C68   C     C_R   0.246525 0.856732 0.715218 -0.105925
C69   C     C_R   0.233177 0.874034 0.761371 0.008208
C70   C     C_R   0.427230 0.812282 0.776521 -0.116995
C71   C     C_R   0.439973 0.794918 0.730365 -0.106767
C72   C     C_R   0.349599 0.817457 0.699663 0.021661
C73   C     C_R   0.324217 0.851333 0.792293 0.021950
C74   C     C_1   0.311072 0.874910 0.839861 -0.040903
C75   C     C_1   0.363539 0.790478 0.652405 -0.049328
C76   C     C_1   0.292911 0.903286 0.878706 0.003302
C77   C     C_R   0.950313 0.273139 0.047992 0.541832
C78   C     C_R   0.238614 0.413208 0.269953 -0.119060
C79   C     C_R   0.275399 0.270182 0.065372 0.547879
C80   C     C_R   0.260976 0.953876 0.048778 0.542811
C81   C     C_R   0.952140 0.269204 0.922151 0.547985
C82   C     C_R   0.276381 0.266388 0.939602 0.543568
C83   C     C_R   0.261482 0.950883 0.922883 0.548895
C84   C     C_R   0.228203 0.409289 0.223097 -0.102021
Cr1   Cr    Cr6+3 0.581000 0.584320 0.508140 1.046262
Cr2   Cr    Cr6+3 0.339110 0.576430 0.496080 1.034177
Cr3   Cr    Cr6+3 0.579910 0.339270 0.495810 1.077086
Cr4   Cr    Cr6+3 0.082090 0.079210 0.982490 1.036735
Cr5   Cr    Cr6+3 0.082460 0.324610 0.994920 1.033443
Cr6   Cr    Cr6+3 0.323630 0.087860 0.996130 1.027124
H1    H     H_    0.169613 0.469739 0.288669 0.116530
H2    H     H_    0.861339 0.145421 0.161875 0.123375
H3    H     H_    0.914516 0.127652 0.085732 0.132484
H4    H     H_    0.823537 0.173727 0.312340 0.140863
H5    H     H_    0.168826 0.856585 0.088143 0.132839
H6    H     H_    0.209407 0.803064 0.165274 0.160546
H7    H     H_    0.227024 0.738225 0.378820 0.135980
H8    H     H_    0.479945 0.871429 0.180832 0.122379
H9    H     H_    0.441171 0.924442 0.103636 0.134790
H10   H     H_    0.150625 0.460966 0.206018 0.120856
H11   H     H_    0.134442 0.443239 0.894709 0.144839
H12   H     H_    0.188359 0.507914 0.672748 0.131150
H13   H     H_    0.221827 0.521554 0.596555 0.139142
H14   H     H_    0.502707 0.202405 0.599814 0.148088
H15   H     H_    0.472468 0.206548 0.817875 0.122419
H16   H     H_    0.459501 0.172278 0.893830 0.141050
H17   H     H_    0.467811 0.190234 0.675944 0.122565
H18   H     H_    0.803569 0.496567 0.715842 0.125700
H19   H     H_    0.484519 0.212813 0.201606 0.116324
H20   H     H_    0.861428 0.154966 0.773161 0.149714
H21   H     H_    0.176900 0.872507 0.691404 0.127766
H22   H     H_    0.497654 0.795419 0.799903 0.128537
H23   H     H_    0.520346 0.762869 0.718645 0.122844
H24   H     H_    0.857788 0.460460 0.101947 0.134234
H25   H     H_    0.804538 0.476769 0.177969 0.114627
H26   H     H_    0.793452 0.493269 0.315644 0.127914
H27   H     H_    0.754048 0.527132 0.394033 0.168610
O1    O     O_R   0.688580 0.499770 0.460490 -0.507181
O2    O     O_R   0.348600 0.476260 0.536540 -0.503822
O3    O     O_R   0.494840 0.313840 0.539010 -0.508200
O4    O     O_R   0.672120 0.351750 0.545910 -0.487158
O5    O     O_3   0.500010 0.500010 0.500010 -0.256165
O6    O     O_R   0.167510 0.972920 0.030390 -0.517801
O7    O     O_R   0.990840 0.178580 0.027590 -0.503590
O8    O     O_R   0.972840 0.345510 0.038590 -0.514675
O9    O     O_R   0.181550 0.320660 0.045200 -0.493215
O10   O     O_R   0.346150 0.177650 0.050510 -0.509687
O11   O     O_R   0.314200 0.996600 0.036060 -0.503050
O12   O     O_R   0.480400 0.672610 0.462660 -0.501953
O13   O     O_R   0.168690 0.969990 0.933130 -0.494364
O14   O     O_R   0.991920 0.175870 0.937430 -0.490419
O15   O     O_R   0.974010 0.342590 0.941330 -0.502079
O16   O     O_R   0.182630 0.317940 0.955040 -0.501846
O17   O     O_R   0.347320 0.174720 0.953250 -0.513605
O18   O     O_R   0.315290 0.993890 0.945900 -0.495965
O19   O     O_3   0.162730 0.163890 0.991180 -0.248382
O20   O     O_R   0.315310 0.685650 0.451800 -0.508053
O21   O     O_R   0.346220 0.474990 0.446280 -0.500306
O22   O     O_R   0.492270 0.312460 0.441630 -0.482444
O23   O     O_R   0.669740 0.350480 0.455640 -0.484991
O24   O     O_R   0.691150 0.501150 0.557860 -0.504719
O25   O     O_R   0.482790 0.673890 0.552920 -0.496240
O26   O     O_R   0.317880 0.687030 0.549170 -0.503851
C85   C     C_2   0.186722 0.779037 0.294308 0.231235
H28   H     H_    0.142835 0.741035 0.305025 0.103814
O27   O     O_2   0.160325 0.815849 0.257493 -0.518257
C86   C     C_2   0.507146 0.826245 0.423694 0.255963
H29   H     H_    0.486071 0.847049 0.458327 0.112937
O28   O     O_2   0.593411 0.817557 0.414650 -0.483021
C87   C     C_1   0.495066 0.868283 0.329314 0.257866
N1    N     N_1   0.550145 0.899482 0.317896 -0.245624
C88   C     C_1   0.124601 0.499910 0.812952 0.207690
N2    N     N_1   0.051017 0.570033 0.795285 -0.266509
C89   C     C_1   0.833118 0.498499 0.804720 0.205806
N3    N     N_1   0.833162 0.569157 0.828911 -0.275594
C90   C     C_1   0.831480 0.153264 0.684091 0.203457
N4    N     N_1   0.830625 0.082972 0.659893 -0.286291
C91   C     C_1   0.125648 0.914687 0.776274 0.205091
N5    N     N_1   0.039594 0.947099 0.788268 -0.293490
C92   C     C_1   0.531193 0.202121 0.289749 0.205327
N6    N     N_1   0.614304 0.145482 0.307413 -0.268766
C93   C     C_1   0.788816 0.180065 0.397139 0.241181
N7    N     N_1   0.789724 0.109819 0.413860 -0.247430

loop_
_geom_bond_atom_site_label_1
_geom_bond_atom_site_label_2
_ccdc_geom_bond_type
C58   C62   A    
C55   C56   S    
C63   C65   T    
C2    H19   S    
C73   C74   S    
C35   C36   A    
Cr4   O13   S    
Cr3   O23   S    
Cr4   O7    S    
C34   C66   S    
C23   O1    A    
C1    O20   A    
Cr5   O8    S    
C40   C46   A    
C30   H7    S    
C26   C27   A    
C33   C39   A    
Cr5   O15   S    
C74   C76   T    
C18   C24   A    
C28   C29   A    
C86   O28   D    
C1    O12   A    
C4    C7    S    
C5    C6    S    
Cr6   O17   S    
C81   O14   A    
C66   C75   T    
C31   H6    S    
C59   H20   S    
C71   H23   S    
C18   C19   A    
C41   C42   A    
C32   C39   A    
C19   H2    S    
C58   C89   S    
Cr2   O20   S    
Cr1   O12   S    
C68   C69   A    
C43   C53   S    
C34   O25   A    
C86   H29   S    
C16   C17   A    
Cr2   O5    S    
C8    C79   S    
Cr6   O10   S    
C69   C73   A    
Cr2   O2    S    
C35   H8    S    
C42   H17   S    
C83   O18   A    
C68   C72   A    
C45   O2    A    
C59   C60   A    
C10   C93   S    
Cr5   O19   S    
C21   C22   T    
C1    C25   S    
Cr1   O1    S    
C70   C73   A    
Cr4   O6    S    
C76   C83   S    
C44   C46   A    
Cr2   O26   S    
C50   C51   A    
Cr5   O9    S    
C40   C45   S    
C12   C67   S    
C34   O26   A    
C17   C24   A    
Cr5   O16   S    
C51   C52   S    
C84   H10   S    
C47   C48   A    
C23   O23   A    
C39   C80   S    
Cr4   O19   S    
C83   O13   A    
C85   O27   D    
Cr1   O24   S    
Cr3   O4    S    
C5    C84   A    
C44   H12   S    
C9    C23   S    
C81   O15   A    
C6    C8    T    
C80   O11   A    
C25   C26   A    
C29   C85   S    
C7    C67   T    
C15   H27   S    
C60   C61   A    
C33   H9    S    
C68   H21   S    
C90   N4    T    
C82   O17   A    
C61   C64   S    
C48   C54   A    
C43   C44   A    
C60   C90   S    
C4    C78   A    
C37   C38   T    
C50   H15   S    
Cr6   O19   S    
C65   C81   S    
C31   C32   A    
C28   C38   S    
C16   C20   A    
C55   C64   T    
C57   H18   S    
C62   C63   S    
C69   C91   S    
C12   O22   A    
Cr1   O5    S    
C20   C21   S    
C89   N3    T    
C70   C71   A    
C70   H22   S    
C56   O24   A    
C11   H4    S    
C40   C41   A    
C79   O9    A    
C27   C87   S    
C3    C92   S    
C12   O21   A    
C2    C5    A    
C42   C43   A    
C3    C4    A    
C16   H25   S    
C54   C82   S    
C77   O8    A    
C52   C53   T    
C45   O3    A    
C93   N7    T    
C9    C10   A    
C25   C30   A    
C79   O10   A    
C36   C37   S    
C59   C62   A    
C31   C36   A    
Cr3   O22   S    
C85   H28   S    
Cr1   O25   S    
Cr3   O5    S    
C47   C51   A    
C57   C61   A    
C49   H16   S    
C78   H1    S    
C46   H13   S    
C87   N1    T    
C41   H14   S    
C56   O4    A    
C19   C20   A    
C2    C3    A    
C9    C15   A    
Cr3   O3    S    
C77   O7    A    
C92   N6    T    
Cr6   O18   S    
C11   C13   A    
C72   C75   S    
C57   C58   A    
C91   N5    T    
C82   O16   A    
C14   H26   S    
C48   H11   S    
C17   H24   S    
C33   C35   A    
C13   C22   S    
C26   C86   S    
C10   C11   A    
Cr2   O21   S    
C29   C30   A    
C78   C84   A    
C24   C77   S    
C71   C72   A    
C32   H5    S    
C47   C88   S    
C49   C50   A    
C27   C28   A    
C18   H3    S    
Cr6   O11   S    
C14   C15   A    
C88   N2    T    
Cr4   O14   S    
C13   C14   A    
C49   C54   A    
C80   O6    A    
