data_mof_unit_47563.cif
_audit_creation_date              2012-12-10T17:34:00-0500
_audit_creation_method            fapswitch 2.2
_symmetry_space_group_name_H-M    P1
_symmetry_Int_Tables_number       1
_space_group_crystal_system       triclinic
_cell_length_a                    10.870439
_cell_length_b                    12.036816
_cell_length_c                    12.889463
_cell_angle_alpha                 92.868085
_cell_angle_beta                  91.817704
_cell_angle_gamma                 85.72831
_cell_volume                      1679.07254711

loop_
_atom_site_label
_atom_site_type_symbol
_atom_type_description
_atom_site_fract_x
_atom_site_fract_y
_atom_site_fract_z
_atom_type_partial_charge
C1    C     C_R   0.481861 0.521629 0.698706 0.984418
C2    C     C_R   0.441424 0.449876 0.972310 0.023758
C3    C     C_R   0.466286 0.553649 0.021596 0.094271
C4    C     C_R   0.742788 0.499895 0.503853 1.038129
C5    C     C_R   0.505276 0.557527 0.125477 0.086997
C6    C     C_R   0.450101 0.365253 0.138714 0.092345
C7    C     C_R   0.431698 0.357028 0.031794 -0.229358
C8    C     C_R   0.395931 0.956445 0.392607 -0.046235
C9    C     C_R   0.402222 0.840270 0.404821 0.426222
C10   C     C_R   0.540393 0.856275 0.550063 0.175331
C11   C     C_R   0.530863 0.975316 0.545252 -0.033815
C12   C     C_3   0.122958 0.500362 0.511701 -0.188698
C13   C     C_R   0.462041 0.024656 0.462295 -0.028616
C14   C     C_R   0.459022 0.141777 0.451860 0.070543
C15   C     C_R   0.589108 0.161181 0.601733 0.190179
C16   C     C_R   0.501851 0.478365 0.298952 0.900086
C17   C     C_R   0.588116 0.046588 0.619057 0.025385
C18   C     C_R   0.258906 0.501055 0.509077 0.943017
C19   C     C_3   0.941185 0.408316 0.588246 0.320136
C20   C     C_3   0.084792 0.425627 0.604748 0.373303
C21   C     C_3   0.929535 0.462483 0.392609 0.290912
C22   C     C_3   0.919479 0.623378 0.540618 0.367571
C23   C     C_3   0.076356 0.448105 0.400128 0.361665
C24   C     C_3   0.880572 0.498668 0.506383 -0.237954
C25   C     C_3   0.063963 0.627074 0.531470 0.026662
C26   C     C_R   0.489430 0.465387 0.186313 -0.102151
C27   C     C_R   0.448680 0.535439 0.807581 -0.152838
C28   C     C_R   0.449245 0.651494 0.965722 0.068373
C29   C     C_R   0.434549 0.642137 0.858005 0.293121
C30   C     C_R   0.432535 0.440627 0.863935 0.016904
Cl1   Cl    Cl    0.386970 0.763504 0.790986 -0.664894
Cl2   Cl    Cl    0.863284 0.416037 0.711381 -0.635799
Cl3   Cl    Cl    0.311830 0.758050 0.320684 -0.645236
Cl4   Cl    Cl    0.174134 0.289998 0.611774 -0.542484
Cl5   Cl    Cl    0.862124 0.337538 0.337014 -0.560047
Cl6   Cl    Cl    0.131514 0.302345 0.380190 -0.508323
Cl7   Cl    Cl    0.867752 0.658416 0.671701 -0.600914
H1    H     H_    0.407667 0.277639 0.996883 0.145994
H2    H     H_    0.226047 0.490436 0.316009 0.215629
H3    H     H_    0.656591 0.618228 0.199843 0.179716
H4    H     H_    0.523767 0.703472 0.212735 0.262184
H5    H     H_    0.486178 0.202956 0.170751 0.198303
H6    H     H_    0.337315 0.251942 0.184760 0.215968
H7    H     H_    0.506387 0.807656 0.989769 0.229463
H8    H     H_    0.352739 0.797934 0.004580 0.242001
H9    H     H_    0.478611 0.275965 0.830020 0.212164
H10   H     H_    0.323791 0.311737 0.833358 0.210839
H11   H     H_    0.744155 0.190142 0.686658 0.168458
H12   H     H_    0.404840 0.181062 0.390216 0.195690
H13   H     H_    0.673261 0.300636 0.642941 0.280309
H14   H     H_    0.230204 0.987439 0.319011 0.260050
H15   H     H_    0.352419 0.969330 0.239379 0.216310
H16   H     H_    0.599444 0.052601 0.777196 0.225179
H17   H     H_    0.734701 0.012026 0.717848 0.195935
H18   H     H_    0.590394 0.813656 0.696722 0.270796
H19   H     H_    0.708776 0.831107 0.617559 0.216988
H20   H     H_    0.122939 0.421275 0.764987 0.243783
H21   H     H_    0.049965 0.538621 0.733901 0.290192
H22   H     H_    0.864428 0.716982 0.404538 0.181444
H23   H     H_    0.839512 0.273211 0.531171 0.231671
H24   H     H_    0.878089 0.792042 0.515285 0.186126
H25   H     H_    0.208073 0.691349 0.625468 0.261031
H26   H     H_    0.072745 0.760623 0.640064 0.234905
H27   H     H_    0.954018 0.236694 0.606241 0.241941
H28   H     H_    0.050794 0.679711 0.375811 0.236898
H29   H     H_    0.078407 0.781707 0.465360 0.200177
H30   H     H_    0.907078 0.518612 0.242429 0.233974
H31   H     H_    0.792396 0.559033 0.319429 0.182126
H32   H     H_    0.104149 0.462987 0.243088 0.222654
N1    N     N_R   0.523380 0.207800 0.519350 -0.131538
N2    N     N_3   0.408677 0.336303 0.810468 -0.374333
N3    N     N_3   0.655424 0.228139 0.676093 -0.418917
N4    N     N_3   0.321808 0.005474 0.310287 -0.428137
N5    N     N_3   0.639363 0.005363 0.715016 -0.468367
N6    N     N_3   0.622506 0.799562 0.621651 -0.314649
N7    N     N_3   0.116529 0.479395 0.707000 -0.432488
N8    N     N_3   0.852857 0.714968 0.483716 -0.416560
N9    N     N_3   0.114397 0.679903 0.628600 -0.392972
N10   N     N_R   0.476620 0.792180 0.480650 -0.134001
N11   N     N_3   0.929570 0.291961 0.547701 -0.315182
N12   N     N_3   0.096201 0.696717 0.446146 -0.376443
N13   N     N_3   0.888356 0.547383 0.318567 -0.501001
N14   N     N_3   0.129906 0.502771 0.313596 -0.438467
N15   N     N_3   0.575358 0.648863 0.162936 -0.426108
N16   N     N_3   0.428914 0.271155 0.197969 -0.418720
N17   N     N_3   0.440553 0.759375 0.019058 -0.415856
O1    O     O_R   0.506240 0.421700 0.658830 -0.606033
O2    O     O_R   0.491240 0.609310 0.646410 -0.574017
O3    O     O_R   0.692710 0.406190 0.506230 -0.642119
O4    O     O_R   0.677700 0.593810 0.493810 -0.586645
O5    O     O_R   0.508760 0.390690 0.353590 -0.586750
O6    O     O_R   0.493760 0.578300 0.341170 -0.609271
O7    O     O_R   0.322300 0.406190 0.506190 -0.542764
O8    O     O_R   0.307290 0.593810 0.493770 -0.589240
Zn1   Zn    Zn3+2 0.510020 0.374730 0.508290 1.028666
Zn2   Zn    Zn3+2 0.489980 0.625270 0.491710 1.031047

loop_
_geom_bond_atom_site_label_1
_geom_bond_atom_site_label_2
_ccdc_geom_bond_type
C1    O1    A    
C25   N12   S    
O2    Zn2   S    
C8    C13   A    
C27   C29   A    
C14   N1    A    
H3    N15   S    
C19   C20   S    
H22   N8    S    
C30   N2    S    
H21   N7    S    
H16   N5    S    
C15   N3    S    
C12   C23   S    
C6    N16   S    
C23   N14   S    
C11   C13   A    
H20   N7    S    
C28   C29   A    
C4    C24   S    
C14   H12   S    
O6    Zn2   S    
C20   N7    S    
C9    N10   A    
H13   N3    S    
H17   N5    S    
C11   C17   A    
C2    C7    A    
H24   N8    S    
C8    C9    A    
C22   C25   S    
O1    Zn1   S    
C20   Cl4   S    
C1    O2    A    
O7    Zn1   S    
H19   N6    S    
C13   C14   A    
C27   C30   A    
C9    Cl3   S    
H27   N11   S    
H11   N3    S    
H7    N17   S    
C19   Cl2   S    
C4    O4    A    
C16   C26   S    
C25   N9    S    
H6    N16   S    
H15   N4    S    
C5    N15   S    
H4    N15   S    
O3    Zn1   S    
N1    Zn1   S    
H32   N14   S    
C10   N6    S    
H28   N12   S    
C12   C20   S    
H5    N16   S    
O8    Zn2   S    
H10   N2    S    
H9    N2    S    
H30   N13   S    
C16   O6    A    
C21   C23   S    
C28   N17   S    
C17   N5    S    
C18   O8    A    
C22   C24   S    
C4    O3    A    
C15   C17   A    
C15   N1    A    
C3    C28   A    
H23   N11   S    
C19   C24   S    
H25   N9    S    
H14   N4    S    
C22   N8    S    
C3    C5    A    
C10   N10   A    
O4    Zn2   S    
C6    C7    A    
C21   Cl5   S    
C12   C25   S    
C2    C30   A    
H31   N13   S    
H8    N17   S    
H18   N6    S    
N10   Zn2   S    
C29   Cl1   S    
H29   N12   S    
C22   Cl7   S    
C6    C26   A    
C8    N4    S    
C7    H1    S    
C2    C3    A    
C19   N11   S    
H2    N14   S    
C10   C11   A    
O5    Zn1   S    
C5    C26   A    
C21   N13   S    
C16   O5    A    
C23   Cl6   S    
C21   C24   S    
C12   C18   S    
C1    C27   S    
C18   O7    A    
H26   N9    S    
