data_mof_unit_26789.cif
_audit_creation_date              2012-12-11T17:36:17-0500
_audit_creation_method            fapswitch 2.2
_symmetry_space_group_name_H-M    P1
_symmetry_Int_Tables_number       1
_space_group_crystal_system       triclinic
_cell_length_a                    25.916275
_cell_length_b                    6.90187
_cell_length_c                    21.595929
_cell_angle_alpha                 89.999584
_cell_angle_beta                  96.08496
_cell_angle_gamma                 90.0
_cell_volume                      3841.11602847

loop_
_atom_site_label
_atom_site_type_symbol
_atom_type_description
_atom_site_fract_x
_atom_site_fract_y
_atom_site_fract_z
_atom_type_partial_charge
O1    O     O_R   0.208650 0.594520 0.175450 -0.533954
O2    O     O_R   0.791350 0.405480 0.824550 -0.533953
O3    O     O_R   0.291350 0.094520 0.324550 -0.533952
O4    O     O_R   0.708650 0.905480 0.675450 -0.533951
O5    O     O_R   0.192980 0.260780 0.300160 -0.540891
O6    O     O_R   0.807020 0.739220 0.699840 -0.540892
O7    O     O_R   0.307020 0.760780 0.199840 -0.540892
O8    O     O_R   0.692980 0.239220 0.800160 -0.540892
C1    C     C_R   0.178874 0.432736 0.318455 0.691793
C2    C     C_R   0.821125 0.567264 0.681544 0.691791
C3    C     C_R   0.321125 0.932736 0.181544 0.691790
C4    C     C_R   0.678875 0.067264 0.818456 0.691791
O9    O     O_R   0.202550 0.264660 0.174420 -0.537434
O10   O     O_R   0.797450 0.735340 0.825580 -0.537435
O11   O     O_R   0.297450 0.764660 0.325580 -0.537435
O12   O     O_R   0.702550 0.235340 0.674420 -0.537436
O13   O     O_R   0.300990 0.096480 0.197920 -0.538048
O14   O     O_R   0.699010 0.903520 0.802080 -0.538047
O15   O     O_R   0.199010 0.596480 0.302080 -0.538048
O16   O     O_R   0.800990 0.403520 0.697920 -0.538047
C5    C     C_R   0.191106 0.433584 0.150998 0.693914
C6    C     C_R   0.808894 0.566415 0.849001 0.693916
C7    C     C_R   0.308894 0.933584 0.349002 0.693914
C8    C     C_R   0.691105 0.066416 0.650998 0.693914
O17   O     O_3   0.282290 0.427760 0.257860 -0.363833
O18   O     O_3   0.717710 0.572240 0.742140 -0.363833
O19   O     O_3   0.217710 0.927760 0.242140 -0.363834
O20   O     O_3   0.782290 0.072240 0.757860 -0.363833
V1    V     V_3+5 0.244010 0.152080 0.248540 1.411996
V2    V     V_3+5 0.755990 0.847920 0.751460 1.411998
V3    V     V_3+5 0.255990 0.652080 0.251460 1.411994
V4    V     V_3+5 0.744010 0.347920 0.748540 1.411997
C9    C     C_R   0.657596 0.058033 0.591430 -0.042438
C10   C     C_R   0.342403 0.941961 0.408571 -0.042440
C11   C     C_R   0.842404 0.558039 0.908570 -0.042442
C12   C     C_R   0.157597 0.441957 0.091429 -0.042445
C13   C     C_R   0.649008 0.071473 0.479302 -0.169728
C14   C     C_R   0.350993 0.928433 0.520697 -0.169733
C15   C     C_R   0.850994 0.571628 0.020701 -0.169718
C16   C     C_R   0.149004 0.428311 0.979303 -0.169727
C17   C     C_R   0.679709 0.080032 0.536032 -0.161736
C18   C     C_R   0.320291 0.919899 0.463966 -0.161731
C19   C     C_R   0.820292 0.580136 0.963969 -0.161733
C20   C     C_R   0.179706 0.419815 0.036034 -0.161730
C21   C     C_R   0.603854 0.030609 0.589877 -0.199283
C22   C     C_R   0.396143 0.969416 0.410126 -0.199300
C23   C     C_R   0.896145 0.530568 0.910123 -0.199284
C24   C     C_R   0.103858 0.469456 0.089874 -0.199297
C25   C     C_R   0.570797 0.026446 0.532462 0.079034
C26   C     C_R   0.429202 0.973521 0.467540 0.079036
C27   C     C_R   0.929203 0.526463 0.967539 0.079037
C28   C     C_R   0.070798 0.473528 0.032461 0.079035
C29   C     C_R   0.594643 0.043339 0.476088 0.077770
C30   C     C_R   0.405357 0.956585 0.523912 0.077773
C31   C     C_R   0.905358 0.543459 0.023915 0.077767
C32   C     C_R   0.094641 0.456504 0.976088 0.077772
C33   C     C_R   0.515287 0.005187 0.529431 0.007552
C34   C     C_R   0.484712 0.994764 0.470571 0.007556
C35   C     C_R   0.984712 0.505172 0.970569 0.007554
C36   C     C_R   0.015288 0.494814 0.029431 0.007561
C37   C     C_R   0.510430 0.003872 0.416251 -0.176621
C38   C     C_R   0.489570 0.996031 0.583750 -0.176619
C39   C     C_R   0.989571 0.504036 0.083756 -0.176623
C40   C     C_R   0.010427 0.495925 0.916247 -0.176624
C41   C     C_R   0.564251 0.030342 0.417641 0.111794
C42   C     C_R   0.435750 0.969547 0.582359 0.111797
C43   C     C_R   0.935752 0.530537 0.082365 0.111776
C44   C     C_R   0.064247 0.469414 0.917639 0.111786
H1    H     H_    0.410256 0.988123 0.365435 0.086950
H2    H     H_    0.589740 0.011980 0.634572 0.086936
H3    H     H_    0.089748 0.488208 0.134564 0.086955
H4    H     H_    0.910257 0.511870 0.865428 0.086937
H5    H     H_    0.278837 0.897706 0.463344 0.100361
H6    H     H_    0.721165 0.102199 0.536652 0.100357
H7    H     H_    0.221159 0.397582 0.036656 0.100361
H8    H     H_    0.778837 0.602345 0.963349 0.100358
H9    H     H_    0.668880 0.087386 0.438080 0.108025
H10   H     H_    0.331122 0.912479 0.561916 0.108029
H11   H     H_    0.831124 0.587618 0.061923 0.108018
H12   H     H_    0.168872 0.412291 0.938083 0.108026
H13   H     H_    0.488908 0.988680 0.371598 0.139835
H14   H     H_    0.511094 0.011163 0.628402 0.139838
H15   H     H_    0.011094 0.488920 0.128413 0.139833
H16   H     H_    0.988903 0.511008 0.871593 0.139836
C45   C     C_R   0.437798 0.800521 0.094799 0.173866
C46   C     C_R   0.562203 0.199489 0.905200 0.173868
C47   C     C_R   0.062203 0.300488 0.405199 0.173843
C48   C     C_R   0.937802 0.699461 0.594803 0.173883
C49   C     C_R   0.397435 0.788229 0.133818 -0.209135
C50   C     C_R   0.602565 0.211774 0.866180 -0.209147
C51   C     C_R   0.102566 0.288215 0.366180 -0.209205
C52   C     C_R   0.897438 0.711759 0.633820 -0.209154
H17   H     H_    0.393211 0.657449 0.160578 0.123802
H18   H     H_    0.606790 0.342551 0.839419 0.123805
H19   H     H_    0.106795 0.157437 0.339421 0.123804
H20   H     H_    0.893215 0.842539 0.660580 0.123803
C53   C     C_R   0.363354 0.944486 0.139630 -0.079188
C54   C     C_R   0.636646 0.055517 0.860370 -0.079186
C55   C     C_R   0.136644 0.444481 0.360368 -0.079171
C56   C     C_R   0.863354 0.555510 0.639631 -0.079189
C57   C     C_R   0.369908 0.113596 0.104905 -0.173353
C58   C     C_R   0.630092 0.886409 0.895096 -0.173356
C59   C     C_R   0.130084 0.613592 0.395088 -0.173362
C60   C     C_R   0.869907 0.386398 0.604907 -0.173335
H21   H     H_    0.344262 0.236415 0.107819 0.126265
H22   H     H_    0.655738 0.763589 0.892183 0.126264
H23   H     H_    0.155727 0.736421 0.392173 0.126269
H24   H     H_    0.844259 0.263584 0.607819 0.126267
C61   C     C_R   0.409018 0.125809 0.065072 -0.192047
C62   C     C_R   0.590982 0.874200 0.934929 -0.192056
C63   C     C_R   0.090974 0.625790 0.434922 -0.192079
C64   C     C_R   0.909019 0.374177 0.565076 -0.192080
H25   H     H_    0.412447 0.256804 0.038157 0.118749
H26   H     H_    0.587552 0.743207 0.961845 0.118746
H27   H     H_    0.087540 0.756787 0.461834 0.118752
H28   H     H_    0.912447 0.243181 0.538161 0.118741
C65   C     C_R   0.443319 0.971343 0.059677 0.112666
C66   C     C_R   0.556681 0.028670 0.940324 0.112694
C67   C     C_R   0.056678 0.471307 0.440321 0.112768
C68   C     C_R   0.943322 0.528637 0.559682 0.112703
C69   C     C_1   0.483343 0.991297 0.017557 -0.057541
C70   C     C_1   0.516658 0.008720 0.982445 -0.057502
C71   C     C_1   0.016658 0.491249 0.482446 -0.057472
C72   C     C_1   0.983344 0.508677 0.517560 -0.057571
C73   C     C_3   0.590138 0.043166 0.357116 -0.351888
C74   C     C_3   0.554917 0.024100 0.295805 -0.774536
H29   H     H_    0.535512 0.880384 0.292771 0.223785
H30   H     H_    0.525612 0.142121 0.291264 0.228286
H31   H     H_    0.578739 0.036179 0.256152 0.221047
H32   H     H_    0.610111 0.185440 0.355951 0.179589
H33   H     H_    0.619800 0.926719 0.357449 0.179033
C75   C     C_3   0.409863 0.956670 0.642882 -0.351903
C76   C     C_3   0.445085 0.975711 0.704193 -0.774532
H34   H     H_    0.474391 0.857696 0.708729 0.228288
H35   H     H_    0.464488 0.119428 0.707235 0.223796
H36   H     H_    0.421263 0.963607 0.743845 0.221054
H37   H     H_    0.380200 0.073102 0.642556 0.179036
H38   H     H_    0.389894 0.814389 0.644037 0.179595
C77   C     C_3   0.909865 0.543480 0.142893 -0.351839
C78   C     C_3   0.945088 0.524490 0.204209 -0.774510
H39   H     H_    0.964488 0.380759 0.207266 0.223775
H40   H     H_    0.974396 0.642508 0.208729 0.228282
H41   H     H_    0.921266 0.536647 0.243864 0.221027
H42   H     H_    0.889898 0.685778 0.144036 0.179582
H43   H     H_    0.880200 0.427045 0.142582 0.179021
C79   C     C_3   0.090131 0.456447 0.857114 -0.351892
C80   C     C_3   0.054909 0.475449 0.795800 -0.774482
H44   H     H_    0.025599 0.357443 0.791278 0.228278
H45   H     H_    0.035511 0.619179 0.792744 0.223789
H46   H     H_    0.078730 0.463289 0.756147 0.221043
H47   H     H_    0.119801 0.572861 0.857425 0.179029
H48   H     H_    0.110094 0.314145 0.855974 0.179591
C81   C     C_3   0.474172 0.630284 0.091464 -0.380392
C82   C     C_3   0.526600 0.669082 0.128619 -0.744256
H49   H     H_    0.546171 0.795303 0.109437 0.229505
H50   H     H_    0.521344 0.697641 0.178208 0.226889
H51   H     H_    0.551937 0.540083 0.126257 0.215966
H52   H     H_    0.457413 0.498062 0.110817 0.181402
H53   H     H_    0.479612 0.598183 0.042160 0.176456
C83   C     C_3   0.525830 0.369732 0.908535 -0.380379
C84   C     C_3   0.473394 0.330923 0.871403 -0.744592
H54   H     H_    0.478633 0.302179 0.821837 0.226969
H55   H     H_    0.453816 0.204863 0.890628 0.229567
H56   H     H_    0.448074 0.459943 0.873719 0.216014
H57   H     H_    0.520405 0.401876 0.957839 0.176462
H58   H     H_    0.542585 0.501933 0.889164 0.181434
C85   C     C_3   0.025837 0.130223 0.408533 -0.380379
C86   C     C_3   0.973381 0.169070 0.371452 -0.744455
H59   H     H_    0.953751 0.294789 0.390827 0.229509
H60   H     H_    0.978599 0.198416 0.321906 0.226969
H61   H     H_    0.948116 0.039818 0.373634 0.216001
H62   H     H_    0.042580 0.998071 0.389118 0.181428
H63   H     H_    0.020444 0.097975 0.457839 0.176453
C87   C     C_3   0.974177 0.869694 0.591468 -0.380368
C88   C     C_3   0.026611 0.830873 0.628603 -0.744599
H64   H     H_    0.021370 0.802144 0.678170 0.226964
H65   H     H_    0.046187 0.704798 0.609383 0.229566
H66   H     H_    0.051936 0.959881 0.626285 0.216013
H67   H     H_    0.979606 0.901830 0.542164 0.176483
H68   H     H_    0.957424 0.001901 0.610836 0.181432

loop_
_geom_bond_atom_site_label_1
_geom_bond_atom_site_label_2
_ccdc_geom_bond_type
O17   V3    S    
C55   C59   A    
O1    C5    A    
C74   H29   S    
C47   C51   A    
O19   V1    S    
O13   V1    S    
O3    C7    A    
C80   H44   S    
C10   C18   A    
C78   H41   S    
C56   C60   A    
O15   V3    S    
C11   C19   A    
C62   C66   A    
C84   H54   S    
C48   C87   S    
C71   C72   T    
C88   H65   S    
C5    C12   S    
O7    C3    A    
C6    C11   S    
C35   C40   A    
C26   C30   A    
C36   C39   A    
C40   C44   A    
O2    V4    S    
O9    V1    S    
C80   H45   S    
C78   H40   S    
C14   C18   A    
O4    C8    A    
C75   H38   S    
C39   H15   S    
C60   H24   S    
O1    V3    S    
C9    C21   A    
C59   C63   A    
C66   C70   S    
C81   H52   S    
O3    V1    S    
C65   C69   S    
C87   C88   S    
C40   H16   S    
C22   H1    S    
C28   C36   A    
C17   H6    S    
C68   C72   S    
C73   H32   S    
C1    O15   A    
C86   H61   S    
C47   C85   S    
C48   C52   A    
C2    O16   A    
C75   C76   S    
C16   C32   A    
O2    C6    A    
C76   H36   S    
C16   H12   S    
C58   H22   S    
C10   C22   A    
C83   H58   S    
C48   C68   A    
C43   C77   S    
C62   H26   S    
C16   C20   A    
C82   H50   S    
C61   H25   S    
C85   H63   S    
C13   C29   A    
C34   C37   A    
C86   H60   S    
C38   H14   S    
C57   C61   A    
C11   C23   A    
C35   C36   A    
O12   C8    A    
C57   H21   S    
O10   V2    S    
C84   H55   S    
C50   H18   S    
C88   H66   S    
O5    V1    S    
C52   H20   S    
O17   V1    S    
C15   C31   A    
O7    V3    S    
C38   C42   A    
C61   C65   A    
O8    V4    S    
C33   C38   A    
C80   H46   S    
C78   H39   S    
C82   H51   S    
C46   C50   A    
C85   C86   S    
C60   C64   A    
C45   C49   A    
O18   V4    S    
C15   C19   A    
C14   H10   S    
C74   H31   S    
C75   H37   S    
C32   C44   A    
C13   H9    S    
C49   H17   S    
C49   C53   A    
C15   H11   S    
C37   H13   S    
C81   H53   S    
C20   H7    S    
C2    C56   S    
C39   C43   A    
C47   C67   A    
C63   H27   S    
C77   H42   S    
C73   H33   S    
C31   C43   A    
C88   H64   S    
C14   C30   A    
O20   V4    S    
O8    C4    A    
C7    C10   S    
C29   C41   A    
C21   C25   A    
C69   C70   T    
C26   C34   A    
O9    C5    A    
C46   C66   A    
C45   C81   S    
C83   H57   S    
C45   C65   A    
C82   H49   S    
C79   H48   S    
C63   C67   A    
C86   H59   S    
O6    V2    S    
O18   V2    S    
O19   V3    S    
C73   C74   S    
C12   C20   A    
C27   C35   A    
C24   H3    S    
C87   H68   S    
C64   H28   S    
C84   H56   S    
C44   C79   S    
C52   C56   A    
C64   C68   A    
C79   C80   S    
O16   V4    S    
C19   H8    S    
C77   H43   S    
C18   H5    S    
C74   H30   S    
C21   H2    S    
C4    C54   S    
O5    C1    A    
C3    O13   A    
O6    C2    A    
C25   C33   A    
C23   C27   A    
C77   C78   S    
O11   V3    S    
C85   H62   S    
C30   C42   A    
C67   C71   S    
O12   V4    S    
C22   C26   A    
C8    C9    S    
C42   C75   S    
C3    C53   S    
C9    C17   A    
C83   C84   S    
O10   C6    A    
O20   V2    S    
C54   C58   A    
C33   C34   A    
C76   H34   S    
C25   C29   A    
O11   C7    A    
C12   C24   A    
C27   C31   A    
C13   C17   A    
O4    V2    S    
C23   H4    S    
C58   C62   A    
O14   V2    S    
C51   H19   S    
C79   H47   S    
C37   C41   A    
C24   C28   A    
C1    C55   S    
C4    O14   A    
C76   H35   S    
C59   H23   S    
C51   C55   A    
C81   C82   S    
C46   C83   S    
C87   H67   S    
C50   C54   A    
C53   C57   A    
C28   C32   A    
C41   C73   S    
