data_mof_unit_36687.cif
_audit_creation_date              2012-12-11T18:13:27-0500
_audit_creation_method            fapswitch 2.2
_symmetry_space_group_name_H-M    P1
_symmetry_Int_Tables_number       1
_space_group_crystal_system       triclinic
_cell_length_a                    8.222466
_cell_length_b                    12.772963
_cell_length_c                    18.747236
_cell_angle_alpha                 99.773607
_cell_angle_beta                  91.40831
_cell_angle_gamma                 99.045957
_cell_volume                      1913.56289822

loop_
_atom_site_label
_atom_site_type_symbol
_atom_type_description
_atom_site_fract_x
_atom_site_fract_y
_atom_site_fract_z
_atom_type_partial_charge
Ba1   Ba    Ba6+2 0.852780 0.548340 0.465070 1.653064
Ba2   Ba    Ba6+2 0.337060 0.451750 0.534940 1.651814
C1    C     C_3   0.597050 0.882208 0.224990 -0.389230
C2    C     C_R   0.889605 0.394257 0.094444 0.029868
C3    C     C_R   0.725975 0.349708 0.071231 -0.088977
C4    C     C_3   0.156541 0.795536 0.265031 0.301964
C5    C     C_R   0.664955 0.356258 0.002101 -0.089607
C6    C     C_R   0.767125 0.405990 0.954343 0.031972
C7    C     C_R   0.931566 0.450999 0.976783 0.016408
C8    C     C_R   0.707445 0.409920 0.884345 -0.113154
C9    C     C_R   0.810809 0.455490 0.834687 -0.042730
C10   C     C_R   0.974832 0.504643 0.857750 0.007567
C11   C     C_R   0.034334 0.501861 0.929090 -0.009606
C12   C     C_3   0.621543 0.812277 0.281161 0.413040
C13   C     C_R   0.756610 0.450749 0.762023 -0.017369
C14   C     C_R   0.865796 0.492070 0.713600 -0.264974
C15   C     C_R   0.023809 0.548803 0.735990 0.008772
C16   C     C_3   0.060765 0.774091 0.191144 -0.090994
C17   C     C_R   0.079678 0.555883 0.809716 -0.034170
C18   C     C_R   0.156026 0.491795 0.070510 -0.002042
C19   C     C_R   0.214369 0.491834 0.142451 0.011932
C20   C     C_R   0.107891 0.444506 0.191426 -0.036592
C21   C     C_R   0.949846 0.389998 0.164568 -0.062395
C22   C     C_R   0.237347 0.610017 0.836878 -0.055628
C23   C     C_3   0.447230 0.246596 0.306936 0.498322
C24   C     C_R   0.298543 0.603558 0.906496 0.040874
C25   C     C_R   0.197529 0.548354 0.952496 0.014189
C26   C     C_R   0.259172 0.541777 0.022623 0.026640
C27   C     C_R   0.460527 0.650761 0.930806 -0.087357
C28   C     C_3   0.118882 0.811201 0.677792 0.410500
C29   C     C_R   0.523507 0.640742 0.998746 -0.088348
C30   C     C_R   0.423447 0.587225 0.045250 0.030588
C31   C     C_R   0.378735 0.540404 0.165332 -0.039334
C32   C     C_R   0.483389 0.583218 0.115141 -0.126588
C33   C     C_R   0.431126 0.549091 0.238594 -0.010109
C34   C     C_3   0.410083 0.183640 0.228310 0.096167
C35   C     C_R   0.320702 0.511348 0.287749 -0.280040
C36   C     C_R   0.163004 0.455140 0.265585 0.049901
C37   C     C_R   0.747159 0.184387 0.542777 -0.235702
C38   C     C_R   0.427475 0.807294 0.469695 -0.242814
C39   C     C_R   0.400904 0.983550 0.445617 -0.113316
C40   C     C_3   0.092822 0.846353 0.758228 -0.358602
C41   C     C_R   0.338303 0.874751 0.439186 -0.039347
C42   C     C_R   0.576251 0.848286 0.509962 0.076112
C43   C     C_R   0.638949 0.960625 0.519253 -0.054846
C44   C     C_R   0.549562 0.028546 0.486235 -0.056526
C45   C     C_3   0.004932 0.200209 0.735312 0.322643
C46   C     C_R   0.608610 0.140492 0.496591 0.052252
C47   C     C_R   0.846962 0.118043 0.567621 -0.023742
C48   C     C_R   0.789686 0.007204 0.558717 -0.107676
C49   C     C_3   0.000421 0.193885 0.368199 0.381087
C50   C     C_3   0.891035 0.083532 0.348794 -0.102573
C51   C     C_3   0.687825 0.701210 0.684124 0.383513
C52   C     C_3   0.657198 0.732437 0.763665 -0.382922
C53   C     C_3   0.075356 0.219175 0.813051 -0.325526
C54   C     C_3   0.538376 0.182262 0.698499 0.403456
C55   C     C_3   0.520850 0.077840 0.728381 -0.360347
C56   C     C_R   0.992509 0.445804 0.047301 0.010701
H1    H     H_    0.691193 0.862749 0.329788 0.071017
H2    H     H_    0.652446 0.660474 0.789740 0.061241
H3    H     H_    0.538942 0.763757 0.769315 0.124288
H4    H     H_    0.498443 0.778233 0.298011 -0.139021
H5    H     H_    0.497606 0.840304 0.184668 0.081365
H6    H     H_    0.332193 0.271237 0.328226 -0.042210
H7    H     H_    0.528818 0.164824 0.206057 0.089541
H8    H     H_    0.710136 0.897932 0.194929 0.147353
H9    H     H_    0.970325 0.277371 0.724924 -0.004678
H10   H     H_    0.894073 0.136739 0.729580 -0.021670
H11   H     H_    0.183632 0.284814 0.820998 0.151591
H12   H     H_    0.212080 0.884813 0.787528 0.119738
H13   H     H_    0.980324 0.242960 0.850844 0.057503
H14   H     H_    0.113815 0.144418 0.825553 0.109820
H15   H     H_    0.670453 0.206699 0.688946 -0.126559
H16   H     H_    0.464320 0.167565 0.646340 0.090804
H17   H     H_    0.391139 0.053732 0.741764 0.156053
H18   H     H_    0.601618 0.088938 0.778352 0.094933
H19   H     H_    0.644445 0.310845 0.106921 0.072936
H20   H     H_    0.537790 0.321748 0.985815 0.070485
H21   H     H_    0.824384 0.483202 0.657341 0.063926
H22   H     H_    0.869494 0.346837 0.198329 0.111735
H23   H     H_    0.005830 0.905201 0.765061 0.086050
H24   H     H_    0.315530 0.654980 0.803549 0.084363
H25   H     H_    0.539000 0.695990 0.897600 0.063263
H26   H     H_    0.649533 0.677421 0.015681 0.075700
H27   H     H_    0.610334 0.618142 0.130529 0.107990
H28   H     H_    0.269993 0.854471 0.264093 -0.028117
H29   H     H_    0.360516 0.522567 0.344314 0.060388
H30   H     H_    0.326872 0.032523 0.421679 0.095010
H31   H     H_    0.865800 0.958748 0.581393 0.093909
H32   H     H_    0.788076 0.270604 0.552624 0.064809
H33   H     H_    0.376171 0.722961 0.465384 0.075347
H34   H     H_    0.041759 0.775819 0.782654 0.046199
H35   H     H_    0.983920 0.837538 0.188227 0.146250
H36   H     H_    0.002679 0.773287 0.647749 0.057722
H37   H     H_    0.063680 0.285075 0.468260 0.238865
H38   H     H_    0.873829 0.295185 0.434876 0.188773
H39   H     H_    0.909538 0.034637 0.391144 0.106255
H40   H     H_    0.914829 0.071928 0.238617 0.206999
H41   H     H_    0.050011 0.014242 0.282006 0.220488
H42   H     H_    0.804463 0.669898 0.679212 -0.118134
H43   H     H_    0.543745 0.404173 0.346320 0.174406
H44   H     H_    0.565290 0.369606 0.257670 0.150509
H45   H     H_    0.128744 0.179184 0.369713 0.054422
H46   H     H_    0.291226 0.038209 0.174376 0.166243
H47   H     H_    0.343154 0.037759 0.261215 0.180084
H48   H     H_    0.215123 0.248797 0.194598 0.185438
H49   H     H_    0.339900 0.212303 0.128586 0.174159
H50   H     H_    0.233386 0.848997 0.131521 0.172051
H51   H     H_    0.256395 0.722576 0.138876 0.176513
H52   H     H_    0.556995 0.013020 0.687533 0.091103
H53   H     H_    0.189980 0.718000 0.275248 -0.008234
H54   H     H_    0.580256 0.375558 0.869086 0.108939
H55   H     H_    0.977144 0.695486 0.184656 0.149487
H56   H     H_    0.759555 0.092751 0.347175 0.122420
H57   H     H_    0.096117 0.956964 0.650898 0.166253
H58   H     H_    0.196776 0.880792 0.591488 0.175654
H59   H     H_    0.589727 0.634986 0.660454 0.105606
H60   H     H_    0.566329 0.960030 0.251953 0.083756
H61   H     H_    0.756832 0.796038 0.791153 0.099357
N1    N     N_3   0.957677 0.243098 0.439239 -0.536386
N2    N     N_3   0.928041 0.025845 0.278829 -0.500881
N3    N     N_3   0.570068 0.342088 0.306845 -0.435020
N4    N     N_3   0.296563 0.083086 0.226712 -0.525029
N5    N     N_3   0.338800 0.249149 0.182797 -0.546825
N6    N     N_3   0.169740 0.771324 0.130908 -0.527266
N7    N     N_3   0.183819 0.905733 0.646849 -0.475307
O1    O     O_2   0.873090 0.425890 0.325140 -0.423125
O2    O     O_2   0.185054 0.121281 0.551877 -0.479116
O3    O     O_3   0.123023 0.164950 0.688150 -0.576550
O4    O     O_3   0.122420 0.434370 0.414380 -0.510961
O5    O     O_3   0.578370 0.633800 0.536380 -0.493793
O6    O     O_2   0.341510 0.231850 0.465510 -0.490338
O7    O     O_3   0.510409 0.178787 0.348898 -0.667267
O8    O     O_2   0.415937 0.454893 0.755539 -0.480781
O9    O     O_3   0.479910 0.260887 0.748382 -0.590146
O10   O     O_3   0.659500 0.627100 0.368810 -0.470604
O11   O     O_2   0.769681 0.540866 0.244933 -0.485574
O12   O     O_3   0.694257 0.792071 0.650771 -0.647985
O13   O     O_3   0.974872 0.254399 0.313823 -0.634251
O14   O     O_3   0.715496 0.734906 0.250881 -0.591693
O15   O     O_2   0.848200 0.768190 0.534530 -0.472449
O16   O     O_3   0.081160 0.685950 0.404810 -0.459070
O17   O     O_2   0.005723 0.876096 0.454753 -0.475364
O18   O     O_3   0.057756 0.840225 0.318152 -0.580867
O19   O     O_2   0.316610 0.574140 0.674900 -0.454289
O20   O     O_3   0.067290 0.565720 0.585630 -0.480378
O21   O     O_3   0.530210 0.372990 0.631200 -0.481248
O22   O     O_3   0.235294 0.741896 0.670378 -0.603242
O23   O     O_3   0.611340 0.366290 0.463630 -0.477140
O24   O     O_3   0.108550 0.314140 0.595200 -0.472182
P1    P     P_3+3 0.041040 0.394770 0.336330 0.970723
P2    P     P_3+3 0.672880 0.754030 0.556100 0.985300
P3    P     P_3+3 0.125049 0.822653 0.403695 0.973636
P4    P     P_3+3 0.148670 0.605320 0.663680 0.981530
P5    P     P_3+3 0.062743 0.177105 0.600240 0.958912
P6    P     P_3+3 0.641952 0.610880 0.274960 0.960571
P7    P     P_3+3 0.522803 0.229473 0.442698 0.928329
P8    P     P_3+3 0.546480 0.387157 0.725156 0.955478

loop_
_geom_bond_atom_site_label_1
_geom_bond_atom_site_label_2
_ccdc_geom_bond_type
Ba2   O24   S    
H40   N2    S    
C28   N7    S    
C4    H53   S    
C36   P1    S    
O5    P2    S    
C5    C6    A    
H46   N4    S    
C52   H2    S    
C43   C44   A    
Ba2   O19   S    
C12   H1    S    
C24   C25   A    
C42   P2    S    
H57   N7    S    
C45   O3    S    
C55   H18   S    
C33   C35   A    
C22   C24   A    
C27   H25   S    
C16   N6    S    
O10   P6    S    
C51   H59   S    
O17   P3    D    
C19   C31   A    
C49   H45   S    
C13   C14   A    
C12   H4    S    
C50   H39   S    
C40   H12   S    
C54   C55   S    
H47   N4    S    
Ba1   P2    S    
Ba1   Ba2   S    
O18   P3    S    
C22   H24   S    
C7    C11   A    
Ba1   O16   S    
O2    P5    D    
O1    P1    D    
C9    C13   A    
C38   C41   A    
O16   P3    S    
C29   C30   A    
C14   C15   A    
O3    P5    S    
Ba2   O6    S    
C39   C44   A    
C8    H54   S    
H50   N6    S    
Ba1   O10   S    
C23   O7    S    
C23   N3    S    
C37   H32   S    
C40   H34   S    
C53   H14   S    
H41   N2    S    
C18   C56   A    
Ba2   O23   S    
Ba2   P4    S    
O9    P8    S    
H58   N7    S    
C52   H61   S    
H43   N3    S    
C39   C41   A    
Ba1   O20   S    
C40   H23   S    
O22   P4    S    
H49   N5    S    
C15   P4    S    
C16   H55   S    
C45   H9    S    
C49   N1    S    
C31   C32   A    
C51   H42   S    
C4    C16   S    
C44   C46   A    
C54   H16   S    
C49   C50   S    
C26   C30   A    
C34   N4    S    
C33   P6    S    
C13   P8    S    
Ba1   O4    S    
C3    C5    A    
C2    C21   A    
C34   H7    S    
C6    C7    A    
C18   C26   A    
O12   P2    S    
Ba2   O21   S    
C51   C52   S    
C29   H26   S    
C51   O12   S    
O11   P6    D    
C32   H27   S    
C30   C32   A    
C35   C36   A    
C1    H60   S    
C50   N2    S    
C48   H31   S    
C55   H52   S    
O20   P4    S    
C27   C29   A    
Ba2   O5    S    
C10   C11   A    
Ba1   O23   S    
C53   H11   S    
C1    C12   S    
H44   N3    S    
O14   P6    S    
C5    H20   S    
O19   P4    D    
H51   N6    S    
C37   C47   A    
C12   O14   S    
C50   H56   S    
O24   P5    S    
C21   H22   S    
C1    H8    S    
C3    H19   S    
C45   H10   S    
Ba2   O4    S    
C54   O9    S    
C42   C43   A    
C45   C53   S    
C39   H30   S    
C7    C56   A    
C54   H15   S    
C34   N5    S    
C28   C40   S    
H38   N1    S    
C35   H29   S    
Ba1   O1    S    
C2    C3    A    
Ba1   O5    S    
C9    C10   A    
C28   O22   S    
C52   H3    S    
C1    H5    S    
H37   N1    S    
Ba2   O20   S    
C46   P7    S    
O6    P7    D    
C4    H28   S    
C14   H21   S    
C55   H17   S    
C17   C22   A    
C28   H36   S    
C41   P3    S    
O23   P7    S    
C43   C48   A    
C10   C17   A    
O13   P1    S    
C31   C33   A    
Ba1   P1    S    
O7    P7    S    
O8    P8    D    
C38   H33   S    
C47   P5    S    
Ba1   O15   S    
C8    C9    A    
C23   C34   S    
C15   C17   A    
C38   C42   A    
C18   C19   A    
C24   C27   A    
C6    C8    A    
C47   C48   A    
C2    C56   A    
O4    P1    S    
C16   H35   S    
C20   C21   A    
C11   C25   A    
H48   N5    S    
C19   C20   A    
O21   P8    S    
C4    O18   S    
C23   H6    S    
C53   H13   S    
O15   P2    D    
C37   C46   A    
C25   C26   A    
C20   C36   A    
C49   O13   S    
