data_mof_unit_49321.cif
_audit_creation_date              2012-12-10T19:30:32-0500
_audit_creation_method            fapswitch 2.2
_symmetry_space_group_name_H-M    P1
_symmetry_Int_Tables_number       1
_space_group_crystal_system       triclinic
_cell_length_a                    14.929034
_cell_length_b                    15.753913
_cell_length_c                    15.478414
_cell_angle_alpha                 89.964106
_cell_angle_beta                  86.072993
_cell_angle_gamma                 90.121313
_cell_volume                      3631.8226244

loop_
_atom_site_label
_atom_site_type_symbol
_atom_type_description
_atom_site_fract_x
_atom_site_fract_y
_atom_site_fract_z
_atom_type_partial_charge
C1    C     C_R   0.500106 0.662494 0.499994 0.898622
C2    C     C_R   0.499887 0.337479 0.500140 0.874984
C3    C     C_3   0.488774 0.027847 0.421730 0.478440
C4    C     C_3   0.511216 0.971910 0.580950 0.481099
C5    C     C_3   0.569290 0.972778 0.445160 -0.492499
C6    C     C_3   0.430696 0.027039 0.557532 -0.493045
C7    C     C_1   0.500397 0.751188 0.500050 -0.150145
C8    C     C_1   0.499554 0.248731 0.501055 -0.161434
C9    C     C_3   0.421947 0.972021 0.475764 0.491156
C10   C     C_3   0.578047 0.027793 0.526926 0.487533
C11   C     C_3   0.501187 0.916952 0.500193 -0.085175
C12   C     C_3   0.498797 0.082891 0.502450 -0.084082
C13   C     C_1   0.500785 0.826298 0.500111 0.105403
C14   C     C_1   0.499173 0.173593 0.501869 0.097584
C15   C     C_3   0.032037 0.574386 0.471054 0.494537
C16   C     C_3   0.968009 0.425775 0.528418 0.500073
C17   C     C_3   0.976186 0.512502 0.419583 0.495820
C18   C     C_3   0.023842 0.487652 0.579880 0.498984
C19   C     C_3   0.966443 0.563925 0.552634 -0.486106
C20   C     C_3   0.033597 0.436227 0.446836 -0.496024
C21   C     C_3   0.910169 0.500875 0.500214 -0.168716
C22   C     C_3   0.089874 0.499272 0.499273 -0.167622
C23   C     C_R   0.488390 0.501684 0.657911 0.960884
C24   C     C_R   0.511797 0.500652 0.341877 0.901465
C25   C     C_1   0.810162 0.500332 0.499995 0.243788
C26   C     C_1   0.189858 0.499739 0.499753 0.233688
C27   C     C_R   0.484528 0.524019 0.751565 -0.272484
C28   C     C_R   0.519336 0.518843 0.246937 -0.377522
C29   C     C_R   0.559267 0.506007 0.799870 0.489015
C30   C     C_R   0.446724 0.557591 0.207827 0.516583
C31   C     C_R   0.573752 0.555812 0.873285 -0.372128
C32   C     C_R   0.463077 0.604431 0.131497 -0.351797
C33   C     C_R   0.511596 0.617285 0.902685 -0.242218
C34   C     C_R   0.549355 0.610360 0.091059 -0.300853
C35   C     C_R   0.428827 0.622796 0.864920 0.439081
C36   C     C_R   0.619040 0.561243 0.121562 0.538319
C37   C     C_R   0.416258 0.578676 0.786671 0.281958
C38   C     C_R   0.604001 0.514072 0.198948 0.294194
C39   C     C_2   0.544150 0.690853 0.952507 0.503981
C40   C     C_2   0.570400 0.684687 0.033931 0.499172
H1    H     H_    0.061067 0.384642 0.404092 0.173236
H2    H     H_    0.938982 0.615526 0.595360 0.178973
H3    H     H_    0.409999 0.643992 0.109399 0.196938
H4    H     H_    0.637907 0.553298 0.901573 0.191431
H5    H     H_    0.624506 0.948306 0.400388 0.179842
H6    H     H_    0.375490 0.051488 0.602328 0.177552
N1    N     N_1   0.731990 0.500000 0.499970 -0.074690
N2    N     N_1   0.268010 0.500000 0.500030 -0.071549
O1    O     O_R   0.425540 0.623220 0.500000 -0.568114
O2    O     O_R   0.574460 0.376780 0.500000 -0.588573
O3    O     O_R   0.574480 0.623220 0.499990 -0.622758
O4    O     O_R   0.425520 0.376780 0.500010 -0.628572
O5    O     O_R   0.416730 0.500010 0.615810 -0.548473
O6    O     O_R   0.583270 0.499990 0.384190 -0.582263
O7    O     O_R   0.565670 0.500010 0.615790 -0.568302
O8    O     O_R   0.434330 0.499990 0.384210 -0.551564
Zn1   Zn    Zn3+2 0.400550 0.500000 0.500010 1.042158
Zn2   Zn    Zn3+2 0.599450 0.500000 0.499990 1.027164
O9    O     O_3   0.624070 0.449869 0.765426 -0.579626
C41   C     C_3   0.656200 0.396866 0.829979 -0.308866
H7    H     H_    0.602398 0.377015 0.879412 0.148229
H8    H     H_    0.712263 0.428372 0.860977 0.154881
H9    H     H_    0.683596 0.338299 0.798530 0.201578
O10   O     O_3   0.363137 0.563574 0.251574 -0.561989
C42   C     C_3   0.305605 0.504086 0.215755 -0.291190
H10   H     H_    0.331931 0.438278 0.220725 0.151271
H11   H     H_    0.294401 0.519773 0.147226 0.141855
H12   H     H_    0.239504 0.506253 0.253071 0.181434
O11   O     O_3   0.071630 0.650503 0.438885 -0.590577
C43   C     C_3   0.004455 0.711957 0.430282 -0.258262
H13   H     H_    0.974933 0.732397 0.494764 0.157517
H14   H     H_    0.951003 0.688958 0.389381 0.188472
H15   H     H_    0.035625 0.768627 0.397931 0.190341
O12   O     O_3   0.928433 0.349682 0.560673 -0.593970
C44   C     C_3   0.995589 0.288177 0.569110 -0.274643
H16   H     H_    0.049197 0.311144 0.609842 0.186035
H17   H     H_    0.024900 0.267693 0.504566 0.158420
H18   H     H_    0.964458 0.231543 0.601564 0.188483
O13   O     O_3   0.675130 0.469903 0.229224 -0.720234
H19   H     H_    0.650695 0.420632 0.263074 0.336220
O14   O     O_3   0.342490 0.593736 0.739466 -0.727441
H20   H     H_    0.308168 0.642800 0.763960 0.374269
O15   O     O_3   0.611239 0.754897 0.067979 -0.697040
H21   H     H_    0.623267 0.742477 0.128944 0.337452
O16   O     O_3   0.556104 0.768459 0.911271 -0.694106
H22   H     H_    0.539290 0.762610 0.850668 0.346228
O17   O     O_3   0.365925 0.680588 0.898035 -0.597862
C45   C     C_3   0.298374 0.635693 0.947361 -0.321126
H23   H     H_    0.326692 0.593454 0.996244 0.143805
H24   H     H_    0.256333 0.597691 0.905090 0.180318
H25   H     H_    0.253900 0.682148 0.982811 0.204773
O18   O     O_3   0.704527 0.569254 0.081439 -0.575227
C46   C     C_3   0.732519 0.490961 0.044345 -0.253234
H26   H     H_    0.676321 0.452617 0.020562 0.110002
H27   H     H_    0.769208 0.453263 0.091077 0.227182
H28   H     H_    0.780313 0.504177 0.987865 0.162432
O19   O     O_3   0.474594 0.064640 0.340684 -0.609408
C47   C     C_3   0.480314 0.001261 0.276438 -0.251253
H29   H     H_    0.432603 0.948212 0.291978 0.193536
H30   H     H_    0.550049 0.976875 0.266277 0.170259
H31   H     H_    0.462157 0.029715 0.214462 0.190251
O20   O     O_3   0.525375 0.934708 0.661811 -0.599101
C48   C     C_3   0.519686 0.997730 0.726390 -0.246870
H32   H     H_    0.450016 0.022286 0.736508 0.160809
H33   H     H_    0.567621 0.050684 0.711224 0.183093
H34   H     H_    0.537573 0.968839 0.788260 0.208013
O21   O     O_3   0.656922 0.064657 0.555631 -0.592588
C49   C     C_3   0.722600 0.001354 0.561946 -0.269272
H35   H     H_    0.745665 0.976933 0.496844 0.159723
H36   H     H_    0.698156 0.948333 0.604883 0.189603
H37   H     H_    0.781609 0.029902 0.590807 0.187689
O22   O     O_3   0.343074 0.935126 0.447083 -0.587014
C50   C     C_3   0.277347 0.998391 0.440841 -0.268823
H38   H     H_    0.301752 0.051476 0.397968 0.183777
H39   H     H_    0.254264 0.022723 0.505973 0.158385
H40   H     H_    0.218361 0.969836 0.411946 0.188844
O23   O     O_3   0.945288 0.527826 0.336863 -0.582223
C51   C     C_3   0.018085 0.524469 0.274091 -0.265244
H41   H     H_    0.045047 0.458930 0.267406 0.148285
H42   H     H_    0.072292 0.569717 0.288658 0.185726
H43   H     H_    0.993788 0.542901 0.210617 0.196750
O24   O     O_3   0.054574 0.472123 0.662627 -0.597383
C52   C     C_3   0.981889 0.476698 0.725440 -0.269094
H44   H     H_    0.926300 0.433137 0.710492 0.191301
H45   H     H_    0.956944 0.542891 0.732702 0.166875
H46   H     H_    0.005623 0.456925 0.788734 0.182607

loop_
_geom_bond_atom_site_label_1
_geom_bond_atom_site_label_2
_ccdc_geom_bond_type
O17   C45   S    
C46   H26   S    
C30   O10   S    
C27   C29   A    
C45   H24   S    
C6    C9    S    
O19   C47   S    
N2    Zn1   S    
O16   H22   S    
O8    Zn1   S    
C15   C19   S    
C33   C39   S    
C41   H9    S    
C34   C40   S    
C35   C37   A    
C5    C11   S    
C6    C12   S    
C52   H45   S    
C38   O13   S    
C24   O6    A    
C17   C20   S    
O1    Zn1   S    
C49   H35   S    
C41   H8    S    
C18   C19   S    
C51   H41   S    
C3    C12   S    
C2    O2    A    
C35   O17   S    
C15   C22   S    
C29   O9    S    
C42   H11   S    
C4    O20   S    
O21   C49   S    
C31   C33   A    
C43   H13   S    
C23   C27   S    
C25   N1    T    
C19   H2    S    
C17   O23   S    
C50   H40   S    
C36   O18   S    
C9    O22   S    
O9    C41   S    
C46   H27   S    
C1    C7    S    
C40   O15   S    
C37   O14   S    
C10   O21   S    
O11   C43   S    
C20   H1    S    
C10   C12   S    
O22   C50   S    
C23   O5    A    
C15   O11   S    
C31   H4    S    
O2    Zn2   S    
C52   H44   S    
C4    C6    S    
O12   C44   S    
C39   C40   D    
O5    Zn1   S    
C52   H46   S    
C5    H5    S    
O14   H20   S    
C41   H7    S    
C51   H43   S    
C32   C34   A    
C44   H16   S    
C3    C9    S    
C44   H17   S    
C3    O19   S    
O15   H21   S    
C45   H25   S    
C28   C38   A    
C16   C20   S    
C42   H12   S    
C43   H15   S    
C48   H33   S    
O3    Zn2   S    
C4    C11   S    
C1    O3    A    
C2    O4    A    
C18   O24   S    
C20   C22   S    
C47   H29   S    
C46   H28   S    
C47   H30   S    
C9    C11   S    
C16   O12   S    
C39   O16   S    
C4    C10   S    
C50   H38   S    
O6    Zn2   S    
C15   C17   S    
C21   C25   S    
C8    C14   T    
C6    H6    S    
C19   C21   S    
C18   C22   S    
C2    C8    S    
C24   C28   S    
C12   C14   S    
C3    C5    S    
C16   C21   S    
C23   O7    A    
C26   N2    T    
C24   O8    A    
C47   H31   S    
C49   H37   S    
O10   C42   S    
C28   C30   A    
C5    C10   S    
C29   C31   A    
O23   C51   S    
N1    Zn2   S    
C30   C32   A    
C11   C13   S    
C27   C37   A    
C36   C38   A    
O18   C46   S    
C33   C35   A    
C32   H3    S    
C49   H36   S    
C48   H34   S    
C34   C36   A    
O20   C48   S    
C44   H18   S    
C51   H42   S    
O4    Zn1   S    
O13   H19   S    
C7    C13   T    
C45   H23   S    
C16   C18   S    
C42   H10   S    
C22   C26   S    
O7    Zn2   S    
C48   H32   S    
C43   H14   S    
O24   C52   S    
C1    O1    A    
C50   H39   S    
C17   C21   S    
