data_mof_unit_52922.cif
_audit_creation_date              2012-12-10T20:36:39-0500
_audit_creation_method            fapswitch 2.2
_symmetry_space_group_name_H-M    P1
_symmetry_Int_Tables_number       1
_space_group_crystal_system       triclinic
_cell_length_a                    10.560144
_cell_length_b                    10.670851
_cell_length_c                    9.902169
_cell_angle_alpha                 89.62241
_cell_angle_beta                  91.900495
_cell_angle_gamma                 90.165823
_cell_volume                      1115.1910742

loop_
_atom_site_label
_atom_site_type_symbol
_atom_type_description
_atom_site_fract_x
_atom_site_fract_y
_atom_site_fract_z
_atom_type_partial_charge
C1    C     C_R   0.507432 0.260057 0.500424 0.922862
C2    C     C_R   0.539429 0.934470 0.620731 -0.011204
C3    C     C_3   0.459790 0.920334 0.741824 -0.513247
C4    C     C_R   0.257420 0.504850 0.497764 0.967653
C5    C     C_3   0.454483 0.063005 0.743877 0.743848
C6    C     C_R   0.406960 0.439267 0.068443 -0.120038
C7    C     C_R   0.598028 0.549914 0.074986 -0.197823
C8    C     C_R   0.597802 0.550617 0.931394 0.675570
C9    C     C_R   0.406130 0.440149 0.925601 -0.105046
C10   C     C_3   0.269250 0.474305 0.917898 0.962868
C11   C     C_3   0.270721 0.470949 0.070078 1.059567
C12   C     C_3   0.951160 0.611218 0.446058 0.121914
C13   C     C_R   0.509489 0.739711 0.499427 0.874058
C14   C     C_R   0.742074 0.500863 0.502390 0.933211
C15   C     C_3   0.045538 0.403934 0.556230 0.649968
C16   C     C_3   0.953206 0.406878 0.432453 -0.366756
C17   C     C_3   0.876028 0.504389 0.507372 -0.280763
C18   C     C_3   0.966051 0.499689 0.633567 -0.129455
C19   C     C_3   0.042434 0.606486 0.568442 0.069249
C20   C     C_3   0.245428 0.101210 0.832867 -0.515588
C21   C     C_3   0.010491 0.775169 0.729783 -0.604124
C22   C     C_3   0.978676 0.811790 0.328938 -0.662222
C23   C     C_3   0.029160 0.515455 0.371322 0.699682
C24   C     C_3   0.742830 0.136521 0.239415 -0.665967
C25   C     C_3   0.501644 0.872439 0.152825 -0.665286
C26   C     C_3   0.122200 0.510771 0.493880 -0.335978
C27   C     C_R   0.535108 0.061817 0.621727 0.025479
C28   C     C_R   0.536378 0.129219 0.501108 -0.254791
C29   C     C_R   0.573962 0.067748 0.382637 0.171237
C30   C     C_R   0.572473 0.936424 0.380015 0.133593
C31   C     C_R   0.540275 0.870407 0.499047 -0.190833
F1    F     F_    0.517001 0.115694 0.855078 -0.657581
F2    F     F_    0.694588 0.606662 0.867624 -0.662443
F3    F     F_    0.247865 0.592925 0.865333 -0.687241
F4    F     F_    0.193506 0.383265 0.858008 -0.623263
F5    F     F_    0.199909 0.374278 0.123352 -0.617171
F6    F     F_    0.250528 0.587264 0.126741 -0.621846
F7    F     F_    0.097503 0.295146 0.609854 -0.629801
F8    F     F_    0.050707 0.526510 0.235858 -0.563143
H1    H     H_    0.914959 0.324423 0.377343 0.188879
H2    H     H_    0.185821 0.712854 0.665283 0.281729
H3    H     H_    0.049438 0.868054 0.759454 0.217314
H4    H     H_    0.004919 0.715163 0.821510 0.286880
H5    H     H_    0.913909 0.789089 0.684431 0.237452
H6    H     H_    0.828861 0.763696 0.450166 0.210740
H7    H     H_    0.923238 0.887556 0.277725 0.221648
H8    H     H_    0.037235 0.765888 0.252592 0.301678
H9    H     H_    0.041278 0.854263 0.408554 0.238912
H10   H     H_    0.551951 0.123063 0.181403 0.272159
H11   H     H_    0.767656 0.050064 0.184559 0.242234
H12   H     H_    0.514549 0.878645 0.828352 0.233008
H13   H     H_    0.800569 0.141481 0.335079 0.221496
H14   H     H_    0.765759 0.218869 0.175553 0.258781
H15   H     H_    0.657802 0.796347 0.264575 0.247803
H16   H     H_    0.540197 0.910724 0.058455 0.249159
H17   H     H_    0.418463 0.929674 0.179927 0.236936
H18   H     H_    0.468868 0.774992 0.134576 0.264049
H19   H     H_    0.675757 0.593276 0.131268 0.187619
H20   H     H_    0.937396 0.491773 0.740141 0.232201
H21   H     H_    0.367491 0.873809 0.717566 0.176439
H22   H     H_    0.284656 0.084581 0.629196 0.202620
H23   H     H_    0.151223 0.141588 0.805937 0.296263
H24   H     H_    0.286241 0.152608 0.921335 0.279412
H25   H     H_    0.232006 0.001187 0.860780 0.175927
N1    N     N_R   0.499140 0.499140 0.142800 -0.121718
N2    N     N_R   0.499140 0.499180 0.857150 -0.135839
N3    N     N_2   0.327658 0.112546 0.719228 -0.281733
N4    N     N_2   0.092219 0.718109 0.633654 -0.304970
N5    N     N_2   0.892807 0.722665 0.387764 -0.297581
N6    N     N_2   0.609100 0.137370 0.266288 -0.262611
N7    N     N_2   0.600694 0.874375 0.257654 -0.306855
O1    O     O_R   0.500020 0.316790 0.614690 -0.577069
O2    O     O_R   0.500000 0.316760 0.385350 -0.589606
O3    O     O_R   0.313960 0.499990 0.614650 -0.556043
O4    O     O_R   0.313940 0.499950 0.385310 -0.546435
O5    O     O_R   0.500000 0.683240 0.614650 -0.595910
O6    O     O_R   0.499980 0.683210 0.385310 -0.619278
O7    O     O_R   0.686060 0.500050 0.614690 -0.572894
O8    O     O_R   0.686040 0.500010 0.385350 -0.626576
Zn1   Zn    Zn3+2 0.500010 0.500020 0.653130 1.082304
Zn2   Zn    Zn3+2 0.499990 0.499980 0.346870 1.022328

loop_
_geom_bond_atom_site_label_1
_geom_bond_atom_site_label_2
_ccdc_geom_bond_type
C24   H13   S    
C15   C18   S    
C22   H9    S    
C12   N5    S    
C8    N2    A    
C20   N3    S    
C25   H17   S    
C5    N3    S    
C6    C9    A    
C30   N7    S    
C24   N6    S    
C7    C8    A    
C12   C23   S    
C28   C29   A    
C30   C31   A    
O7    Zn1   S    
C15   C16   S    
C18   C19   S    
C23   C26   S    
C11   F6    S    
C19   C26   S    
C9    N2    A    
C4    O4    A    
C5    C27   S    
C6    N1    A    
H15   N7    S    
C16   C17   S    
C12   C17   S    
C1    C28   S    
C2    C27   A    
C25   N7    S    
C9    C10   S    
C22   N5    S    
C4    O3    A    
C5    F1    S    
C3    H21   S    
C22   H8    S    
O3    Zn1   S    
C14   C17   S    
C25   H18   S    
O2    Zn2   S    
H2    N4    S    
C24   H11   S    
C13   O6    A    
C1    O1    A    
H6    N5    S    
C25   H16   S    
C6    C11   S    
O8    Zn2   S    
C3    H12   S    
O4    Zn2   S    
C15   C26   S    
C24   H14   S    
C2    C31   A    
C20   H25   S    
C15   F7    S    
C29   C30   A    
C7    N1    A    
C21   H5    S    
H22   N3    S    
N1    Zn2   S    
C13   O5    A    
O6    Zn2   S    
C17   C18   S    
C19   N4    S    
C10   F3    S    
C14   O8    A    
C10   F4    S    
C16   H1    S    
C22   H7    S    
C16   C23   S    
H10   N6    S    
C21   N4    S    
C29   N6    S    
C11   F5    S    
C7    H19   S    
C13   C31   S    
O5    Zn1   S    
C3    C5    S    
C4    C26   S    
N2    Zn1   S    
C1    O2    A    
C20   H24   S    
C2    C3    S    
O1    Zn1   S    
C23   F8    S    
C12   C19   S    
C8    F2    S    
C14   O7    A    
C20   H23   S    
C10   C11   S    
C21   H3    S    
C18   H20   S    
C27   C28   A    
C21   H4    S    
