data_mof_unit_63225.cif
_audit_creation_date              2012-12-10T18:03:33-0500
_audit_creation_method            fapswitch 2.2
_symmetry_space_group_name_H-M    P1
_symmetry_Int_Tables_number       1
_space_group_crystal_system       triclinic
_cell_length_a                    21.612973
_cell_length_b                    21.612524
_cell_length_c                    47.155779
_cell_angle_alpha                 89.998963
_cell_angle_beta                  90.000472
_cell_angle_gamma                 90.00235
_cell_volume                      22026.9782363

loop_
_atom_site_label
_atom_site_type_symbol
_atom_type_description
_atom_site_fract_x
_atom_site_fract_y
_atom_site_fract_z
_atom_type_partial_charge
C1    C     C_R   1.000000 0.120426 1.000000 0.921400
C2    C     C_R   0.879574 1.000000 1.000000 0.921387
C3    C     C_R   0.000001 0.879575 0.000000 0.921395
C4    C     C_R   0.120426 0.000000 0.000000 0.921381
C5    C     C_R   0.500000 0.620426 0.500000 0.921387
C6    C     C_R   0.379574 0.500000 0.500000 0.921377
C7    C     C_R   0.500001 0.379574 0.500000 0.921389
C8    C     C_R   0.620426 0.500000 0.500000 0.921373
C9    C     C_R   0.999992 0.500002 0.764957 -0.028779
C10   C     C_R   0.500007 0.000039 0.764956 -0.028760
C11   C     C_R   0.000014 0.500031 0.234863 -0.028799
C12   C     C_R   0.500003 0.000013 0.234862 -0.028789
C13   C     C_R   0.499986 0.000022 0.264953 -0.028787
C14   C     C_R   0.000015 0.500032 0.264953 -0.028794
C15   C     C_R   0.500008 0.000042 0.734865 -0.028758
C16   C     C_R   0.999993 0.500001 0.734865 -0.028783
C17   C     C_R   0.057291 0.598303 0.764822 -0.069521
C18   C     C_R   0.401685 0.057284 0.764822 -0.069531
C19   C     C_R   0.942690 0.401703 0.764824 -0.069521
C20   C     C_R   0.598333 0.942798 0.764822 -0.069533
C21   C     C_R   0.900999 0.556115 0.235012 -0.070581
C22   C     C_R   0.556033 0.099061 0.235011 -0.070582
C23   C     C_R   0.099036 0.443960 0.235012 -0.070578
C24   C     C_R   0.443963 0.900971 0.235012 -0.070589
C25   C     C_R   0.556201 0.098942 0.264820 -0.069508
C26   C     C_R   0.901133 0.556308 0.264821 -0.069508
C27   C     C_R   0.443750 0.901114 0.264821 -0.069514
C28   C     C_R   0.098906 0.443768 0.264821 -0.069505
C29   C     C_R   0.401562 0.057110 0.735013 -0.070570
C30   C     C_R   0.057115 0.598425 0.735012 -0.070564
C31   C     C_R   0.598459 0.942979 0.735013 -0.070569
C32   C     C_R   0.942868 0.401579 0.735014 -0.070564
C33   C     C_R   0.544597 0.965926 0.130961 -0.134356
C34   C     C_R   0.034078 0.544585 0.130962 -0.134413
C35   C     C_R   0.455454 0.034070 0.130966 -0.134433
C36   C     C_R   0.965929 0.455442 0.130966 -0.134401
C37   C     C_R   0.544377 0.034344 0.869033 -0.131057
C38   C     C_R   0.034319 0.455626 0.869029 -0.131065
C39   C     C_R   0.455635 0.965682 0.869030 -0.131050
C40   C     C_R   0.965672 0.544377 0.869029 -0.131054
C41   C     C_R   0.044578 0.465938 0.630968 -0.134524
C42   C     C_R   0.534036 0.044625 0.630962 -0.134522
C43   C     C_R   0.955417 0.534057 0.630967 -0.134533
C44   C     C_R   0.465969 0.955420 0.630968 -0.134519
C45   C     C_R   0.044277 0.534477 0.369031 -0.131007
C46   C     C_R   0.534480 0.955779 0.369025 -0.131017
C47   C     C_R   0.955747 0.465543 0.369027 -0.130998
C48   C     C_R   0.465492 0.044263 0.369032 -0.130999
C49   C     C_R   0.545002 0.965683 0.101405 -0.052582
C50   C     C_R   0.034319 0.544994 0.101406 -0.052549
C51   C     C_R   0.455030 0.034313 0.101410 -0.052561
C52   C     C_R   0.965685 0.455022 0.101410 -0.052564
C53   C     C_R   0.544808 0.034539 0.898587 -0.055422
C54   C     C_R   0.034526 0.455196 0.898584 -0.055412
C55   C     C_R   0.455204 0.965471 0.898584 -0.055426
C56   C     C_R   0.965469 0.544806 0.898584 -0.055410
C57   C     C_R   0.044992 0.465694 0.601411 -0.052519
C58   C     C_R   0.534281 0.045029 0.601405 -0.052520
C59   C     C_R   0.955005 0.534302 0.601410 -0.052513
C60   C     C_R   0.465723 0.954999 0.601412 -0.052529
C61   C     C_R   0.044710 0.534669 0.398585 -0.055440
C62   C     C_R   0.534685 0.955336 0.398579 -0.055430
C63   C     C_R   0.955307 0.465340 0.398581 -0.055444
C64   C     C_R   0.465302 0.044694 0.398586 -0.055429
C65   C     C_R   0.500011 0.999998 0.086401 -0.105091
C66   C     C_R   0.000001 0.500006 0.086401 -0.105086
C67   C     C_R   0.500005 0.000003 0.913592 -0.105729
C68   C     C_R   0.999999 0.500001 0.913592 -0.105729
C69   C     C_R   0.999999 0.499998 0.586403 -0.105087
C70   C     C_R   0.500001 0.000009 0.586402 -0.105066
C71   C     C_R   0.000006 0.500003 0.413591 -0.105794
C72   C     C_R   0.499997 0.000011 0.413590 -0.105802
C73   C     C_R   0.500031 0.999998 0.145636 0.300173
C74   C     C_R   0.000004 0.500016 0.145637 0.300187
C75   C     C_R   0.500004 0.000018 0.854298 0.291892
C76   C     C_R   0.999995 0.500002 0.854297 0.291916
C77   C     C_R   0.999997 0.499997 0.645640 0.300468
C78   C     C_R   0.500002 0.000028 0.645637 0.300433
C79   C     C_R   0.000013 0.500014 0.354295 0.291652
C80   C     C_R   0.499981 0.000024 0.354294 0.291670
C81   C     C_R   0.218534 0.024662 0.976782 -0.281452
C82   C     C_R   0.975349 0.218535 0.976779 -0.281454
C83   C     C_R   0.781464 0.975351 0.976779 -0.281450
C84   C     C_R   0.024677 0.781468 0.976786 -0.281461
C85   C     C_R   0.218534 0.975335 0.023217 -0.282487
C86   C     C_R   0.975321 0.781466 0.023213 -0.282500
C87   C     C_R   0.781466 0.024654 0.023218 -0.282482
C88   C     C_R   0.024656 0.218534 0.023218 -0.282488
C89   C     C_R   0.718535 0.524645 0.476778 -0.281434
C90   C     C_R   0.475354 0.718535 0.476778 -0.281442
C91   C     C_R   0.281464 0.475366 0.476776 -0.281432
C92   C     C_R   0.524644 0.281466 0.476778 -0.281438
C93   C     C_R   0.718535 0.475351 0.523220 -0.282459
C94   C     C_R   0.475352 0.281464 0.523220 -0.282465
C95   C     C_R   0.281465 0.524640 0.523222 -0.282456
C96   C     C_R   0.524653 0.718534 0.523219 -0.282463
C97   C     C_R   0.282857 0.025241 0.976696 0.381734
C98   C     C_R   0.974770 0.282859 0.976693 0.381721
C99   C     C_R   0.717141 0.974772 0.976693 0.381731
C100  C     C_R   0.025256 0.717144 0.976700 0.381736
C101  C     C_R   0.282858 0.974753 0.023301 0.381949
C102  C     C_R   0.974739 0.717141 0.023299 0.381960
C103  C     C_R   0.717142 0.025236 0.023303 0.381943
C104  C     C_R   0.025237 0.282858 0.023304 0.381944
C105  C     C_R   0.782859 0.525222 0.476692 0.381677
C106  C     C_R   0.474776 0.782860 0.476692 0.381663
C107  C     C_R   0.217140 0.474788 0.476689 0.381674
C108  C     C_R   0.525221 0.217142 0.476692 0.381660
C109  C     C_R   0.782859 0.474769 0.523305 0.381941
C110  C     C_R   0.474770 0.217140 0.523306 0.381958
C111  C     C_R   0.217142 0.525222 0.523307 0.381938
C112  C     C_R   0.525234 0.782858 0.523304 0.381959
C113  C     C_R   0.314114 0.999997 0.999999 -0.104029
C114  C     C_R   0.000000 0.314115 0.999999 -0.104012
C115  C     C_R   0.685886 0.000003 0.999998 -0.104012
C116  C     C_R   0.000000 0.685886 0.000000 -0.104029
C117  C     C_R   0.814114 0.499997 0.499999 -0.104029
C118  C     C_R   0.500001 0.814115 0.499999 -0.104033
C119  C     C_R   0.185885 0.500003 0.499998 -0.104020
C120  C     C_R   0.499999 0.185885 0.500000 -0.104019
C121  C     C_R   0.186835 1.000000 0.000000 -0.114841
C122  C     C_R   0.000001 0.186835 0.999999 -0.114846
C123  C     C_R   0.813164 0.000001 0.999999 -0.114849
C124  C     C_R   0.000001 0.813166 1.000000 -0.114829
C125  C     C_R   0.686836 0.500000 0.500000 -0.114855
C126  C     C_R   0.500001 0.686835 0.499999 -0.114854
C127  C     C_R   0.313164 0.500001 0.499999 -0.114863
C128  C     C_R   0.500000 0.313165 0.500000 -0.114857
C129  C     C_R   0.500002 0.999999 0.055379 0.901025
C130  C     C_R   0.000000 0.500001 0.055379 0.900987
C131  C     C_R   0.500001 0.000001 0.944618 0.901920
C132  C     C_R   1.000000 0.500000 0.944619 0.901921
C133  C     C_R   1.000000 0.499999 0.555379 0.901037
C134  C     C_R   0.500000 0.000001 0.555379 0.900993
C135  C     C_R   0.000001 0.500000 0.444618 0.901994
C136  C     C_R   0.499999 0.000002 0.444618 0.902000
C137  C     C_R   0.379988 0.999999 0.999999 1.009636
C138  C     C_R   1.000000 0.379989 1.000000 1.009640
C139  C     C_R   0.620011 0.000001 0.999999 1.009643
C140  C     C_R   0.000000 0.620011 0.000000 1.009598
C141  C     C_R   0.879989 0.499999 0.499999 1.009681
C142  C     C_R   0.500000 0.879989 0.500000 1.009668
C143  C     C_R   0.120011 0.500001 0.499999 1.009689
C144  C     C_R   0.500000 0.120011 0.500000 1.009662
C145  C     C_R   0.970506 0.453446 0.810016 0.513446
C146  C     C_R   0.546573 0.970565 0.810016 0.513431
C147  C     C_R   0.029479 0.546559 0.810015 0.513446
C148  C     C_R   0.453437 0.029493 0.810016 0.513436
C149  C     C_R   0.047694 0.472391 0.189800 0.514044
C150  C     C_R   0.472437 0.952287 0.189799 0.514036
C151  C     C_R   0.952322 0.527656 0.189800 0.514044
C152  C     C_R   0.527626 0.047708 0.189800 0.514043
C153  C     C_R   0.470900 0.953214 0.310010 0.513406
C154  C     C_R   0.046815 0.470931 0.310010 0.513408
C155  C     C_R   0.529044 0.046846 0.310011 0.513403
C156  C     C_R   0.953215 0.529120 0.310011 0.513409
C157  C     C_R   0.547436 0.971971 0.689801 0.514074
C158  C     C_R   0.971892 0.452589 0.689802 0.514088
C159  C     C_R   0.452576 0.028105 0.689800 0.514074
C160  C     C_R   0.028100 0.547407 0.689802 0.514089
C161  C     C_R   0.029276 0.548941 0.780031 -0.063927
C162  C     C_R   0.451057 0.029293 0.780033 -0.063940
C163  C     C_R   0.970707 0.451064 0.780032 -0.063927
C164  C     C_R   0.548957 0.970779 0.780032 -0.063938
C165  C     C_R   0.950476 0.528345 0.219790 -0.065041
C166  C     C_R   0.528300 0.049561 0.219789 -0.065049
C167  C     C_R   0.049549 0.471717 0.219790 -0.065041
C168  C     C_R   0.471726 0.950455 0.219789 -0.065046
C169  C     C_R   0.528758 0.049260 0.280028 -0.063902
C170  C     C_R   0.950799 0.528837 0.280029 -0.063895
C171  C     C_R   0.471196 0.950794 0.280028 -0.063903
C172  C     C_R   0.049234 0.471227 0.280028 -0.063894
C173  C     C_R   0.450751 0.028835 0.719790 -0.065072
C174  C     C_R   0.028819 0.549243 0.719792 -0.065057
C175  C     C_R   0.549266 0.971249 0.719791 -0.065073
C176  C     C_R   0.971168 0.450758 0.719792 -0.065057
H1    H     H_    0.193324 0.043943 0.958985 0.167803
H2    H     H_    0.956077 0.193326 0.958980 0.167808
H3    H     H_    0.806673 0.956080 0.958980 0.167810
H4    H     H_    0.043969 0.806679 0.958991 0.167798
H5    H     H_    0.193325 0.956053 0.041014 0.166876
H6    H     H_    0.956028 0.806675 0.041007 0.166870
H7    H     H_    0.806675 0.043927 0.041017 0.166882
H8    H     H_    0.043929 0.193324 0.041016 0.166882
H9    H     H_    0.693326 0.543912 0.458978 0.167827
H10   H     H_    0.456085 0.693326 0.458978 0.167828
H11   H     H_    0.306672 0.456105 0.458975 0.167832
H12   H     H_    0.543910 0.306676 0.458978 0.167831
H13   H     H_    0.693327 0.456081 0.541020 0.166901
H14   H     H_    0.456084 0.306673 0.541020 0.166900
H15   H     H_    0.306674 0.543903 0.541023 0.166906
H16   H     H_    0.543924 0.693324 0.541018 0.166898
H17   H     H_    0.579068 0.940038 0.142719 0.144115
H18   H     H_    0.059969 0.579054 0.142720 0.144095
H19   H     H_    0.420989 0.059957 0.142728 0.144101
H20   H     H_    0.940040 0.420976 0.142728 0.144099
H21   H     H_    0.578628 0.060608 0.857314 0.149185
H22   H     H_    0.060576 0.421371 0.857309 0.149172
H23   H     H_    0.421385 0.939421 0.857308 0.149186
H24   H     H_    0.939414 0.578632 0.857309 0.149173
H25   H     H_    0.079049 0.440056 0.642729 0.143999
H26   H     H_    0.559898 0.079116 0.642720 0.144002
H27   H     H_    0.920946 0.559939 0.642726 0.143996
H28   H     H_    0.440109 0.920936 0.642732 0.144004
H29   H     H_    0.078449 0.560850 0.357314 0.149309
H30   H     H_    0.560868 0.921628 0.357303 0.149301
H31   H     H_    0.921578 0.439175 0.357306 0.149310
H32   H     H_    0.439097 0.078419 0.357315 0.149307
N1    N     N_R   0.999993 0.500002 0.823939 -0.346880
N2    N     N_R   0.500004 0.000026 0.823941 -0.346873
N3    N     N_R   0.000006 0.500021 0.175933 -0.348786
N4    N     N_R   0.500036 0.999996 0.175932 -0.348780
N5    N     N_R   0.499973 0.000029 0.323937 -0.346827
N6    N     N_R   0.000014 0.500022 0.323937 -0.346829
N7    N     N_R   0.500004 0.000036 0.675933 -0.348813
N8    N     N_R   0.999997 0.499998 0.675936 -0.348808
O1    O     O_R   0.999960 0.091640 0.023680 -0.625319
O2    O     O_R   0.908360 0.999960 0.023680 -0.625319
O3    O     O_R   0.000040 0.908360 0.023680 -0.625315
O4    O     O_R   0.091640 0.000040 0.023680 -0.625314
O5    O     O_R   0.999960 0.908360 0.976320 -0.624309
O6    O     O_R   0.908360 0.000040 0.976320 -0.624313
O7    O     O_R   0.000040 0.091640 0.976320 -0.624317
O8    O     O_R   0.091640 0.999960 0.976320 -0.624314
O9    O     O_R   0.499960 0.591640 0.523680 -0.625309
O10   O     O_R   0.408360 0.499960 0.523680 -0.625309
O11   O     O_R   0.500040 0.408360 0.523680 -0.625310
O12   O     O_R   0.591640 0.500040 0.523680 -0.625308
O13   O     O_R   0.499960 0.408360 0.476320 -0.624307
O14   O     O_R   0.408360 0.500040 0.476320 -0.624308
O15   O     O_R   0.500040 0.591640 0.476320 -0.624307
O16   O     O_R   0.591640 0.499960 0.476320 -0.624306
O17   O     O_R   0.499950 0.051720 0.041990 -0.611316
O18   O     O_R   0.948280 0.499950 0.041990 -0.611306
O19   O     O_R   0.500050 0.948280 0.041990 -0.611315
O20   O     O_R   0.051720 0.500050 0.041990 -0.611315
O21   O     O_R   0.499950 0.948280 0.958010 -0.612300
O22   O     O_R   0.948280 0.500050 0.958010 -0.612301
O23   O     O_R   0.500050 0.051720 0.958010 -0.612303
O24   O     O_R   0.051720 0.499950 0.958010 -0.612295
O25   O     O_R   0.999950 0.551720 0.541990 -0.611328
O26   O     O_R   0.448280 0.999950 0.541990 -0.611318
O27   O     O_R   0.000050 0.448280 0.541990 -0.611327
O28   O     O_R   0.551720 0.000050 0.541990 -0.611322
O29   O     O_R   0.999950 0.448280 0.458010 -0.612326
O30   O     O_R   0.448280 0.000050 0.458010 -0.612326
O31   O     O_R   0.000050 0.551720 0.458010 -0.612328
O32   O     O_R   0.551720 0.999950 0.458010 -0.612324
O33   O     O_R   0.408360 0.051710 0.000060 -0.605187
O34   O     O_R   0.948290 0.408360 0.000060 -0.605195
O35   O     O_R   0.591640 0.948290 0.000060 -0.605199
O36   O     O_R   0.051710 0.591640 0.000060 -0.605170
O37   O     O_R   0.408360 0.948290 0.999940 -0.605052
O38   O     O_R   0.948290 0.591640 0.999940 -0.605038
O39   O     O_R   0.591640 0.051710 0.999940 -0.605063
O40   O     O_R   0.051710 0.408360 0.999940 -0.605059
O41   O     O_R   0.908360 0.551710 0.500060 -0.605208
O42   O     O_R   0.448290 0.908360 0.500060 -0.605203
O43   O     O_R   0.091640 0.448290 0.500060 -0.605217
O44   O     O_R   0.551710 0.091640 0.500060 -0.605207
O45   O     O_R   0.908360 0.448290 0.499940 -0.605065
O46   O     O_R   0.448290 0.091640 0.499940 -0.605061
O47   O     O_R   0.091640 0.551710 0.499940 -0.605071
O48   O     O_R   0.551710 0.908360 0.499940 -0.605057
O49   O     O_2   0.940744 0.410206 0.825490 -0.544765
O50   O     O_2   0.589823 0.940816 0.825489 -0.544764
O51   O     O_2   0.059241 0.589799 0.825488 -0.544764
O52   O     O_2   0.410184 0.059233 0.825491 -0.544756
O53   O     O_2   0.092727 0.445638 0.174249 -0.541592
O54   O     O_2   0.445750 0.907212 0.174247 -0.541597
O55   O     O_2   0.907284 0.554400 0.174247 -0.541589
O56   O     O_2   0.554338 0.092769 0.174248 -0.541594
O57   O     O_2   0.441443 0.909755 0.325479 -0.544824
O58   O     O_2   0.090257 0.441450 0.325478 -0.544829
O59   O     O_2   0.558497 0.090308 0.325479 -0.544825
O60   O     O_2   0.909772 0.558593 0.325480 -0.544826
O61   O     O_2   0.592247 0.944852 0.674247 -0.541554
O62   O     O_2   0.944738 0.407802 0.674249 -0.541569
O63   O     O_2   0.407761 0.055219 0.674246 -0.541546
O64   O     O_2   0.055258 0.592192 0.674247 -0.541570
Zn1   Zn    Zn3+2 0.000000 1.000000 0.031620 0.974984
Zn2   Zn    Zn3+2 0.000000 0.000000 0.968380 0.980080
Zn3   Zn    Zn3+2 0.500000 0.500000 0.531620 0.975063
Zn4   Zn    Zn3+2 0.500000 0.500000 0.468380 0.980162
Zn5   Zn    Zn3+2 0.500000 0.069070 0.000000 1.055680
Zn6   Zn    Zn3+2 0.930930 0.500000 0.000000 1.055687
Zn7   Zn    Zn3+2 0.500000 0.930930 0.000000 1.055683
Zn8   Zn    Zn3+2 0.069070 0.500000 0.000000 1.055687
Zn9   Zn    Zn3+2 0.000000 0.569070 0.500000 1.055628
Zn10  Zn    Zn3+2 0.430930 1.000000 0.500000 1.055633
Zn11  Zn    Zn3+2 1.000000 0.430930 0.500000 1.055627
Zn12  Zn    Zn3+2 0.569070 1.000000 0.500000 1.055633
O65   O     O_3   0.316109 0.049050 0.954145 -0.759274
H33   H     H_    0.286875 0.064390 0.939537 0.346255
O66   O     O_3   0.950972 0.316113 0.954141 -0.759287
H34   H     H_    0.935641 0.286879 0.939531 0.346255
O67   O     O_3   0.683888 0.950975 0.954140 -0.759285
H35   H     H_    0.713121 0.935644 0.939530 0.346255
O68   O     O_3   0.049079 0.683892 0.954153 -0.759258
H36   H     H_    0.064429 0.713127 0.939547 0.346252
O69   O     O_3   0.316110 0.950934 0.045850 -0.760335
H37   H     H_    0.286878 0.935593 0.060458 0.344704
O70   O     O_3   0.950907 0.683889 0.045844 -0.760317
H38   H     H_    0.935556 0.713122 0.060449 0.344705
O71   O     O_3   0.683891 0.049043 0.045854 -0.760350
H39   H     H_    0.713124 0.064376 0.060463 0.344705
O72   O     O_3   0.049045 0.316110 0.045854 -0.760338
H40   H     H_    0.064379 0.286875 0.060463 0.344706
O73   O     O_3   0.816111 0.549012 0.454137 -0.759285
H41   H     H_    0.786877 0.564342 0.439527 0.346276
O74   O     O_3   0.450985 0.816113 0.454138 -0.759283
H42   H     H_    0.435653 0.786880 0.439528 0.346277
O75   O     O_3   0.183887 0.451007 0.454133 -0.759297
H43   H     H_    0.213119 0.435684 0.439522 0.346276
O76   O     O_3   0.549008 0.183890 0.454138 -0.759289
H44   H     H_    0.564338 0.213124 0.439527 0.346279
O77   O     O_3   0.816111 0.450966 0.545857 -0.760321
H45   H     H_    0.786879 0.435635 0.560467 0.344743
O78   O     O_3   0.450966 0.183887 0.545857 -0.760320
H46   H     H_    0.435637 0.213120 0.560467 0.344737
O79   O     O_3   0.183890 0.549015 0.545860 -0.760327
H47   H     H_    0.213123 0.564340 0.560471 0.344743
O80   O     O_3   0.549040 0.816110 0.545856 -0.760313
H48   H     H_    0.564373 0.786875 0.560465 0.344737
C177  C     C_1   0.085975 0.650499 0.779259 0.289036
N9    N     N_1   0.108848 0.692181 0.790563 -0.148077
C178  C     C_1   0.349484 0.085937 0.779262 0.289011
N10   N     N_1   0.307795 0.108789 0.790573 -0.148040
C179  C     C_1   0.914002 0.349509 0.779262 0.289036
N11   N     N_1   0.891126 0.307829 0.790567 -0.148080
C180  C     C_1   0.650533 0.914143 0.779262 0.289008
N12   N     N_1   0.692222 0.891289 0.790575 -0.148031
C181  C     C_1   0.848760 0.584757 0.220595 0.289842
N13   N     N_1   0.807047 0.607617 0.209307 -0.144967
C182  C     C_1   0.584672 0.151303 0.220595 0.289855
N14   N     N_1   0.607529 0.193017 0.209307 -0.144970
C183  C     C_1   0.151283 0.415335 0.220595 0.289840
N15   N     N_1   0.193002 0.392488 0.209306 -0.144964
C184  C     C_1   0.415336 0.848724 0.220594 0.289852
N16   N     N_1   0.392486 0.807005 0.209306 -0.144963
C185  C     C_1   0.584213 0.151493 0.279262 0.288967
N17   N     N_1   0.606549 0.193460 0.290574 -0.148058
C186  C     C_1   0.848618 0.584385 0.279262 0.288976
N18   N     N_1   0.806679 0.606773 0.290572 -0.148067
C187  C     C_1   0.415676 0.848596 0.279262 0.288979
N19   N     N_1   0.393291 0.806655 0.290573 -0.148063
C188  C     C_1   0.151431 0.415711 0.279262 0.288967
N20   N     N_1   0.193380 0.393338 0.290573 -0.148064
C189  C     C_1   0.349651 0.086332 0.720594 0.289809
N21   N     N_1   0.308200 0.109658 0.709302 -0.145057
C190  C     C_1   0.086349 0.650339 0.720594 0.289824
N22   N     N_1   0.109682 0.691792 0.709307 -0.145092
C191  C     C_1   0.650376 0.913771 0.720595 0.289808
N23   N     N_1   0.691833 0.890456 0.709301 -0.145048
C192  C     C_1   0.913629 0.349667 0.720597 0.289825
N24   N     N_1   0.890292 0.308216 0.709311 -0.145095
C193  C     C_1   0.593203 0.931681 0.086964 0.231145
N25   N     N_1   0.631824 0.904540 0.075376 -0.167802
C194  C     C_1   0.068321 0.593198 0.086965 0.231104
N26   N     N_1   0.095460 0.631821 0.075376 -0.167825
C195  C     C_1   0.406820 0.068315 0.086974 0.231116
N27   N     N_1   0.368191 0.095455 0.075391 -0.167805
C196  C     C_1   0.931681 0.406814 0.086973 0.231127
N28   N     N_1   0.904539 0.368188 0.075389 -0.167803
C197  C     C_1   0.592860 0.068765 0.913025 0.232287
N29   N     N_1   0.631363 0.096081 0.924607 -0.167646
C198  C     C_1   0.068756 0.407145 0.913020 0.232276
N30   N     N_1   0.096075 0.368644 0.924603 -0.167640
C199  C     C_1   0.407156 0.931231 0.913018 0.232262
N31   N     N_1   0.368656 0.903904 0.924598 -0.167650
C200  C     C_1   0.931241 0.592856 0.913021 0.232243
N32   N     N_1   0.903923 0.631357 0.924604 -0.167654
C201  C     C_1   0.093204 0.431700 0.586973 0.231129
N33   N     N_1   0.131833 0.404567 0.575388 -0.167793
C202  C     C_1   0.568249 0.093254 0.586963 0.231130
N34   N     N_1   0.595362 0.131893 0.575373 -0.167802
C203  C     C_1   0.906794 0.568296 0.586971 0.231121
N35   N     N_1   0.868165 0.595430 0.575384 -0.167800
C204  C     C_1   0.431754 0.906766 0.586976 0.231109
N36   N     N_1   0.404640 0.868120 0.575392 -0.167796
C205  C     C_1   0.092670 0.569028 0.413021 0.232328
N37   N     N_1   0.131100 0.596450 0.424604 -0.167673
C206  C     C_1   0.569080 0.907393 0.413009 0.232308
N38   N     N_1   0.596530 0.868977 0.424586 -0.167678
C207  C     C_1   0.907345 0.430975 0.413012 0.232306
N39   N     N_1   0.868913 0.403548 0.424591 -0.167673
C208  C     C_1   0.430915 0.092631 0.413022 0.232326
N40   N     N_1   0.403470 0.131043 0.424605 -0.167679

loop_
_geom_bond_atom_site_label_1
_geom_bond_atom_site_label_2
_ccdc_geom_bond_type
C21   C26   A    
C193  N25   T    
C119  C143  S    
C108  C120  A    
C73   N4    S    
C120  C144  S    
C24   C27   A    
C14   C170  A    
C42   C58   A    
C153  N5    A    
C183  N15   T    
C89   C125  A    
C181  N13   T    
O2    Zn1   S    
C91   C127  A    
C46   C62   A    
O5    Zn2   S    
C6    C127  S    
C106  O74   S    
C98   C114  A    
O14   Zn4   S    
C101  C113  A    
O48   Zn12  S    
C84   H4    S    
C1    C122  S    
C2    O2    A    
O8    Zn2   S    
C103  O71   S    
C149  C167  A    
C5    C126  S    
C5    O15   A    
C85   C121  A    
C7    C128  S    
C154  N6    A    
C154  C172  A    
C34   H18   S    
C63   C207  S    
C37   C75   A    
C10   C162  A    
C106  C118  A    
C11   C167  A    
C17   C30   A    
C82   C98   A    
O35   Zn7   S    
C19   C32   A    
O36   Zn8   S    
C116  C140  S    
O38   Zn6   S    
O27   Zn11  S    
C157  N7    A    
O32   Zn12  S    
O80   H48   S    
C84   C100  A    
C91   C107  A    
C110  O78   S    
C88   C122  A    
C58   C70   A    
C90   H10   S    
O69   H37   S    
C40   C76   A    
C81   C121  A    
C150  N4    A    
C59   C203  S    
C94   H14   S    
C155  C169  A    
C137  O33   A    
O70   H38   S    
C150  C168  A    
C48   H32   S    
C90   C126  A    
C59   C69   A    
C23   C167  A    
C33   C73   A    
C63   C71   A    
C22   C182  S    
C35   C51   A    
C205  N37   T    
C113  C137  S    
C206  N38   T    
C29   C173  A    
O24   Zn8   S    
C141  O45   A    
C202  N34   T    
C108  O76   S    
C74   N3    S    
C1    O7    A    
C148  C162  A    
C56   C68   A    
C197  N29   T    
C99   C115  A    
C7    O11   A    
C156  C170  A    
C5    O9    A    
C149  O53   S    
O26   Zn10  S    
O18   Zn6   S    
O25   Zn9   S    
C182  N14   T    
C22   C166  A    
O67   H35   S    
C26   C170  A    
C147  O51   S    
O79   H47   S    
C194  N26   T    
C70   C134  S    
C153  O57   S    
C30   C174  A    
C77   N8    S    
C20   C164  A    
O44   Zn12  S    
C75   N2    S    
C189  N21   T    
C159  O63   S    
C156  N6    A    
C190  N22   T    
C160  O64   S    
C150  O54   S    
C8    O12   A    
O41   Zn9   S    
C38   C76   A    
O29   Zn11  S    
C136  O32   A    
C142  O42   A    
C88   H8    S    
C54   C68   A    
C158  N8    A    
O45   Zn11  S    
C111  C119  A    
C132  O22   A    
C23   C183  S    
C105  O73   S    
C28   C172  A    
C22   C25   A    
C38   H22   S    
C39   C75   A    
C36   C52   A    
C43   C59   A    
O7    Zn2   S    
C37   C53   A    
C13   C169  A    
O23   Zn5   S    
C29   C189  S    
O47   Zn9   S    
C88   C104  A    
C56   C200  S    
C54   C198  S    
C145  N1    A    
C31   C191  S    
O17   Zn5   S    
C104  O72   S    
C159  N7    A    
C96   C126  A    
C135  O31   A    
C143  O43   A    
C49   C193  S    
C61   C205  S    
C145  C163  A    
C4    O4    A    
C151  C165  A    
C146  C164  A    
C109  O77   S    
C68   C132  S    
C36   H20   S    
O65   H33   S    
C99   O67   S    
C107  O75   S    
C136  O30   A    
C18   C29   A    
C19   C163  A    
C23   C28   A    
C100  O68   S    
C9    C161  A    
C134  O28   A    
C17   C161  A    
O12   Zn3   S    
C6    O14   A    
C86   C124  A    
C42   H26   S    
C86   C102  A    
C11   C165  A    
C16   C174  A    
C46   H30   S    
C91   H11   S    
O30   Zn10  S    
C87   H7    S    
C85   H5    S    
C89   H9    S    
C138  O34   A    
O11   Zn3   S    
C78   N7    S    
C152  C166  A    
C92   H12   S    
O3    Zn1   S    
C80   N5    S    
C93   H13   S    
C83   H3    S    
C100  C116  A    
C96   H16   S    
C44   C78   A    
C132  O24   A    
C81   H1    S    
C50   C194  S    
C87   C123  A    
C61   C71   A    
C130  O20   A    
C129  O19   A    
C154  O58   S    
C114  C138  S    
C53   C67   A    
C13   C171  A    
C12   C13   A    
C89   C105  A    
C44   H28   S    
C141  O41   A    
C145  O49   S    
C55   C199  S    
C93   C109  A    
C71   C135  S    
C135  O29   A    
C140  O36   A    
O6    Zn2   S    
C144  O46   A    
C191  N23   T    
C109  C117  A    
C204  N36   T    
C30   C190  S    
C97   O65   S    
C47   C63   A    
C158  O62   S    
C19   C179  S    
C33   C49   A    
C200  N32   T    
C160  N8    A    
C2    O6    A    
C21   C165  A    
O40   Zn8   S    
C51   C65   A    
C53   C197  S    
C18   C178  S    
C9    C163  A    
O10   Zn3   S    
C134  O26   A    
C39   H23   S    
C102  O70   S    
C79   N6    S    
C39   C55   A    
C98   O66   S    
C40   C56   A    
C69   C133  S    
C196  N28   T    
O4    Zn1   S    
C32   C192  S    
C35   H19   S    
O42   Zn10  S    
C152  N4    A    
C33   H17   S    
O76   H44   S    
C3    O5    A    
C83   C99   A    
C105  C117  A    
C142  O48   A    
C138  O40   A    
C107  C119  A    
C58   C202  S    
C67   C131  S    
C157  O61   S    
O72   H40   S    
C90   C106  A    
C155  O59   S    
C147  C161  A    
C21   C181  S    
C188  N20   T    
C15   C173  A    
C40   H24   S    
C185  N17   T    
C130  O18   A    
C117  C141  S    
O68   H36   S    
C17   C177  S    
C103  C115  A    
C32   C176  A    
C82   C122  A    
C184  N16   T    
C38   C54   A    
O31   Zn9   S    
C45   C79   A    
C151  N3    A    
C34   C74   A    
C140  O38   A    
C41   H25   S    
O21   Zn7   S    
O66   H34   S    
C52   C66   A    
C3    C124  S    
C207  N39   T    
C7    O13   A    
C45   H29   S    
C160  C174  A    
C15   C175  A    
C149  N3    A    
C26   C186  S    
C65   C129  S    
C94   C128  A    
O39   Zn5   S    
C148  O52   S    
C41   C57   A    
C178  N10   T    
C180  N12   T    
C12   C166  A    
C18   C162  A    
C186  N18   T    
O75   H43   S    
C44   C60   A    
C6    O10   A    
C45   C61   A    
C94   C110  A    
C4    C121  S    
O9    Zn3   S    
C177  N9    T    
C93   C125  A    
C16   C176  A    
O78   H46   S    
C95   C127  A    
C8    C125  S    
C3    O3    A    
O71   H39   S    
C86   H6    S    
C1    O1    A    
C83   C123  A    
C147  N1    A    
C2    C123  S    
C76   N1    S    
C60   C204  S    
C46   C80   A    
O74   H42   S    
C179  N11   T    
C139  O39   A    
C198  N30   T    
C64   C208  S    
C47   C79   A    
C51   C195  S    
C25   C185  S    
C31   C175  A    
O73   H41   S    
C96   C112  A    
C49   C65   A    
C57   C201  S    
C24   C168  A    
C9    C16   A    
C131  O21   A    
C10   C15   A    
C41   C77   A    
C11   C14   A    
C72   C136  S    
C155  N5    A    
C146  O50   S    
C48   C64   A    
C133  O25   A    
O28   Zn12  S    
C192  N24   T    
C131  O23   A    
O19   Zn7   S    
C84   C124  A    
O20   Zn8   S    
C37   H21   S    
C101  O69   S    
O22   Zn6   S    
C95   H15   S    
O33   Zn5   S    
C82   H2    S    
C60   C70   A    
C111  O79   S    
C92   C128  A    
C146  N2    A    
C92   C108  A    
C27   C187  S    
C28   C188  S    
O34   Zn6   S    
C34   C50   A    
O15   Zn4   S    
C14   C172  A    
C110  C120  A    
O13   Zn4   S    
C4    O8    A    
O46   Zn10  S    
C129  O17   A    
C148  N2    A    
O1    Zn1   S    
O43   Zn11  S    
C153  C171  A    
C62   C72   A    
O16   Zn4   S    
C50   C66   A    
C203  N35   T    
C36   C74   A    
C157  C175  A    
C104  C114  A    
C158  C176  A    
C24   C184  S    
C42   C78   A    
C43   H27   S    
C87   C103  A    
C97   C113  A    
C27   C171  A    
C156  O60   S    
C85   C101  A    
C199  N31   T    
C25   C169  A    
C35   C73   A    
C10   C164  A    
C139  O35   A    
C52   C196  S    
C115  C139  S    
C118  C142  S    
C12   C168  A    
C55   C67   A    
O37   Zn7   S    
C112  O80   S    
C43   C77   A    
C195  N27   T    
C47   H31   S    
C48   C80   A    
C95   C111  A    
C201  N33   T    
C133  O27   A    
C112  C118  A    
C8    O16   A    
C151  O55   S    
C62   C206  S    
C81   C97   A    
C152  O56   S    
C64   C72   A    
O77   H45   S    
C144  O44   A    
C102  C116  A    
C143  O47   A    
C159  C173  A    
C57   C69   A    
C187  N19   T    
C137  O37   A    
C208  N40   T    
C20   C180  S    
C66   C130  S    
C20   C31   A    
