data_mof_unit_32479.cif
_audit_creation_date              2012-12-10T17:48:54-0500
_audit_creation_method            fapswitch 2.2
_symmetry_space_group_name_H-M    P1
_symmetry_Int_Tables_number       1
_space_group_crystal_system       triclinic
_cell_length_a                    10.727801
_cell_length_b                    14.740049
_cell_length_c                    14.865953
_cell_angle_alpha                 64.510614
_cell_angle_beta                  104.524649
_cell_angle_gamma                 102.197034
_cell_volume                      2039.68650597

loop_
_atom_site_label
_atom_site_type_symbol
_atom_type_description
_atom_site_fract_x
_atom_site_fract_y
_atom_site_fract_z
_atom_type_partial_charge
C1    C     C_R   0.479649 0.119728 0.312548 0.787260
C2    C     C_R   0.514570 0.360005 0.080207 0.090016
C3    C     C_R   0.492519 0.320765 0.004910 0.163525
C4    C     C_R   0.259972 0.001035 0.499007 0.751713
C5    C     C_R   0.545455 0.466025 0.053728 0.065394
C6    C     C_R   0.538094 0.532338 0.949835 0.062427
C7    C     C_R   0.518534 0.490205 0.877112 -0.218464
C8    C     C_R   0.497447 0.386287 0.904649 -0.226959
C9    C     C_R   0.585966 0.507757 0.127719 -0.223578
C10   C     C_R   0.609276 0.611582 0.100376 -0.231819
C11   C     C_R   0.590406 0.677539 0.998759 0.168354
C12   C     C_3   0.877425 0.999773 0.499038 0.162516
C13   C     C_R   0.552817 0.638654 0.922455 0.088357
C14   C     C_R   0.608152 0.782317 0.972577 -0.201623
C15   C     C_R   0.586509 0.849233 0.871240 -0.200442
C16   C     C_R   0.523473 0.880185 0.687494 0.794894
C17   C     C_R   0.526976 0.707514 0.821234 -0.256147
C18   C     C_R   0.756230 0.296508 0.637817 -0.327442
C19   C     C_R   0.704212 0.209922 0.619116 0.025196
C20   C     C_R   0.508687 0.281811 0.526804 0.323690
C21   C     C_R   0.551360 0.365975 0.556521 -0.064699
C22   C     C_R   0.682646 0.377716 0.602757 0.109071
C23   C     C_3   0.929927 0.903213 0.585754 -0.387250
C24   C     C_R   0.471870 0.442917 0.534368 0.077482
C25   C     C_R   0.529787 0.540658 0.530184 0.018762
C26   C     C_R   0.663430 0.552450 0.568991 -0.241578
C27   C     C_R   0.738066 0.471151 0.610161 0.196772
C28   C     C_R   0.739640 0.999744 0.499671 0.752576
C29   C     C_R   0.335683 0.423720 0.521785 -0.223424
C30   C     C_R   0.258978 0.502113 0.476648 -0.211473
C31   C     C_R   0.315539 0.601588 0.454720 0.174305
C32   C     C_R   0.450193 0.621935 0.488351 -0.010045
C33   C     C_R   0.236915 0.680049 0.405662 -0.319907
C34   C     C_3   0.960388 0.093588 0.514818 -0.365840
C35   C     C_R   0.289133 0.777317 0.397304 0.075064
C36   C     C_R   0.496202 0.722051 0.481111 -0.001055
C37   C     C_3   0.036131 0.000149 0.397696 -0.383022
C38   C     C_3   0.892677 0.003367 0.396448 -0.374970
C39   C     C_3   0.075389 0.906004 0.587874 -0.368697
C40   C     C_3   0.101380 0.097004 0.508862 -0.395812
C41   C     C_3   0.121523 0.001164 0.498575 0.166109
C42   C     C_3   0.878734 0.487961 0.656557 -0.887426
C43   C     C_3   0.387938 0.285205 0.447661 -0.826534
C44   C     C_R   0.477835 0.187436 0.205525 -0.057073
C45   C     C_R   0.544934 0.811940 0.795109 -0.058773
C46   C     C_R   0.465731 0.216062 0.030808 -0.202825
C47   C     C_R   0.459662 0.149641 0.130779 -0.198124
C48   C     C_R   0.501805 0.291830 0.179283 -0.257336
Cu1   Cu    Cu3+1 0.465900 0.918260 0.475680 0.924842
Cu2   Cu    Cu3+1 0.534100 0.081740 0.524320 0.921723
H1    H     H_    0.044622 0.930537 0.388916 0.167242
H2    H     H_    0.441316 0.069005 0.149516 0.155858
H3    H     H_    0.507752 0.318461 0.237372 0.153587
H4    H     H_    0.069633 0.066217 0.332101 0.148217
H5    H     H_    0.523114 0.535465 0.798331 0.148701
H6    H     H_    0.604711 0.462115 0.207912 0.147167
H7    H     H_    0.638363 0.812457 0.030588 0.130887
H8    H     H_    0.593762 0.741402 0.514442 0.119966
H9    H     H_    0.226408 0.836446 0.364983 0.121201
H10   H     H_    0.154520 0.484488 0.461045 0.139420
H11   H     H_    0.854885 0.299406 0.678494 0.157349
H12   H     H_    0.956030 0.090542 0.590168 0.163539
H13   H     H_    0.762618 0.148543 0.647302 0.134767
H14   H     H_    0.858649 0.073778 0.333482 0.155953
H15   H     H_    0.711509 0.623956 0.570439 0.131039
H16   H     H_    0.286742 0.347836 0.547452 0.148927
H17   H     H_    0.134324 0.665329 0.378209 0.135547
H18   H     H_    0.832230 0.938105 0.381826 0.169828
H19   H     H_    0.091099 0.836030 0.583140 0.169142
H20   H     H_    0.875006 0.834611 0.574682 0.162273
H21   H     H_    0.165226 0.104097 0.577776 0.172080
H22   H     H_    0.124641 0.164663 0.440759 0.164733
H23   H     H_    0.132963 0.906926 0.661114 0.154540
H24   H     H_    0.922109 0.164548 0.456014 0.171082
H25   H     H_    0.906560 0.565561 0.654982 0.228747
H26   H     H_    0.896757 0.433674 0.736961 0.234451
H27   H     H_    0.941956 0.477237 0.613941 0.230648
H28   H     H_    0.304250 0.248231 0.485486 0.202425
H29   H     H_    0.373812 0.364032 0.393269 0.207064
H30   H     H_    0.388312 0.247701 0.399066 0.264845
H31   H     H_    0.916556 0.897618 0.659922 0.150255
H32   H     H_    0.483182 0.357127 0.846666 0.147376
H33   H     H_    0.489226 0.681333 0.761237 0.157549
H34   H     H_    0.601521 0.929844 0.852632 0.154685
H35   H     H_    0.640230 0.640411 0.159395 0.142649
H36   H     H_    0.450177 0.185560 0.973756 0.131854
N1    N     N_R   0.585360 0.204570 0.560800 -0.170574
N2    N     N_R   0.414550 0.795430 0.439160 -0.179598
O1    O     O_R   0.455060 0.022100 0.338110 -0.579816
O2    O     O_R   0.512640 0.160150 0.379180 -0.592536
O3    O     O_R   0.288900 0.930980 0.479450 -0.594537
O4    O     O_R   0.346480 0.069030 0.520520 -0.583326
O5    O     O_R   0.487360 0.839850 0.620820 -0.579909
O6    O     O_R   0.544940 0.977900 0.661890 -0.583083
O7    O     O_R   0.653520 0.930970 0.479480 -0.593968
O8    O     O_R   0.711100 0.069020 0.520550 -0.595957

loop_
_geom_bond_atom_site_label_1
_geom_bond_atom_site_label_2
_ccdc_geom_bond_type
C10   H35   S    
C1    O2    A    
C40   H21   S    
C23   H20   S    
C7    H5    S    
C7    C8    A    
C39   C41   S    
C36   N2    A    
C43   H28   S    
C12   C23   S    
C42   H25   S    
C37   C38   S    
C12   C28   S    
C28   O7    A    
C8    H32   S    
C32   C36   A    
C17   C45   A    
C19   N1    A    
C30   C31   A    
C37   H1    S    
C11   C14   A    
C4    C41   S    
C43   H29   S    
C20   N1    A    
C34   H12   S    
C35   H9    S    
C18   C19   A    
C24   C29   A    
Cu2   O2    S    
C19   H13   S    
C30   H10   S    
C31   C33   A    
C40   H22   S    
C9    C10   A    
C44   C47   A    
C16   O5    A    
C4    O3    A    
C4    O4    A    
C25   C32   A    
C21   C22   A    
C12   C38   S    
Cu1   N2    S    
Cu1   O3    S    
C38   H14   S    
C48   H3    S    
C36   H8    S    
C24   C25   A    
C3    C8    A    
Cu2   O6    S    
C2    C48   A    
C43   H30   S    
C17   H33   S    
C47   H2    S    
C5    C9    A    
C29   C30   A    
C35   N2    A    
C1    C44   S    
C31   C32   A    
C39   H19   S    
C9    H6    S    
Cu1   O7    S    
C6    C7    A    
Cu2   N1    S    
C34   H24   S    
C37   H4    S    
Cu2   O4    S    
C40   C41   S    
C38   H18   S    
C22   C27   A    
C26   C27   A    
C34   C40   S    
C2    C5    A    
C15   C45   A    
C12   C34   S    
C20   C43   S    
C33   H17   S    
C14   H7    S    
C46   C47   A    
C1    O1    A    
C23   H31   S    
C18   C22   A    
C26   H15   S    
C16   O6    A    
Cu1   O1    S    
C16   C45   S    
C18   H11   S    
C15   H34   S    
C3    C46   A    
C42   H26   S    
C13   C17   A    
C28   O8    A    
C2    C3    A    
C25   C26   A    
C6    C13   A    
C11   C13   A    
C27   C42   S    
Cu2   O8    S    
C5    C6    A    
C23   C39   S    
C33   C35   A    
C39   H23   S    
C37   C41   S    
C10   C11   A    
C29   H16   S    
C20   C21   A    
C42   H27   S    
Cu1   Cu2   S    
C21   C24   A    
C14   C15   A    
Cu1   O5    S    
C44   C48   A    
C46   H36   S    
