data_mof_unit_36936.cif
_audit_creation_date              2012-12-10T16:50:19-0500
_audit_creation_method            fapswitch 2.2
_symmetry_space_group_name_H-M    P1
_symmetry_Int_Tables_number       1
_space_group_crystal_system       triclinic
_cell_length_a                    23.330694
_cell_length_b                    8.666931
_cell_length_c                    7.486397
_cell_angle_alpha                 103.490075
_cell_angle_beta                  95.794976
_cell_angle_gamma                 94.184236
_cell_volume                      1457.19661627

loop_
_atom_site_label
_atom_site_type_symbol
_atom_type_description
_atom_site_fract_x
_atom_site_fract_y
_atom_site_fract_z
_atom_type_partial_charge
C1    C     C_R   0.498144 0.199382 0.452596 0.886963
C2    C     C_R   0.501850 0.800617 0.547405 0.887074
C3    C     C_R   0.230026 0.455578 0.332626 0.312159
C4    C     C_R   0.768942 0.553682 0.682016 0.296760
C5    C     C_R   0.290408 0.479901 0.337812 -0.280194
C6    C     C_R   0.708520 0.538926 0.675257 -0.287266
C7    C     C_R   0.327305 0.467013 0.493025 -0.061072
C8    C     C_R   0.673003 0.526203 0.507994 -0.064119
C9    C     C_R   0.303401 0.422965 0.640472 -0.215156
C10   C     C_R   0.698743 0.537941 0.349663 -0.218721
C11   C     C_R   0.243663 0.397508 0.635859 -0.187926
C12   C     C_R   0.758838 0.555468 0.356833 -0.177261
C13   C     C_R   0.206659 0.416621 0.485177 0.351686
C14   C     C_R   0.794333 0.559179 0.520687 0.324969
C15   C     C_2   0.497367 0.030915 0.426449 -0.365253
C16   C     C_2   0.502620 0.969084 0.573551 -0.365358
C17   C     C_R   0.390621 0.492395 0.498419 0.808464
C18   C     C_R   0.609444 0.506747 0.501620 0.807924
C19   C     C_R   0.895298 0.664271 0.618567 0.571240
C20   C     C_R   0.107515 0.299286 0.461483 0.523521
C21   C     C_R   0.871595 0.405153 0.419257 0.536432
C22   C     C_R   0.131168 0.579434 0.576183 0.586791
C23   C     C_R   0.929417 0.369663 0.442925 -0.090745
C24   C     C_R   0.073488 0.601807 0.606916 -0.095253
C25   C     C_R   0.971944 0.495976 0.534011 -0.096428
C26   C     C_R   0.030929 0.470953 0.536304 -0.098671
C27   C     C_R   0.955311 0.648571 0.616626 -0.126351
C28   C     C_R   0.047590 0.315594 0.466990 -0.115524
C29   C     C_R   0.945316 0.211962 0.382849 0.210591
C30   C     C_R   0.057463 0.751885 0.700257 0.221802
C31   C     C_R   0.004486 0.183177 0.401894 0.214925
C32   C     C_R   0.998244 0.778809 0.698478 0.220166
Cu1   Cu    Cu3+1 0.506340 0.517380 0.684380 0.949023
Cu2   Cu    Cu3+1 0.493660 0.482620 0.315620 0.949879
H1    H     H_    0.308384 0.512749 0.222385 0.155739
H2    H     H_    0.689580 0.533423 0.800229 0.159894
N1    N     N_R   0.855341 0.545358 0.516229 -0.449636
N2    N     N_R   0.146714 0.430980 0.506691 -0.447051
N3    N     N_2   0.484110 0.456420 0.038520 -0.215792
N4    N     N_2   0.515890 0.543580 0.961480 -0.216548
O1    O     O_R   0.504120 0.286130 0.619770 -0.580710
O2    O     O_R   0.495880 0.713870 0.380230 -0.580388
O3    O     O_R   0.493410 0.256770 0.308360 -0.582199
O4    O     O_R   0.506590 0.743230 0.691640 -0.582138
O5    O     O_R   0.423230 0.514630 0.655730 -0.586117
O6    O     O_R   0.576770 0.485370 0.344270 -0.587172
O7    O     O_R   0.412530 0.485280 0.344320 -0.582257
O8    O     O_R   0.587470 0.514720 0.655680 -0.583949
O9    O     O_2   0.876663 0.795303 0.723329 -0.544530
O10   O     O_2   0.126764 0.155286 0.403835 -0.567552
O11   O     O_2   0.831337 0.300650 0.301597 -0.567693
O12   O     O_2   0.171702 0.705110 0.609028 -0.544757
N5    N     N_2   0.902231 0.081068 0.307669 -0.416695
H3    H     H_    0.883893 0.070793 0.173646 0.296655
C33   C     C_3   0.864861 0.029112 0.430273 -0.569041
H4    H     H_    0.868138 0.900777 0.421013 0.220777
H5    H     H_    0.818972 0.042109 0.386322 0.252048
H6    H     H_    0.876539 0.098166 0.576024 0.220168
N6    N     N_2   0.100600 0.873661 0.802705 -0.425315
H7    H     H_    0.123573 0.938775 0.729737 0.294913
C34   C     C_3   0.130364 0.848362 0.971649 -0.590019
H8    H     H_    0.130692 0.956815 0.084623 0.263474
H9    H     H_    0.175930 0.826392 0.953753 0.246871
H10   H     H_    0.108781 0.745754 0.013260 0.219709
N7    N     N_2   0.021746 0.023997 0.371723 -0.402805
H11   H     H_    0.046871 0.998426 0.480212 0.282261
C35   C     C_3   0.990789 0.886317 0.239947 -0.602878
H12   H     H_    0.022208 0.801978 0.186977 0.221815
H13   H     H_    0.967748 0.919105 0.119796 0.271427
H14   H     H_    0.959859 0.823812 0.308897 0.217589
N8    N     N_2   0.980101 0.936660 0.753169 -0.395241
H15   H     H_    0.954851 0.967078 0.648769 0.281620
C36   C     C_3   0.015413 0.073694 0.872701 -0.656333
H16   H     H_    0.987129 0.168612 0.921450 0.219425
H17   H     H_    0.047581 0.122953 0.795996 0.217331
H18   H     H_    0.037165 0.044144 0.996732 0.277263
N9    N     N_2   0.193309 0.485214 0.182615 -0.425586
H19   H     H_    0.212753 0.562454 0.115494 0.252088
C37   C     C_3   0.163611 0.344203 0.053808 -0.705410
H20   H     H_    0.138911 0.378974 0.936943 0.217038
H21   H     H_    0.132275 0.282170 0.121015 0.264674
H22   H     H_    0.195173 0.260918 0.998392 0.229158
N10   N     N_2   0.804215 0.562833 0.850995 -0.412392
H23   H     H_    0.788464 0.630071 0.964587 0.244349
C38   C     C_3   0.820343 0.411138 0.877804 -0.648365
H24   H     H_    0.851528 0.431460 0.005126 0.243065
H25   H     H_    0.841644 0.348177 0.759642 0.229369
H26   H     H_    0.781468 0.335299 0.892804 0.236621
H27   H     H_    0.330846 0.409847 0.760579 0.158610
H28   H     H_    0.672546 0.531736 0.219747 0.159861
H29   H     H_    0.225929 0.371282 0.754374 0.146692
H30   H     H_    0.778118 0.558949 0.232770 0.152900
H31   H     H_    0.492518 0.957624 0.285470 0.179941
H32   H     H_    0.507468 0.042375 0.714530 0.179898
H33   H     H_    0.453873 0.375476 0.947868 0.220120
H34   H     H_    0.546129 0.624519 0.052128 0.220142

loop_
_geom_bond_atom_site_label_1
_geom_bond_atom_site_label_2
_ccdc_geom_bond_type
C33   H4    S    
Cu1   O5    S    
C36   H16   S    
Cu2   O2    S    
N5    H3    S    
C23   C29   A    
C24   C26   A    
C15   C16   D    
C22   N2    A    
C31   N7    S    
C34   H9    S    
C20   O10   S    
C19   N1    A    
C1    O3    A    
C2    O4    A    
C7    C17   S    
C1    C15   S    
C2    C16   S    
C3    C13   A    
N9    H19   S    
N9    C37   S    
N6    H7    S    
C36   H17   S    
N4    H34   S    
C18   O6    A    
C32   N8    S    
C5    C7    A    
N5    C33   S    
N6    C34   S    
Cu1   N4    S    
C38   H25   S    
Cu2   N3    S    
C4    C6    A    
C9    H27   S    
N3    N4    D    
C37   H21   S    
C6    C8    A    
C20   C28   A    
N7    C35   S    
C25   C26   A    
C38   H24   S    
C8    C18   S    
C35   H12   S    
C35   H13   S    
C34   H10   S    
C20   N2    A    
C19   O9    S    
N10   H23   S    
C30   N6    S    
Cu1   Cu2   S    
C9    C11   A    
N3    H33   S    
C13   N2    S    
C10   C12   A    
Cu2   O6    S    
C1    O1    A    
N10   C38   S    
C12   C14   A    
C33   H5    S    
C36   H18   S    
C22   C24   A    
C3    N9    S    
C21   O11   S    
C19   C27   A    
C22   O12   S    
C38   H26   S    
C7    C9    A    
C27   C32   A    
Cu1   O4    S    
C26   C28   A    
C12   H30   S    
C28   C31   A    
Cu2   O3    S    
C17   O7    A    
C17   O5    A    
C3    C5    A    
C18   O8    A    
C15   H31   S    
C37   H22   S    
C25   C27   A    
C16   H32   S    
C35   H14   S    
Cu1   O1    S    
C21   C23   A    
N8    H15   S    
C29   C31   A    
C14   N1    S    
C30   C32   A    
C11   C13   A    
C4    N10   S    
C29   N5    S    
C2    O2    A    
C5    H1    S    
C6    H2    S    
C23   C25   A    
C4    C14   A    
C34   H8    S    
C24   C30   A    
C37   H20   S    
C11   H29   S    
C21   N1    A    
C10   H28   S    
C8    C10   A    
N7    H11   S    
C33   H6    S    
N8    C36   S    
Cu1   O8    S    
Cu2   O7    S    
