data_mof_unit_36395.cif
_audit_creation_date              2012-12-10T17:15:44-0500
_audit_creation_method            fapswitch 2.2
_symmetry_space_group_name_H-M    P1
_symmetry_Int_Tables_number       1
_space_group_crystal_system       triclinic
_cell_length_a                    17.334786
_cell_length_b                    13.024016
_cell_length_c                    11.641498
_cell_angle_alpha                 101.558072
_cell_angle_beta                  88.591899
_cell_angle_gamma                 91.186922
_cell_volume                      2573.87574066

loop_
_atom_site_label
_atom_site_type_symbol
_atom_type_description
_atom_site_fract_x
_atom_site_fract_y
_atom_site_fract_z
_atom_type_partial_charge
C1    C     C_R   0.496796 0.298273 0.476791 0.791529
C2    C     C_R   0.502196 0.701833 0.523421 0.794454
C3    C     C_R   0.504567 0.817075 0.540140 -0.105397
C4    C     C_R   0.493274 0.183186 0.460422 -0.101401
C5    C     C_R   0.469195 0.006571 0.350176 -0.208974
C6    C     C_R   0.527483 0.993888 0.650770 -0.203912
C7    C     C_R   0.469885 0.115229 0.354166 0.083588
C8    C     C_R   0.524797 0.885455 0.647931 0.081336
C9    C     C_R   0.512889 0.140933 0.557215 -0.285934
C10   C     C_R   0.486415 0.859164 0.442520 -0.282249
C11   C     C_R   0.509842 0.033783 0.552099 0.133379
C12   C     C_R   0.488606 0.966423 0.447974 0.133389
C13   C     C_R   0.421584 0.410259 0.030157 -0.354183
C14   C     C_R   0.578264 0.589970 0.969891 -0.347212
C15   C     C_R   0.429613 0.418028 0.151508 0.084878
C16   C     C_R   0.570147 0.582351 0.848586 0.080579
C17   C     C_R   0.534718 0.537459 0.153260 0.009750
C18   C     C_R   0.465630 0.462003 0.846613 0.023395
C19   C     C_R   0.528660 0.532311 0.031134 0.069046
C20   C     C_R   0.471399 0.467589 0.968839 0.069219
C21   C     C_R   0.350964 0.504276 0.517301 0.787550
C22   C     C_R   0.649304 0.497239 0.482853 0.790062
C23   C     C_R   0.267212 0.508768 0.530835 -0.049884
C24   C     C_R   0.733545 0.497946 0.470995 -0.048982
C25   C     C_R   0.223386 0.442221 0.446622 -0.237968
C26   C     C_R   0.774670 0.559002 0.563281 -0.237521
C27   C     C_R   0.143565 0.442255 0.455104 -0.150513
C28   C     C_R   0.854532 0.563539 0.559186 -0.150402
C29   C     C_R   0.106198 0.509888 0.547561 0.158883
C30   C     C_R   0.895056 0.505745 0.463037 0.161985
C31   C     C_R   0.149411 0.574779 0.633757 -0.193263
C32   C     C_R   0.854814 0.446798 0.369023 -0.195355
C33   C     C_R   0.230113 0.576602 0.625891 0.078855
C34   C     C_R   0.774005 0.440876 0.371416 0.081440
C35   C     C_2   0.021868 0.515108 0.554929 -0.223132
C36   C     C_2   0.979621 0.504260 0.458244 -0.219973
Cu1   Cu    Cu3+1 0.505800 0.507690 0.615350 0.921858
Cu2   Cu    Cu3+1 0.494200 0.492310 0.384650 0.924730
H1    H     H_    0.251130 0.389095 0.374552 0.140688
H2    H     H_    0.744764 0.604598 0.638789 0.144361
H3    H     H_    0.609006 0.626519 0.802155 0.118071
H4    H     H_    0.390622 0.374081 0.198011 0.121169
H5    H     H_    0.376658 0.360070 0.984823 0.139987
H6    H     H_    0.623097 0.640300 0.015263 0.138626
H7    H     H_    0.120069 0.626847 0.705103 0.122403
H8    H     H_    0.886973 0.402621 0.294967 0.117666
H9    H     H_    0.884136 0.613171 0.630976 0.126628
H10   H     H_    0.111249 0.388670 0.389739 0.128987
H11   H     H_    0.469931 0.808131 0.361000 0.163130
H12   H     H_    0.530541 0.191823 0.638179 0.162784
H13   H     H_    0.452703 0.951587 0.271906 0.128483
H14   H     H_    0.543063 0.049014 0.729434 0.127135
H15   H     H_    0.422256 0.411668 0.797588 0.116649
H16   H     H_    0.578493 0.587168 0.202137 0.121522
N1    N     N_R   0.514530 0.519260 0.788680 -0.178891
N2    N     N_R   0.485470 0.480740 0.211320 -0.179030
O1    O     O_R   0.504120 0.354440 0.581590 -0.579963
O2    O     O_R   0.495880 0.645560 0.418410 -0.578363
O3    O     O_R   0.494320 0.341440 0.386760 -0.598152
O4    O     O_R   0.505680 0.658560 0.613240 -0.605554
O5    O     O_R   0.391870 0.507230 0.608700 -0.585337
O6    O     O_R   0.608130 0.492770 0.391300 -0.588606
O7    O     O_R   0.382070 0.494240 0.413880 -0.586678
O8    O     O_R   0.617930 0.505760 0.586120 -0.586741
C37   C     C_3   0.734667 0.370770 0.268618 -0.409258
C38   C     C_3   0.699838 0.271425 0.302625 -0.314435
C39   C     C_3   0.664621 0.198912 0.196770 -0.850810
H17   H     H_    0.621005 0.241207 0.156486 0.254565
H18   H     H_    0.710237 0.169961 0.130167 0.247970
H19   H     H_    0.636177 0.130506 0.224796 0.243611
H20   H     H_    0.745591 0.228655 0.338069 0.213288
H21   H     H_    0.654336 0.291973 0.371549 0.219073
H22   H     H_    0.690424 0.414636 0.231902 0.217450
H23   H     H_    0.777104 0.346028 0.195540 0.185890
C40   C     C_3   0.273592 0.655460 0.716002 -0.401092
C41   C     C_3   0.284302 0.613357 0.828461 -0.312444
C42   C     C_3   0.337651 0.684854 0.912874 -0.840850
H24   H     H_    0.395889 0.689059 0.871994 0.259353
H25   H     H_    0.313755 0.764965 0.936970 0.245861
H26   H     H_    0.343390 0.653044 0.993860 0.243725
H27   H     H_    0.227264 0.607386 0.872631 0.204012
H28   H     H_    0.309176 0.533748 0.806919 0.227709
H29   H     H_    0.330176 0.677021 0.679974 0.206606
H30   H     H_    0.240941 0.729730 0.737619 0.181417
H31   H     H_    0.007615 0.489472 0.372121 0.144669
H32   H     H_    0.994774 0.530469 0.641578 0.143563
C43   C     C_3   0.543763 0.843252 0.757253 -0.368811
C44   C     C_3   0.565356 0.924845 0.867235 -0.387645
C45   C     C_3   0.582152 0.872398 0.969838 -0.874058
H33   H     H_    0.530725 0.827200 0.991895 0.257378
H34   H     H_    0.631790 0.818993 0.947527 0.249666
H35   H     H_    0.596870 0.933167 0.047979 0.245111
H36   H     H_    0.617761 0.969873 0.848521 0.223388
H37   H     H_    0.516808 0.979559 0.893808 0.228454
H38   H     H_    0.492378 0.799198 0.781545 0.216221
H39   H     H_    0.593081 0.789239 0.734741 0.199324
C46   C     C_3   0.444165 0.158289 0.248566 -0.373055
C47   C     C_3   0.416341 0.077320 0.141957 -0.388253
C48   C     C_3   0.393060 0.130313 0.042671 -0.878206
H40   H     H_    0.345175 0.185400 0.072178 0.249093
H41   H     H_    0.443105 0.173754 0.013092 0.256236
H42   H     H_    0.373316 0.069970 0.967229 0.245967
H43   H     H_    0.463506 0.022162 0.108291 0.228891
H44   H     H_    0.365606 0.032744 0.167712 0.224542
H45   H     H_    0.396064 0.213098 0.278182 0.196609
H46   H     H_    0.493335 0.202027 0.217550 0.224647

loop_
_geom_bond_atom_site_label_1
_geom_bond_atom_site_label_2
_ccdc_geom_bond_type
C27   H10   S    
C43   C44   S    
C28   H9    S    
C27   C29   A    
C19   C20   A    
C40   H29   S    
C46   C47   S    
C42   H24   S    
C22   C24   S    
C24   C26   A    
C1    O3    A    
C35   H32   S    
C2    O4    A    
C40   H30   S    
C47   H43   S    
C37   H22   S    
C18   H15   S    
Cu2   O2    S    
C33   C40   S    
C38   H21   S    
C48   H40   S    
C23   C33   A    
C43   H38   S    
C31   C33   A    
C45   H34   S    
C21   O5    A    
C46   H45   S    
C38   C39   S    
C4    C7    A    
C34   C37   S    
C42   H25   S    
C44   H37   S    
C39   H17   S    
C41   C42   S    
C5    C12   A    
C3    C8    A    
C41   H28   S    
C6    C11   A    
C5    C7    A    
C6    C8    A    
C24   C34   A    
C37   H23   S    
C39   H18   S    
C35   C36   D    
C32   C34   A    
C40   C41   S    
Cu1   Cu2   S    
C1    O1    A    
C22   O6    A    
C38   H20   S    
C43   H39   S    
C45   H35   S    
C9    C11   A    
C17   N2    A    
C10   C12   A    
C18   N1    A    
C46   H46   S    
C48   H41   S    
C47   C48   S    
C13   C15   A    
C14   C16   A    
C13   H5    S    
Cu1   O8    S    
C14   H6    S    
Cu2   O7    S    
C42   H26   S    
C44   H36   S    
C7    C46   S    
C13   C20   A    
C32   H8    S    
C14   C19   A    
C9    H12   S    
C15   H4    S    
C41   H27   S    
Cu1   O5    S    
C11   C12   A    
C2    O2    A    
C36   H31   S    
C25   C27   A    
C29   C35   S    
C26   C28   A    
C30   C36   S    
C8    C43   S    
C15   N2    A    
C1    C4    S    
C21   C23   S    
C2    C3    S    
C4    C9    A    
C16   N1    A    
C29   C31   A    
C3    C10   A    
C25   H1    S    
C30   C32   A    
C26   H2    S    
C47   H44   S    
C16   H3    S    
C28   C30   A    
C17   C19   A    
C18   C20   A    
C23   C25   A    
C21   O7    A    
Cu1   O4    S    
C22   O8    A    
Cu2   O3    S    
Cu1   N1    S    
C48   H42   S    
Cu2   N2    S    
C44   C45   S    
C37   C38   S    
C31   H7    S    
C5    H13   S    
C39   H19   S    
C6    H14   S    
C45   H33   S    
C10   H11   S    
C17   H16   S    
Cu1   O1    S    
Cu2   O6    S    
