data_mof_unit_28174.cif
_audit_creation_date              2013-03-05T16:15:22-0500
_audit_creation_method            fapswitch 2.2
_symmetry_space_group_name_H-M    P1
_symmetry_Int_Tables_number       1
_space_group_crystal_system       triclinic
_cell_length_a                    27.75911
_cell_length_b                    10.614548
_cell_length_c                    9.40779
_cell_angle_alpha                 88.625323
_cell_angle_beta                  89.797827
_cell_angle_gamma                 90.083022
_cell_volume                      2771.19081486

loop_
_atom_site_label
_atom_site_type_symbol
_atom_site_description
_atom_site_fract_x
_atom_site_fract_y
_atom_site_fract_z
_atom_type_partial_charge
O1    O     O_R   0.500020 0.316850 0.620870 -0.583507
O2    O     O_R   0.499980 0.683150 0.379130 -0.583244
O3    O     O_R   0.500000 0.316860 0.379090 -0.585647
O4    O     O_R   0.500000 0.683140 0.620910 -0.586010
C1    C     C_R   0.500902 0.259568 0.501632 0.772022
C2    C     C_R   0.499098 0.740428 0.498395 0.771897
O5    O     O_R   0.430270 0.500020 0.620880 -0.571002
O6    O     O_R   0.569730 0.499980 0.379120 -0.571462
O7    O     O_R   0.430250 0.500030 0.379090 -0.583417
O8    O     O_R   0.569750 0.499970 0.620910 -0.583202
C3    C     C_R   0.407763 0.503444 0.500048 0.801731
C4    C     C_R   0.592230 0.496808 0.499931 0.801567
Cu1   Cu    Cu3+1 0.500010 0.499990 0.643150 0.932578
Cu2   Cu    Cu3+1 0.499990 0.500010 0.356850 0.932804
C5    C     C_R   0.178143 0.540913 0.374549 0.537226
C6    C     C_R   0.821882 0.469751 0.628466 0.536099
O9    O     O_2   0.202799 0.576859 0.256469 -0.534932
O10   O     O_2   0.797264 0.442787 0.749403 -0.532473
N1    N     N_R   0.202511 0.508133 0.495886 -0.463324
N2    N     N_R   0.797483 0.492855 0.504594 -0.463479
C7    C     C_R   0.178677 0.470466 0.617118 0.537087
C8    C     C_R   0.821312 0.521406 0.380415 0.537198
C9    C     C_R   0.279045 0.612855 0.561947 0.204150
C10   C     C_R   0.720950 0.384872 0.444758 0.205443
C11   C     C_R   0.330167 0.611933 0.564321 0.143737
C12   C     C_R   0.669843 0.386197 0.440956 0.143069
C13   C     C_R   0.329683 0.417187 0.431082 -0.282842
C14   C     C_R   0.670236 0.586400 0.563759 -0.282551
C15   C     C_R   0.279725 0.417624 0.430297 -0.143522
C16   C     C_R   0.720193 0.586082 0.564759 -0.142104
C17   C     C_R   0.254185 0.513471 0.496138 0.319727
C18   C     C_R   0.745794 0.487230 0.504842 0.317817
C19   C     C_R   0.102151 0.502682 0.497241 -0.044413
C20   C     C_R   0.897854 0.498932 0.502742 -0.044869
C21   C     C_R   0.127576 0.538121 0.372723 -0.023038
C22   C     C_R   0.872446 0.472959 0.630001 -0.022119
C23   C     C_R   0.102145 0.571183 0.249756 -0.147941
C24   C     C_R   0.897887 0.450788 0.755776 -0.147705
C25   C     C_R   0.128123 0.468455 0.620543 -0.026233
C26   C     C_R   0.871863 0.523527 0.376834 -0.025542
C27   C     C_R   0.355151 0.511659 0.499644 -0.064176
C28   C     C_R   0.644827 0.489033 0.500271 -0.062375
H1    H     H_    0.348657 0.341157 0.380277 0.157388
H2    H     H_    0.651212 0.664511 0.610319 0.155777
H3    H     H_    0.260559 0.342311 0.379121 0.159120
H4    H     H_    0.739312 0.663746 0.611571 0.159443
H5    H     H_    0.120843 0.599550 0.152851 0.187955
H6    H     H_    0.879195 0.432836 0.855559 0.186171
C29   C     C_R   0.974105 0.528154 0.372219 0.043837
C30   C     C_R   0.025895 0.469443 0.626480 0.042551
C31   C     C_R   0.974694 0.473147 0.629115 0.043670
C32   C     C_R   0.025319 0.532908 0.371872 0.042566
C33   C     C_R   0.949103 0.500154 0.501364 0.068591
C34   C     C_R   0.050901 0.501617 0.498511 0.069063
C35   C     C_R   0.946722 0.549969 0.247269 -0.208915
C36   C     C_R   0.053244 0.433513 0.747605 -0.210125
C37   C     C_R   0.896715 0.548226 0.250003 -0.147552
C38   C     C_R   0.103251 0.433154 0.744371 -0.147565
O11   O     O_2   0.796095 0.546774 0.260730 -0.527176
O12   O     O_2   0.203890 0.436097 0.734133 -0.529299
C39   C     C_R   0.052133 0.568706 0.248985 -0.210172
C40   C     C_R   0.947905 0.451455 0.755814 -0.209370
H7    H     H_    0.877565 0.565640 0.151306 0.186836
H8    H     H_    0.122389 0.405252 0.840228 0.188510
H9    H     H_    0.962652 0.567041 0.144160 0.134540
H10   H     H_    0.037256 0.402907 0.846931 0.139305
H11   H     H_    0.035736 0.597693 0.150076 0.138807
H12   H     H_    0.964347 0.436192 0.858195 0.134429
C41   C     C_3   0.523431 0.033285 0.616796 0.074079
C42   C     C_3   0.476600 0.966685 0.383431 0.073657
C43   C     C_3   0.545330 0.955020 0.497022 -0.212116
C44   C     C_3   0.454710 0.044955 0.503192 -0.212112
H13   H     H_    0.582372 0.915765 0.494457 0.133341
H14   H     H_    0.417667 0.084206 0.505763 0.133965
C45   C     C_3   0.498656 0.877088 0.495250 -0.025912
C46   C     C_3   0.501379 0.122900 0.504923 -0.025815
C47   C     C_3   0.476886 0.953644 0.616157 -0.216942
C48   C     C_3   0.523145 0.046324 0.384004 -0.216503
H15   H     H_    0.457119 0.912345 0.708814 0.136078
H16   H     H_    0.542903 0.087555 0.291291 0.136328
C49   C     C_3   0.504183 0.613386 0.047304 -0.039947
C50   C     C_3   0.495816 0.386615 0.952699 -0.039815
C51   C     C_3   0.464599 0.566062 0.947884 -0.023974
C52   C     C_3   0.535401 0.433941 0.052120 -0.024013
H17   H     H_    0.434919 0.621963 0.899002 0.124332
H18   H     H_    0.565083 0.378066 0.101035 0.124590
H19   H     H_    0.507661 0.709061 0.091388 0.130358
H20   H     H_    0.492331 0.290940 0.908622 0.130620
N3    N     N_3   0.500040 0.499970 0.858290 -0.158134
N4    N     N_3   0.499960 0.500030 0.141710 -0.158081
C53   C     C_3   0.539634 0.547289 0.947858 -0.036929
C54   C     C_3   0.460365 0.452714 0.052144 -0.036439
H21   H     H_    0.572954 0.587340 0.899194 0.127639
H22   H     H_    0.427044 0.412666 0.100809 0.126914
C55   C     C_R   0.551635 0.065627 0.747192 0.094454
C56   C     C_R   0.546493 0.992512 0.872812 -0.162211
C57   C     C_R   0.574198 0.018920 0.992141 -0.154990
C58   C     C_R   0.607146 0.118477 0.987143 -0.131964
C59   C     C_R   0.612860 0.190941 0.862229 -0.130627
C60   C     C_R   0.585641 0.163707 0.742056 -0.115903
H23   H     H_    0.521750 0.913663 0.878219 0.134590
H24   H     H_    0.570338 0.961455 0.088106 0.133805
H25   H     H_    0.628655 0.138267 0.079440 0.129254
H26   H     H_    0.638702 0.267424 0.858044 0.147750
H27   H     H_    0.591164 0.218948 0.645336 0.126927
C61   C     C_R   0.448211 0.934020 0.253552 0.094823
C62   C     C_R   0.453607 0.005828 0.127110 -0.162724
C63   C     C_R   0.425563 0.979516 0.008451 -0.154528
C64   C     C_R   0.392027 0.881343 0.014953 -0.132747
C65   C     C_R   0.386116 0.810060 0.140648 -0.129601
C66   C     C_R   0.413673 0.837243 0.260179 -0.114128
H28   H     H_    0.478743 0.083770 0.120630 0.134786
H29   H     H_    0.429559 0.036147 0.911925 0.133809
H30   H     H_    0.370186 0.861845 0.923251 0.130316
H31   H     H_    0.359820 0.734678 0.145990 0.148012
H32   H     H_    0.407950 0.783137 0.357658 0.124879
C67   C     C_3   0.643134 0.276900 0.376267 -0.906128
H33   H     H_    0.652929 0.271332 0.262307 0.237710
H34   H     H_    0.652934 0.187349 0.432078 0.231094
H35   H     H_    0.603484 0.284264 0.383104 0.227099
C68   C     C_3   0.356922 0.719077 0.633139 -0.904448
H36   H     H_    0.348356 0.718630 0.748288 0.236954
H37   H     H_    0.396511 0.714174 0.621653 0.227575
H38   H     H_    0.346027 0.810587 0.583773 0.231112
C69   C     C_3   0.748444 0.273888 0.387000 -0.792679
H39   H     H_    0.737052 0.185740 0.443388 0.222736
H40   H     H_    0.741337 0.265776 0.271550 0.244780
H41   H     H_    0.787915 0.281394 0.401336 0.229365
C70   C     C_3   0.251542 0.720303 0.627415 -0.793110
H42   H     H_    0.262061 0.810920 0.574785 0.223521
H43   H     H_    0.211988 0.711930 0.615808 0.229716
H44   H     H_    0.259582 0.723976 0.742732 0.244144

loop_
_geom_bond_atom_site_label_1
_geom_bond_atom_site_label_2
_geom_bond_distance
_ccdc_geom_bond_type
C43   C45   1.536515 S    
C13   C15   1.386844 A    
C62   H28   1.081968 S    
C41   C47   1.543106 S    
C55   C56   1.404929 A    
C12   C67   1.516761 S    
C44   C46   1.536470 S    
N1    C17   1.435459 S    
C57   C58   1.396408 A    
C2    C45   1.450248 S    
C5    N1    1.367034 A    
C51   C54   1.538040 S    
C60   H27   1.080942 S    
C19   C25   1.408485 A    
C50   N3    1.482534 S    
O1    C1    1.288884 A    
C46   C48   1.536470 S    
C21   C23   1.395280 A    
C52   H18   1.110580 S    
C32   C39   1.416700 A    
C67   H34   1.109515 S    
C50   H20   1.110337 S    
C42   C48   1.543060 S    
C61   C62   1.404750 A    
C58   H25   1.080098 S    
C50   C54   1.537172 S    
C63   C64   1.396413 A    
C9    C70   1.515227 S    
C41   C46   1.531490 S    
C14   C28   1.397447 A    
O4    Cu1   1.950285 S    
C41   C43   1.539788 S    
C13   C27   1.397721 A    
C65   C66   1.397842 A    
Cu2   N4    2.023991 S    
C68   H38   1.109439 S    
C4    C28   1.462512 S    
C35   H9    1.075940 S    
C69   H41   1.107398 S    
C62   C63   1.396655 A    
C36   H10   1.076003 S    
C66   H32   1.081441 S    
C52   C53   1.538051 S    
N3    C53   1.481740 S    
C24   H6    1.083719 S    
C57   H24   1.082277 S    
C6    N2    1.367214 A    
C70   H44   1.109958 S    
Cu1   N3    2.023991 S    
C59   H26   1.082482 S    
Cu1   Cu2   2.693446 S    
O2    C2    1.289085 A    
C31   C40   1.416626 A    
C52   N4    1.481517 S    
C5    C21   1.404139 A    
C49   C51   1.537140 S    
C32   C34   1.421869 A    
C37   H7    1.083714 S    
C61   C66   1.404262 A    
C47   H15   1.109363 S    
C38   H8    1.083607 S    
C51   N3    1.481563 S    
C7    O12   1.349709 S    
C44   H14   1.110453 S    
C42   C61   1.503521 S    
C67   H35   1.105312 S    
C11   C27   1.419270 A    
C8    O11   1.349765 S    
C43   H13   1.110448 S    
C55   C60   1.404162 A    
O3    C1    1.290780 A    
C29   C35   1.416665 A    
C25   C38   1.395291 A    
C14   H2    1.084083 S    
C30   C36   1.416480 A    
C15   H3    1.083031 S    
C31   C33   1.421733 A    
C9    C17   1.415852 A    
C63   H29   1.082213 S    
O5    C3    1.298841 A    
O7    Cu2   1.946461 S    
C10   C18   1.416194 A    
C44   C47   1.550706 S    
C53   H21   1.110134 S    
O7    C3    1.297273 A    
C39   H11   1.075815 S    
N4    C54   1.481733 S    
C59   C60   1.397761 A    
C7    C25   1.403715 A    
O6    C4    1.298557 A    
C29   C32   1.422472 A    
C8    C26   1.403682 A    
C56   C57   1.396742 A    
C54   H22   1.110138 S    
C30   C31   1.422040 A    
C30   C34   1.421812 A    
C45   C47   1.536329 S    
C68   H36   1.108161 S    
C49   H19   1.110346 S    
O3    Cu2   1.950284 S    
O8    C4    1.297223 A    
C64   H30   1.080098 S    
C49   N4    1.482529 S    
O4    C2    1.290540 A    
C51   H17   1.110559 S    
N2    C8    1.367908 A    
C50   C52   1.537158 S    
C35   C37   1.388388 A    
C69   H39   1.109507 S    
C20   C26   1.408360 A    
C23   H5    1.083624 S    
C12   C28   1.419078 A    
C70   H42   1.109461 S    
N2    C18   1.435996 S    
C19   C34   1.422689 A    
C5    O9    1.349669 S    
O6    Cu2   1.947959 S    
C26   C37   1.395361 A    
N1    C7    1.367626 A    
C16   H4    1.083045 S    
C10   C12   1.419343 A    
C41   C55   1.503965 S    
O8    Cu1   1.946461 S    
C23   C39   1.388536 A    
C40   H12   1.076148 S    
C1    C46   1.450337 S    
C22   C24   1.395443 A    
C15   C17   1.396637 A    
C67   H33   1.108090 S    
C6    C22   1.404109 A    
C16   C18   1.396950 A    
C10   C69   1.515236 S    
C29   C33   1.422065 A    
C14   C16   1.386833 A    
C19   C21   1.408589 A    
C20   C22   1.408701 A    
C36   C38   1.388394 A    
C3    C27   1.463200 S    
C48   H16   1.109398 S    
C9    C11   1.419389 A    
O2    Cu2   1.960209 S    
C68   H37   1.105316 S    
C49   C53   1.537174 S    
C13   H1    1.084026 S    
O5    Cu1   1.947959 S    
O1    Cu1   1.960211 S    
C20   C33   1.422697 A    
C6    O10   1.349706 S    
C58   C59   1.397415 A    
C64   C65   1.397530 A    
C42   C45   1.531071 S    
C69   H40   1.109934 S    
C42   C44   1.539626 S    
C70   H43   1.107420 S    
C56   H23   1.082061 S    
C11   C68   1.516728 S    
C65   H31   1.082467 S    
C43   C48   1.551104 S    
C24   C40   1.388467 A    
