data_mof_unit_43266.cif
_audit_creation_date              2012-12-10T19:16:27-0500
_audit_creation_method            fapswitch 2.2
_symmetry_space_group_name_H-M    P1
_symmetry_Int_Tables_number       1
_space_group_crystal_system       triclinic
_cell_length_a                    10.806537
_cell_length_b                    10.104516
_cell_length_c                    28.444118
_cell_angle_alpha                 87.7636
_cell_angle_beta                  90.814998
_cell_angle_gamma                 86.998097
_cell_volume                      3098.91417396

loop_
_atom_site_label
_atom_site_type_symbol
_atom_type_description
_atom_site_fract_x
_atom_site_fract_y
_atom_site_fract_z
_atom_type_partial_charge
C1    C     C_R   0.258997 0.502057 0.501372 0.803754
C2    C     C_R   0.381834 0.482637 0.974143 0.048702
C3    C     C_R   0.608523 0.495257 0.975144 0.048745
C4    C     C_R   0.499705 0.501537 0.407509 0.852984
C5    C     C_R   0.495453 0.486479 0.949926 0.073270
C6    C     C_R   0.272390 0.464677 0.948048 -0.220229
C7    C     C_R   0.273717 0.461532 0.899354 -0.121188
C8    C     C_R   0.385692 0.468949 0.874614 -0.014190
C9    C     C_R   0.496240 0.479385 0.900074 -0.065098
C10   C     C_R   0.607657 0.483344 0.875684 -0.008777
C11   C     C_R   0.605764 0.486700 0.826092 0.524192
C12   C     C_R   0.387622 0.482629 0.282881 -0.087690
C13   C     C_R   0.387894 0.466326 0.825178 0.520584
C14   C     C_R   0.389397 0.468213 0.717318 -0.119417
C15   C     C_R   0.390860 0.490522 0.668859 -0.238609
C16   C     C_R   0.741625 0.498305 0.500714 0.798360
C17   C     C_R   0.612239 0.509850 0.669352 -0.224217
C18   C     C_R   0.617298 0.494613 0.719330 -0.078724
C19   C     C_R   0.501890 0.486104 0.746822 0.254493
C20   C     C_R   0.381017 0.493200 0.023644 0.048497
C21   C     C_R   0.494149 0.501471 0.048863 0.073450
C22   C     C_R   0.607596 0.505919 0.024554 0.049705
C23   C     C_R   0.495572 0.505247 0.253677 0.248086
C24   C     C_R   0.269864 0.500335 0.048857 -0.222559
C25   C     C_R   0.716109 0.525402 0.099141 -0.117318
C26   C     C_R   0.719989 0.488131 0.950081 -0.220431
C27   C     C_R   0.719669 0.486836 0.901344 -0.121438
C28   C     C_R   0.500175 0.498513 0.592489 0.836307
C29   C     C_R   0.717004 0.524741 0.050459 -0.224761
C30   C     C_3   0.069488 0.626445 0.527587 -0.403824
C31   C     C_3   0.076724 0.375119 0.527577 -0.389455
C32   C     C_3   0.927806 0.624385 0.529005 -0.390847
C33   C     C_3   0.935895 0.370446 0.524340 -0.413509
C34   C     C_R   0.493820 0.507571 0.098811 -0.069116
C35   C     C_3   0.069512 0.502623 0.450264 -0.391445
C36   C     C_3   0.121646 0.503653 0.501701 0.192146
C37   C     C_3   0.879326 0.501811 0.501728 0.201664
C38   C     C_3   0.926199 0.509765 0.450120 -0.394451
C39   C     C_3   0.375744 0.085198 0.484492 -0.401551
C40   C     C_3   0.377622 0.925752 0.482592 -0.351542
C41   C     C_3   0.586215 0.075509 0.463694 -0.260957
C42   C     C_3   0.593420 0.916817 0.465747 -0.286878
C43   C     C_3   0.524130 0.084189 0.546659 0.560748
C44   C     C_3   0.521708 0.925702 0.547855 0.319525
C45   C     C_R   0.382958 0.504619 0.123379 -0.008485
C46   C     C_R   0.384663 0.503125 0.173181 0.522587
C47   C     C_R   0.603409 0.515543 0.173731 0.517352
C48   C     C_R   0.604494 0.517508 0.281879 -0.112696
C49   C     C_R   0.606378 0.511275 0.331029 -0.263331
C50   C     C_R   0.387726 0.481493 0.332228 -0.262974
C51   C     C_3   0.745437 0.101434 0.550976 -0.185310
C52   C     C_3   0.705855 0.785608 0.564852 -0.212993
C53   C     C_R   0.270654 0.502456 0.097624 -0.119916
C54   C     C_R   0.604402 0.516119 0.124117 -0.006240
C55   C     C_R   0.496640 0.501076 0.356453 0.018555
C56   C     C_R   0.501668 0.499080 0.643788 0.024932
H1    H     H_    0.301152 0.468899 0.351354 0.128330
H2    H     H_    0.120326 0.283222 0.512988 0.173779
H3    H     H_    0.107049 0.622236 0.564629 0.161510
H4    H     H_    0.104905 0.372423 0.565088 0.162934
H5    H     H_    0.903740 0.617694 0.566696 0.164426
H6    H     H_    0.895160 0.347614 0.559705 0.164708
H7    H     H_    0.288557 0.493328 0.271612 0.201116
H8    H     H_    0.889994 0.721761 0.512660 0.177616
H9    H     H_    0.917103 0.288051 0.500698 0.166156
H10   H     H_    0.101034 0.587476 0.428668 0.160219
H11   H     H_    0.104885 0.410363 0.433330 0.164108
H12   H     H_    0.697163 0.527802 0.270243 0.211663
H13   H     H_    0.888913 0.604595 0.431634 0.164238
H14   H     H_    0.891544 0.427695 0.429336 0.153101
H15   H     H_    0.345387 0.129580 0.449187 0.194357
H16   H     H_    0.358010 0.895979 0.446088 0.189466
H17   H     H_    0.300968 0.117837 0.508709 0.144695
H18   H     H_    0.301728 0.886701 0.504274 0.157917
H19   H     H_    0.553522 0.110912 0.427540 0.169775
H20   H     H_    0.578430 0.878731 0.430141 0.176314
H21   H     H_    0.444992 0.121402 0.569065 0.042757
H22   H     H_    0.443048 0.901553 0.570895 0.085086
H23   H     H_    0.803470 0.537752 0.117091 0.194915
H24   H     H_    0.676857 0.115380 0.462045 0.132443
H25   H     H_    0.691309 0.878964 0.474633 0.138079
H26   H     H_    0.182368 0.504893 0.115019 0.194169
H27   H     H_    0.304696 0.476290 0.648929 0.125780
H28   H     H_    0.316218 0.422412 0.727329 0.212912
H29   H     H_    0.186682 0.449553 0.881136 0.193640
H30   H     H_    0.184679 0.447315 0.964188 0.139706
H31   H     H_    0.179945 0.508225 0.031897 0.139257
H32   H     H_    0.693577 0.519069 0.349684 0.129567
H33   H     H_    0.771693 0.161445 0.520082 0.136155
H34   H     H_    0.809903 0.479327 0.967092 0.139534
H35   H     H_    0.766462 0.996386 0.548146 0.193943
H36   H     H_    0.812492 0.125722 0.580972 0.164996
H37   H     H_    0.675953 0.760486 0.536117 0.212091
H38   H     H_    0.642020 0.722674 0.571284 0.225963
H39   H     H_    0.741339 0.706031 0.598329 0.097350
H40   H     H_    0.697916 0.519648 0.650037 0.120218
H41   H     H_    0.807874 0.485106 0.883875 0.192599
H42   H     H_    0.713257 0.478397 0.731306 0.208389
H43   H     H_    0.804368 0.545047 0.034238 0.139834
H44   H     H_    0.095732 0.721649 0.510074 0.176279
N1    N     N_R   0.494070 0.509537 0.200081 -0.335740
N2    N     N_R   0.498024 0.475241 0.799609 -0.335572
N3    N     N_3   0.499750 0.138610 0.498940 -0.107747
N4    N     N_3   0.499750 0.861390 0.498940 -0.115407
O1    O     O_R   0.314910 0.616040 0.499990 -0.627601
O2    O     O_2   0.277788 0.451607 0.803368 -0.588261
O3    O     O_2   0.716307 0.516188 0.193575 -0.600006
O4    O     O_2   0.713451 0.509753 0.805913 -0.599053
O5    O     O_3   0.627084 0.140866 0.568388 -0.553473
O6    O     O_3   0.625498 0.883393 0.579002 -0.634708
O7    O     O_R   0.314910 0.383960 0.499990 -0.641190
O8    O     O_R   0.500140 0.616020 0.428740 -0.617106
O9    O     O_R   0.500140 0.383980 0.428740 -0.621069
O10   O     O_R   0.685320 0.616040 0.499970 -0.696576
O11   O     O_R   0.685320 0.383960 0.499970 -0.605688
O12   O     O_R   0.500090 0.616050 0.571230 -0.657900
O13   O     O_R   0.500090 0.383950 0.571230 -0.572380
O14   O     O_2   0.274224 0.489574 0.192297 -0.598775
Zn1   Zn    Zn3+2 0.500150 0.654960 0.499980 0.902393
Zn2   Zn    Zn3+2 0.500150 0.345040 0.499980 0.955294

loop_
_geom_bond_atom_site_label_1
_geom_bond_atom_site_label_2
_ccdc_geom_bond_type
C10   C27   A    
C38   H14   S    
C8    C13   A    
C47   N1    A    
C22   C29   A    
C41   C42   S    
C35   C36   S    
C14   H28   S    
C41   H24   S    
C28   C56   S    
C33   H9    S    
C7    C8    A    
C7    H29   S    
C45   C46   A    
C12   C23   A    
C26   C27   A    
C31   H2    S    
C32   H5    S    
C28   O13   A    
C31   C36   S    
C19   N2    S    
C41   H19   S    
C30   H44   S    
C46   O14   S    
C52   H39   S    
C18   C19   A    
C28   O12   A    
C51   H35   S    
C20   C24   A    
C33   H6    S    
C31   C33   S    
C52   H38   S    
C35   H11   S    
C9    C10   A    
O10   Zn1   S    
C16   C37   S    
N4    Zn1   S    
C4    O8    A    
C38   H13   S    
C45   C53   A    
C51   O5    S    
C21   C22   A    
C49   H32   S    
C2    C6    A    
C42   H25   S    
C25   C29   A    
C46   N1    A    
C29   H43   S    
C2    C20   A    
C4    O9    A    
C35   C38   S    
C25   C54   A    
C32   H8    S    
O13   Zn2   S    
C39   C40   S    
C17   H40   S    
C12   H7    S    
C8    C9    A    
C15   H27   S    
C21   C34   A    
C35   H10   S    
C24   C53   A    
C49   C55   A    
C33   C37   S    
C41   N3    S    
C16   O10   A    
O7    Zn2   S    
C31   H4    S    
C43   C44   S    
C5    C9    A    
C37   C38   S    
C51   H36   S    
C40   N4    S    
O9    Zn2   S    
C44   N4    S    
C52   O6    S    
C30   H3    S    
C17   C18   A    
C52   H37   S    
C34   C45   A    
C32   C37   S    
C48   H12   S    
C17   C56   A    
C47   C54   A    
C48   C49   A    
C34   C54   A    
C47   O3    S    
C4    C55   S    
C2    C5    A    
C43   H21   S    
C16   O11   A    
C27   H41   S    
C23   C48   A    
C40   H16   S    
C25   H23   S    
C50   H1    S    
C14   C19   A    
C3    C26   A    
O1    Zn1   S    
C13   O2    S    
C3    C5    A    
C42   N4    S    
O8    Zn1   S    
C12   C50   A    
C39   N3    S    
C6    C7    A    
C26   H34   S    
C43   O5    S    
C42   H20   S    
C50   C55   A    
C6    H30   S    
O12   Zn1   S    
C30   C36   S    
C15   C56   A    
C44   H22   S    
C1    O7    A    
C30   C32   S    
C23   N1    S    
N3    Zn2   S    
C40   H18   S    
C11   N2    A    
C39   H17   S    
C24   H31   S    
C43   N3    S    
C10   C11   A    
C20   C21   A    
O11   Zn2   S    
C11   O4    S    
C39   H15   S    
C14   C15   A    
C53   H26   S    
C3    C22   A    
C18   H42   S    
C13   N2    A    
C51   H33   S    
C1    C36   S    
C1    O1    A    
C44   O6    S    
