data_mof_unit_40280.cif
_audit_creation_date              2012-12-10T18:23:01-0500
_audit_creation_method            fapswitch 2.2
_symmetry_space_group_name_H-M    P1
_symmetry_Int_Tables_number       1
_space_group_crystal_system       triclinic
_cell_length_a                    14.953093
_cell_length_b                    14.111806
_cell_length_c                    10.714117
_cell_angle_alpha                 87.661994
_cell_angle_beta                  85.897159
_cell_angle_gamma                 92.940835
_cell_volume                      2249.83234574

loop_
_atom_site_label
_atom_site_type_symbol
_atom_type_description
_atom_site_fract_x
_atom_site_fract_y
_atom_site_fract_z
_atom_type_partial_charge
Br1   Br    Br    0.308218 0.551549 0.894690 -0.433342
Br2   Br    Br    0.260124 0.560711 0.234796 -0.379229
Br3   Br    Br    0.891492 0.477848 0.906671 -0.219009
Br4   Br    Br    0.126790 0.728456 0.208559 -0.459807
Br5   Br    Br    0.099540 0.411503 0.865960 -0.349854
Br6   Br    Br    0.914347 0.745707 0.243473 -0.477273
Br7   Br    Br    0.687772 0.412276 0.073530 -0.337171
Br8   Br    Br    0.466272 0.716247 0.057810 -0.603285
Br9   Br    Br    0.539186 0.281212 0.911618 -0.516654
Br10  Br    Br    0.664165 0.636788 0.863810 -0.434465
Br11  Br    Br    0.343288 0.345905 0.128797 -0.381070
Br12  Br    Br    0.786324 0.553772 0.249754 -0.424329
Br13  Br    Br    0.150882 0.316171 0.554117 -0.518181
Br14  Br    Br    0.738353 0.395546 0.736425 -0.378156
C1    C     C_R   0.325645 0.497968 0.497376 0.928718
C2    C     C_R   0.967251 0.645500 0.337355 0.291156
C3    C     C_R   0.573184 0.807006 0.447437 0.167316
C4    C     C_R   0.436793 0.194174 0.578135 0.155974
C5    C     C_R   0.426993 0.798314 0.549054 0.230715
C6    C     C_R   0.575638 0.204585 0.453227 0.170314
C7    C     C_R   0.438465 0.893855 0.589174 -0.032938
C8    C     C_R   0.589281 0.105890 0.487893 -0.028347
C9    C     C_R   0.588311 0.903252 0.486528 -0.041838
C10   C     C_R   0.447176 0.094371 0.602533 -0.025729
C11   C     C_R   0.516008 0.948191 0.542980 -0.034321
C12   C     C_R   0.674150 0.502673 0.502115 0.976123
C13   C     C_R   0.517281 0.049609 0.543071 -0.016856
C14   C     C_R   0.375827 0.940019 0.671745 0.095687
C15   C     C_R   0.672601 0.060871 0.477252 0.078602
C16   C     C_R   0.672006 0.958586 0.468001 0.068000
C17   C     C_R   0.394643 0.037453 0.694854 0.043937
C18   C     C_R   0.500245 0.501111 0.256513 1.032367
C19   C     C_R   0.500542 0.497911 0.742179 1.038251
C20   C     C_3   0.486990 0.585509 0.029791 0.216226
C21   C     C_3   0.513193 0.407621 0.963897 0.192227
C22   C     C_3   0.566770 0.554695 0.944299 0.235530
C23   C     C_R   0.955579 0.546555 0.528916 -0.071813
C24   C     C_3   0.434252 0.436949 0.051090 0.226452
C25   C     C_3   0.421323 0.522225 0.960579 0.216867
C26   C     C_3   0.578791 0.469227 0.034296 0.232872
C27   C     C_3   0.500978 0.493210 0.876020 -0.330778
C28   C     C_3   0.499764 0.500474 0.120506 -0.343878
C29   C     C_R   0.824396 0.562061 0.414564 0.200877
C30   C     C_R   0.170407 0.448661 0.580469 0.210273
C31   C     C_R   0.771558 0.512470 0.511641 -0.210471
C32   C     C_R   0.228037 0.496141 0.487865 -0.159684
C33   C     C_R   0.809826 0.482966 0.621912 0.249645
C34   C     C_R   0.049362 0.541278 0.520023 -0.054955
C35   C     C_R   0.192340 0.552988 0.394993 0.231448
C36   C     C_R   0.902885 0.502135 0.632665 -0.063890
C37   C     C_R   0.101804 0.578436 0.411353 -0.053759
C38   C     C_3   0.592268 0.800865 0.307215 -0.457642
C39   C     C_3   0.666238 0.737171 0.263006 -0.282003
C40   C     C_3   0.709363 0.773683 0.134804 -0.684157
C41   C     C_3   0.343416 0.227269 0.609421 -0.360868
C42   C     C_3   0.332014 0.283837 0.729575 -0.288031
C43   C     C_3   0.256778 0.241364 0.823298 -0.727176
C44   C     C_3   0.334843 0.774266 0.505177 -0.437465
C45   C     C_R   0.914694 0.586986 0.427427 -0.033910
C46   C     C_3   0.337044 0.763827 0.363578 -0.264472
C47   C     C_3   0.353235 0.859247 0.289708 -0.822756
C48   C     C_3   0.630418 0.247320 0.338179 -0.355184
C49   C     C_3   0.610115 0.191773 0.221232 -0.345015
C50   C     C_3   0.695040 0.157897 0.152716 -0.745949
C51   C     C_3   0.298079 0.888520 0.751941 -0.471973
C52   C     C_3   0.330011 0.819694 0.850512 -0.369605
C53   C     C_3   0.251065 0.781019 0.938725 -0.625768
C54   C     C_3   0.757053 0.118412 0.507969 -0.421452
C55   C     C_3   0.785767 0.091712 0.639352 -0.374976
C56   C     C_R   0.088447 0.486687 0.611975 -0.021439
C57   C     C_3   0.870412 0.149671 0.667812 -0.732255
C58   C     C_3   0.759545 0.907741 0.455603 -0.424378
C59   C     C_3   0.765941 0.833863 0.564876 -0.320676
C60   C     C_3   0.862888 0.814259 0.588493 -0.806255
C61   C     C_3   0.408186 0.060436 0.830012 -0.398796
C62   C     C_3   0.496541 0.022348 0.872377 -0.298912
C63   C     C_3   0.498156 0.019756 0.014719 -0.839658
C64   C     C_R   0.947357 0.474921 0.739506 0.270387
C65   C     C_R   0.060816 0.640232 0.327372 0.289657
C66   C     C_R   0.039526 0.460873 0.726198 0.249734
H1    H     H_    0.748046 0.842101 0.143373 0.244598
H2    H     H_    0.253808 0.283537 0.908310 0.314899
H3    H     H_    0.394726 0.287919 0.776684 0.259789
H4    H     H_    0.316071 0.357904 0.706601 0.256823
H5    H     H_    0.323261 0.265486 0.525703 0.258760
H6    H     H_    0.293715 0.165531 0.616484 0.205996
H7    H     H_    0.300933 0.908798 0.318267 0.267203
H8    H     H_    0.349325 0.848065 0.188388 0.285741
H9    H     H_    0.420123 0.892552 0.305000 0.249678
H10   H     H_    0.386835 0.713332 0.331064 0.288727
H11   H     H_    0.270364 0.734673 0.344361 0.264363
H12   H     H_    0.657196 0.785056 0.067956 0.285100
H13   H     H_    0.300477 0.713637 0.560834 0.210236
H14   H     H_    0.289713 0.833002 0.517719 0.193998
H15   H     H_    0.745001 0.218056 0.129783 0.310255
H16   H     H_    0.725434 0.103597 0.211861 0.235367
H17   H     H_    0.677989 0.125762 0.064034 0.260970
H18   H     H_    0.563334 0.128740 0.244667 0.211537
H19   H     H_    0.575415 0.238245 0.157063 0.283059
H20   H     H_    0.614998 0.321290 0.320702 0.257580
H21   H     H_    0.703158 0.252667 0.349243 0.201817
H22   H     H_    0.217940 0.840291 0.985177 0.257636
H23   H     H_    0.755277 0.721551 0.095307 0.329733
H24   H     H_    0.201372 0.740457 0.886551 0.282613
H25   H     H_    0.275422 0.733342 0.012114 0.328400
H26   H     H_    0.362827 0.760000 0.804662 0.274108
H27   H     H_    0.378909 0.856883 0.906772 0.262022
H28   H     H_    0.256801 0.941556 0.799518 0.209371
H29   H     H_    0.248195 0.850974 0.698603 0.199852
H30   H     H_    0.927167 0.134946 0.599960 0.265972
H31   H     H_    0.859019 0.226836 0.662524 0.288792
H32   H     H_    0.888700 0.129993 0.763741 0.257023
H33   H     H_    0.730653 0.105642 0.710495 0.246014
H34   H     H_    0.717572 0.731270 0.331666 0.245997
H35   H     H_    0.799337 0.015751 0.649348 0.235939
H36   H     H_    0.812208 0.112585 0.434096 0.205372
H37   H     H_    0.744572 0.194598 0.513644 0.227373
H38   H     H_    0.899031 0.790893 0.502447 0.282923
H39   H     H_    0.898429 0.879177 0.619585 0.255828
H40   H     H_    0.863724 0.757204 0.662885 0.274824
H41   H     H_    0.733031 0.859062 0.652887 0.234941
H42   H     H_    0.730451 0.765856 0.544569 0.244881
H43   H     H_    0.765655 0.874174 0.364779 0.226152
H44   H     H_    0.819016 0.957877 0.450740 0.226173
H45   H     H_    0.636925 0.665006 0.252241 0.279066
H46   H     H_    0.488927 0.091557 0.050348 0.292172
H47   H     H_    0.443700 0.970236 0.058332 0.264224
H48   H     H_    0.563369 0.994550 0.042221 0.249136
H49   H     H_    0.506195 0.949528 0.840180 0.231280
H50   H     H_    0.554226 0.068537 0.830111 0.244469
H51   H     H_    0.412611 0.137673 0.840272 0.247045
H52   H     H_    0.350890 0.031913 0.894268 0.206679
H53   H     H_    0.529877 0.774812 0.269008 0.252475
H54   H     H_    0.605398 0.873386 0.262150 0.199424
H55   H     H_    0.190848 0.242056 0.783083 0.304117
H56   H     H_    0.266852 0.166893 0.851630 0.227003
N1    N     N_R   0.500000 0.750030 0.500000 -0.125695
N2    N     N_R   0.500000 0.249970 0.500000 -0.120497
O1    O     O_R   0.367850 0.580280 0.500030 -0.639910
O2    O     O_R   0.632150 0.419720 0.499970 -0.608682
O3    O     O_R   0.632150 0.580280 0.499970 -0.629996
O4    O     O_R   0.367850 0.419720 0.500030 -0.616128
O5    O     O_R   0.499970 0.580260 0.313950 -0.630963
O6    O     O_R   0.500030 0.419740 0.686050 -0.601842
O7    O     O_R   0.500030 0.580260 0.686050 -0.588746
O8    O     O_R   0.499970 0.419740 0.313950 -0.618352
Zn1   Zn    Zn3+2 0.500000 0.607200 0.500000 0.971430
Zn2   Zn    Zn3+2 0.500000 0.392800 0.500000 0.996358

loop_
_geom_bond_atom_site_label_1
_geom_bond_atom_site_label_2
_ccdc_geom_bond_type
C41   C42   S    
C8    C15   A    
C38   H54   S    
C59   C60   S    
C20   C28   S    
C10   C13   A    
C52   H27   S    
O6    Zn2   S    
O2    Zn2   S    
C25   C27   S    
C39   C40   S    
C38   C39   S    
O5    Zn1   S    
C60   H39   S    
C32   C35   A    
O1    Zn1   S    
C3    C9    A    
C40   H1    S    
C4    C10   A    
C5    C7    A    
C44   H13   S    
C24   C28   S    
Br12  C29   S    
C12   O2    A    
C24   C25   S    
C64   C66   A    
C18   O8    A    
C44   C46   S    
C1    O4    A    
C57   H30   S    
C42   C43   S    
C55   C57   S    
C6    N2    A    
C4    N2    A    
C18   O5    A    
C49   H19   S    
C47   H7    S    
C12   C31   S    
C62   H50   S    
C34   C37   A    
C47   H9    S    
C54   C55   S    
C35   C37   A    
C57   H31   S    
Br7   C26   S    
C43   H56   S    
C30   C56   A    
C12   O3    A    
C51   H28   S    
C1    O1    A    
C63   H47   S    
C29   C45   A    
C48   H21   S    
C26   C28   S    
C52   C53   S    
C19   O6    A    
C58   H44   S    
C38   H53   S    
C22   C27   S    
C52   H26   S    
C36   C64   A    
C3    C38   S    
O7    Zn1   S    
C30   C32   A    
C53   H24   S    
C42   H4    S    
C33   C36   A    
O8    Zn2   S    
C31   C33   A    
C5    C44   S    
C60   H38   S    
C56   C66   A    
C20   C25   S    
C9    C16   A    
O4    Zn2   S    
C40   H23   S    
C22   C26   S    
C21   C24   S    
C62   C63   S    
C50   H16   S    
Br4   C65   S    
N2    Zn2   S    
Br1   C25   S    
C53   H25   S    
C39   H34   S    
C46   C47   S    
C23   C34   A    
C2    C45   A    
C41   H5    S    
Br11  C24   S    
C61   C62   S    
C40   H12   S    
C15   C16   A    
Br2   C35   S    
C54   H37   S    
C15   C54   S    
C62   H49   S    
C17   C61   S    
C5    N1    A    
C55   H33   S    
C57   H32   S    
C48   C49   S    
Br8   C20   S    
Br5   C66   S    
C29   C31   A    
C51   H29   S    
C23   C45   A    
C63   H48   S    
C39   H45   S    
C4    C41   S    
C54   H36   S    
C48   H20   S    
C50   H17   S    
C7    C14   A    
C6    C8    A    
C51   C52   S    
C59   H41   S    
C8    C13   A    
C58   H43   S    
C11   C13   A    
C61   H52   S    
C42   H3    S    
C46   H11   S    
C7    C11   A    
C55   H35   S    
N1    Zn1   S    
C14   C17   A    
C50   H15   S    
C34   C56   A    
C58   C59   S    
C16   C58   S    
Br14  C33   S    
C46   H10   S    
C49   H18   S    
C60   H40   S    
C2    C65   A    
C19   C27   S    
C41   H6    S    
C3    N1    A    
C14   C51   S    
C44   H14   S    
C10   C17   A    
C23   C36   A    
C21   C26   S    
C20   C22   S    
C9    C11   A    
C6    C48   S    
C21   C27   S    
C37   C65   A    
O3    Zn1   S    
Br6   C2    S    
C49   C50   S    
C61   H51   S    
C59   H42   S    
Br9   C21   S    
C18   C28   S    
C43   H2    S    
C43   H55   S    
C47   H8    S    
Br10  C22   S    
C1    C32   S    
Br3   C64   S    
Br13  C30   S    
C63   H46   S    
C19   O7    A    
C53   H22   S    
