data_mof_unit_52902.cif
_audit_creation_date              2012-12-10T17:06:15-0500
_audit_creation_method            fapswitch 2.2
_symmetry_space_group_name_H-M    P1
_symmetry_Int_Tables_number       1
_space_group_crystal_system       triclinic
_cell_length_a                    10.647885
_cell_length_b                    10.850842
_cell_length_c                    9.804979
_cell_angle_alpha                 109.318014
_cell_angle_beta                  99.482079
_cell_angle_gamma                 90.275203
_cell_volume                      1052.32107706

loop_
_atom_site_label
_atom_site_type_symbol
_atom_type_description
_atom_site_fract_x
_atom_site_fract_y
_atom_site_fract_z
_atom_type_partial_charge
C1    C     C_R   0.483968 0.253822 0.443524 0.842039
C2    C     C_R   0.500092 0.745890 0.556243 0.842842
C3    C     C_R   0.259326 0.499617 0.499493 0.782942
C4    C     C_R   0.740592 0.499622 0.500457 0.811073
C5    C     C_3   0.052991 0.414373 0.564228 -0.253832
C6    C     C_3   0.946896 0.583469 0.435803 -0.250067
C7    C     C_3   0.946508 0.378009 0.427004 0.167510
C8    C     C_3   0.053056 0.619863 0.573552 0.166839
C9    C     C_3   0.877390 0.498588 0.502610 -0.153665
C10   C     C_3   0.122468 0.499436 0.497578 -0.146728
C11   C     C_3   0.982639 0.535477 0.639919 0.196397
C12   C     C_3   0.017008 0.461953 0.360202 0.190866
C13   C     C_2   0.460898 0.114321 0.418911 -0.430653
C14   C     C_2   0.482717 0.884711 0.579870 -0.432266
C15   C     C_2   0.408104 0.069871 0.511974 0.196629
C16   C     C_2   0.403773 0.927594 0.483830 0.181152
C17   C     C_2   0.510065 0.511604 0.081504 -0.078439
C18   C     C_2   0.485278 0.494515 0.920397 -0.081045
Cu1   Cu    Cu3+1 0.522260 0.521810 0.644920 0.915682
Cu2   Cu    Cu3+1 0.477740 0.478190 0.355080 0.912883
H1    H     H_    0.098892 0.345470 0.616316 0.145486
H2    H     H_    0.900790 0.652303 0.383707 0.143240
H3    H     H_    0.535982 0.954990 0.679865 0.146915
H4    H     H_    0.486643 0.045076 0.320357 0.142883
H5    H     H_    0.405476 0.429653 0.850078 0.155927
H6    H     H_    0.585382 0.582046 0.153672 0.158957
H7    H     H_    0.631354 0.615226 0.932042 0.186419
H8    H     H_    0.373064 0.379418 0.066443 0.189982
N1    N     N_2   0.444270 0.445410 0.137360 -0.288452
N2    N     N_2   0.555730 0.554590 0.862640 -0.286018
O1    O     O_R   0.511880 0.332340 0.577400 -0.577591
O2    O     O_R   0.488120 0.667660 0.422600 -0.582492
O3    O     O_R   0.474280 0.295500 0.332650 -0.564700
O4    O     O_R   0.525720 0.704500 0.667350 -0.564038
O5    O     O_R   0.335640 0.518390 0.622350 -0.580429
O6    O     O_R   0.664360 0.481610 0.377650 -0.571580
O7    O     O_R   0.298050 0.481550 0.377590 -0.595864
O8    O     O_R   0.701950 0.518450 0.622410 -0.586986
C19   C     C_3   0.879803 0.240869 0.356172 -0.390024
C20   C     C_3   0.971745 0.138301 0.294402 -0.855945
H9    H     H_    0.001987 0.151765 0.197129 0.256041
H10   H     H_    0.057119 0.144792 0.379057 0.253460
H11   H     H_    0.923494 0.039136 0.259871 0.242472
H12   H     H_    0.839190 0.215007 0.441277 0.190448
H13   H     H_    0.799525 0.240258 0.268074 0.207794
C21   C     C_3   0.116950 0.758014 0.648179 -0.395201
C22   C     C_3   0.022743 0.856767 0.713258 -0.850980
H14   H     H_    0.940805 0.857100 0.627155 0.247073
H15   H     H_    0.987425 0.834224 0.802873 0.254300
H16   H     H_    0.070735 0.956215 0.761008 0.247720
H17   H     H_    0.197796 0.757933 0.735367 0.210437
H18   H     H_    0.156140 0.788374 0.565282 0.196860
C23   C     C_3   0.959294 0.567322 0.797523 -0.364043
C24   C     C_3   0.083523 0.591492 0.907711 -0.866321
H19   H     H_    0.140548 0.503860 0.882437 0.250383
H20   H     H_    0.140826 0.676909 0.907723 0.262305
H21   H     H_    0.060801 0.612642 0.019138 0.240517
H22   H     H_    0.901541 0.653873 0.827160 0.203844
H23   H     H_    0.903538 0.483154 0.803428 0.206554
C25   C     C_3   0.040783 0.425343 0.202285 -0.366959
C26   C     C_3   0.916960 0.401959 0.091479 -0.855405
H24   H     H_    0.855632 0.321611 0.096802 0.260770
H25   H     H_    0.863985 0.492389 0.111991 0.247755
H26   H     H_    0.939668 0.373170 0.979169 0.241755
H27   H     H_    0.099266 0.506490 0.193796 0.206398
H28   H     H_    0.095749 0.336450 0.175577 0.205989
C27   C     C_3   0.319656 0.835577 0.345196 -0.339755
C28   C     C_3   0.204961 0.898661 0.285646 -0.892923
H29   H     H_    0.143021 0.934015 0.369337 0.254711
H30   H     H_    0.235510 0.980586 0.252068 0.264820
H31   H     H_    0.147770 0.824906 0.187658 0.244403
H32   H     H_    0.378422 0.797620 0.258191 0.211012
H33   H     H_    0.279738 0.751513 0.368717 0.207646
C29   C     C_3   0.361975 0.161133 0.647116 -0.353912
C30   C     C_3   0.266167 0.096561 0.706567 -0.906594
H34   H     H_    0.181530 0.053868 0.620210 0.261924
H35   H     H_    0.309851 0.019626 0.746866 0.267681
H36   H     H_    0.233959 0.171544 0.800140 0.231785
H37   H     H_    0.445755 0.202640 0.735539 0.208456
H38   H     H_    0.312915 0.241919 0.618960 0.200931

loop_
_geom_bond_atom_site_label_1
_geom_bond_atom_site_label_2
_ccdc_geom_bond_type
C4    O6    A    
C17   N1    D    
Cu1   Cu2   S    
Cu1   O1    S    
C6    C9    S    
C23   H23   S    
C1    O3    A    
C22   H15   S    
C23   C24   S    
C17   H6    S    
H8    N1    S    
C5    C11   S    
C28   H31   S    
C6    C12   S    
C15   C16   S    
C6    H2    S    
C21   H18   S    
C1    O1    A    
C2    O2    A    
C27   H32   S    
C26   H25   S    
C21   C22   S    
C20   H11   S    
C28   H29   S    
C18   N2    D    
C11   C23   S    
C19   H13   S    
C2    O4    A    
C20   H10   S    
C25   H28   S    
C29   H38   S    
H7    N2    S    
C18   H5    S    
C22   H16   S    
Cu2   N1    S    
C7    C12   S    
C24   H20   S    
C29   C30   S    
C27   C28   S    
C19   C20   S    
C5    C7    S    
C6    C8    S    
C21   H17   S    
C13   H4    S    
C25   C26   S    
Cu2   O6    S    
C14   H3    S    
C26   H26   S    
C30   H34   S    
Cu1   O8    S    
C9    C11   S    
C22   H14   S    
C3    O5    A    
C17   C18   S    
C16   C27   S    
C30   H35   S    
C10   C12   S    
C27   H33   S    
Cu2   O3    S    
C28   H30   S    
C20   H9    S    
C4    O8    A    
C25   H27   S    
C29   H37   S    
C13   C15   D    
C14   C16   D    
C1    C13   S    
Cu2   O2    S    
C7    C9    S    
C24   H19   S    
Cu1   O4    S    
C23   H22   S    
C19   H12   S    
C5    C10   S    
C3    C10   S    
Cu1   O5    S    
Cu2   O7    S    
C8    C11   S    
C26   H24   S    
C2    C14   S    
C30   H36   S    
C8    C21   S    
C12   C25   S    
C15   C29   S    
C5    H1    S    
C3    O7    A    
C8    C10   S    
C7    C19   S    
C4    C9    S    
Cu1   N2    S    
C24   H21   S    
