data_mof_unit_54429.cif
_audit_creation_date              2012-10-26T19:56:20-0400
_audit_creation_method            fapswitch 2.2
_symmetry_space_group_name_H-M    P1
_symmetry_Int_Tables_number       1
_space_group_crystal_system       triclinic
_cell_length_a                    11.187324
_cell_length_b                    10.585389
_cell_length_c                    9.569022
_cell_angle_alpha                 89.397329
_cell_angle_beta                  90.730191
_cell_angle_gamma                 90.044015
_cell_volume                      1133.02947875

loop_
_atom_site_label
_atom_site_type_symbol
_atom_type_description
_atom_site_fract_x
_atom_site_fract_y
_atom_site_fract_z
_atom_type_partial_charge
C1    C     C_R   0.500041 0.259957 0.500317 0.546722
C2    C     C_3   0.401717 0.041158 0.564822 -0.128933
C3    C     C_3   0.499981 0.877264 0.499842 0.048971
C4    C     C_3   0.500019 0.122736 0.500158 0.048971
C5    C     C_3   0.499993 0.957390 0.632656 -0.115090
C6    C     C_3   0.500006 0.042610 0.367344 -0.115090
C7    C     C_3   0.500832 0.612525 0.045897 0.086368
C8    C     C_3   0.499168 0.387475 0.954103 0.086368
C9    C     C_3   0.407523 0.557675 0.946129 0.010334
C10   C     C_3   0.592477 0.442325 0.053871 0.010334
C11   C     C_3   0.593378 0.556225 0.948524 0.008068
C12   C     C_R   0.499959 0.740043 0.499683 0.546722
C13   C     C_3   0.406622 0.443775 0.051476 0.008068
C14   C     C_R   0.262456 0.497297 0.498490 0.532061
C15   C     C_R   0.737544 0.502703 0.501510 0.532061
C16   C     C_R   0.142156 0.663881 0.028968 -0.149739
C17   C     C_R   0.857844 0.336119 0.971032 -0.149739
C18   C     C_R   0.127522 0.659708 0.173151 -0.100809
C19   C     C_R   0.872478 0.340292 0.826849 -0.100809
C20   C     C_R   0.107738 0.543566 0.239178 0.057573
C21   C     C_R   0.892262 0.456434 0.760822 0.057573
C22   C     C_R   0.115976 0.430903 0.164626 -0.059998
C23   C     C_R   0.871951 0.505238 0.505218 -0.014482
C24   C     C_R   0.884024 0.569097 0.835374 -0.059998
C25   C     C_R   0.135245 0.433832 0.020726 0.023384
C26   C     C_R   0.864754 0.566168 0.979274 0.023384
C27   C     C_R   0.142166 0.551863 0.952667 -0.084502
C28   C     C_R   0.857834 0.448136 0.047333 -0.084502
C29   C     C_R   0.933968 0.547400 0.388455 -0.164837
C30   C     C_R   0.066032 0.452599 0.611545 -0.164837
C31   C     C_3   0.497436 0.749743 0.091737 -0.374356
C32   C     C_3   0.502564 0.250257 0.908263 -0.374356
C33   C     C_3   0.161632 0.312542 0.945740 -0.432860
C34   C     C_R   0.128049 0.494762 0.494782 -0.014482
C35   C     C_3   0.838368 0.687458 0.054260 -0.432860
C36   C     C_R   0.940992 0.462831 0.620704 -0.027635
C37   C     C_R   0.059008 0.537169 0.379296 -0.027635
C38   C     C_3   0.598295 0.041262 0.567760 -0.127241
C39   C     C_3   0.401705 0.958738 0.432240 -0.127241
C40   C     C_3   0.598283 0.958842 0.435178 -0.128933
Cu1   Cu    Cu3+1 0.500030 0.499990 0.643150 0.921230
Cu2   Cu    Cu3+1 0.499970 0.500010 0.356850 0.921230
H1    H     H_    0.156699 0.559227 0.842162 0.121109
H2    H     H_    0.877635 0.253152 0.768904 0.090825
H3    H     H_    0.104186 0.341088 0.218244 0.097256
H4    H     H_    0.895814 0.658912 0.781756 0.097256
H5    H     H_    0.883903 0.587447 0.302902 0.123537
H6    H     H_    0.116097 0.412552 0.697098 0.123537
H7    H     H_    0.678404 0.921808 0.381961 0.096745
H8    H     H_    0.321596 0.078192 0.618039 0.096745
H9    H     H_    0.678423 0.078394 0.623374 0.096932
H10   H     H_    0.321577 0.921606 0.376626 0.096932
H11   H     H_    0.499996 0.920084 0.741537 0.110362
H12   H     H_    0.843301 0.440773 0.157838 0.121109
H13   H     H_    0.500004 0.079916 0.258463 0.110362
H14   H     H_    0.497606 0.812261 0.997906 0.079106
H15   H     H_    0.414283 0.767799 0.150271 0.153256
H16   H     H_    0.577123 0.772611 0.156529 0.143650
H17   H     H_    0.502393 0.187739 0.002093 0.079106
H18   H     H_    0.422877 0.227389 0.843471 0.143650
H19   H     H_    0.585717 0.232201 0.849729 0.153256
H20   H     H_    0.238019 0.326473 0.874676 0.130987
H21   H     H_    0.185730 0.235646 0.020797 0.107647
H22   H     H_    0.084853 0.279467 0.883577 0.138266
H23   H     H_    0.345475 0.624342 0.893773 0.110883
H24   H     H_    0.761981 0.673527 0.125324 0.130987
H25   H     H_    0.915147 0.720533 0.116423 0.138266
H26   H     H_    0.814270 0.764354 0.979202 0.107647
H27   H     H_    0.654525 0.375658 0.106227 0.110882
H28   H     H_    0.657898 0.618188 0.895576 0.127054
H29   H     H_    0.342102 0.381812 0.104424 0.127054
H30   H     H_    0.152411 0.753901 0.975776 0.094994
H31   H     H_    0.847589 0.246099 0.024224 0.094994
H32   H     H_    0.122365 0.746848 0.231096 0.090825
N1    N     N_3   0.500090 0.499970 0.858290 -0.240917
N2    N     N_3   0.499910 0.500030 0.141710 -0.240917
O1    O     O_R   0.500060 0.316850 0.620870 -0.510731
O2    O     O_R   0.499940 0.683150 0.379130 -0.510731
O3    O     O_R   0.500000 0.316860 0.379090 -0.512635
O4    O     O_R   0.500000 0.683140 0.620910 -0.512635
O5    O     O_R   0.319670 0.500010 0.620890 -0.518362
O6    O     O_R   0.680330 0.499990 0.379110 -0.518362
O7    O     O_R   0.319620 0.500010 0.379110 -0.494190
O8    O     O_R   0.680380 0.499990 0.620890 -0.494190

loop_
_geom_bond_atom_site_label_1
_geom_bond_atom_site_label_2
_ccdc_geom_bond_type
C8    C13   S    
C34   C37   A    
C1    O1    A    
Cu1   Cu2   S    
C16   H30   S    
C6    H13   S    
Cu1   O4    S    
C11   H28   S    
C21   C36   S    
C7    C11   S    
Cu2   O6    S    
C29   H5    S    
C23   C29   A    
C31   H16   S    
C5    H11   S    
C19   C21   A    
C24   C26   A    
C32   H19   S    
Cu1   O1    S    
C40   H7    S    
C9    C13   S    
C3    C12   S    
C2    H8    S    
C10   N2    S    
C2    C39   S    
C33   H20   S    
C22   C25   A    
C12   O2    A    
C31   H14   S    
C16   C27   A    
C15   C23   S    
C39   H10   S    
C3    C39   S    
Cu2   O3    S    
C18   H32   S    
C5    C38   S    
C17   H31   S    
C14   O7    A    
C15   O6    A    
C7    C31   S    
C30   C34   A    
C8    C32   S    
C4    C6    S    
C28   H12   S    
C38   H9    S    
C13   H29   S    
C35   H24   S    
Cu1   O8    S    
C8    N1    S    
C2    C4    S    
Cu1   N1    S    
C13   N2    S    
C35   H25   S    
C33   H21   S    
Cu1   O5    S    
C15   O8    A    
C16   C18   A    
C20   C22   A    
C3    C40   S    
Cu2   O2    S    
C1    O3    A    
C6    C40   S    
C2    C5    S    
C32   H18   S    
C19   H2    S    
C30   H6    S    
C7    C9    S    
C17   C28   A    
C26   C28   A    
Cu2   O7    S    
C4    C38   S    
C3    C5    S    
C14   C34   S    
C7    N2    S    
C25   C27   A    
Cu2   N2    S    
C14   O5    A    
C30   C36   A    
C1    C4    S    
C24   H4    S    
C31   H15   S    
C11   N1    S    
C38   C40   S    
C20   C37   S    
C35   H26   S    
C33   H22   S    
C12   O4    A    
C17   C19   A    
C18   C20   A    
C9    H23   S    
C10   C11   S    
C10   H27   S    
C27   H1    S    
C26   C35   S    
C22   H3    S    
C8    C10   S    
C23   C36   A    
C21   C24   A    
C29   C37   A    
C6    C39   S    
C9    N1    S    
C32   H17   S    
C25   C33   S    
