data_mof_unit_29209.cif
_audit_creation_date              2012-10-26T19:51:37-0400
_audit_creation_method            fapswitch 2.2
_symmetry_space_group_name_H-M    P1
_symmetry_Int_Tables_number       1
_space_group_crystal_system       triclinic
_cell_length_a                    19.362952
_cell_length_b                    18.098581
_cell_length_c                    9.064224
_cell_angle_alpha                 90.01696
_cell_angle_beta                  90.08376
_cell_angle_gamma                 90.00211
_cell_volume                      3176.48084504

loop_
_atom_site_label
_atom_site_type_symbol
_atom_type_description
_atom_site_fract_x
_atom_site_fract_y
_atom_site_fract_z
_atom_type_partial_charge
C1    C     C_R   0.367624 0.500025 0.516434 0.600458
C2    C     C_R   0.473503 0.201190 0.378198 0.176388
C3    C     C_R   0.500208 0.838927 0.499500 -0.029413
C4    C     C_R   0.500052 0.161056 0.499738 -0.013083
C5    C     C_R   0.560229 0.961220 0.463168 0.003202
C6    C     C_R   0.440017 0.038755 0.535775 -0.001507
C7    C     C_R   0.440042 0.961139 0.535595 -0.006125
C8    C     C_R   0.560184 0.038837 0.463216 -0.000014
C9    C     C_R   0.500086 0.078368 0.499581 0.069941
C10   C     C_R   0.500158 0.921607 0.499364 0.076741
C11   C     C_R   0.499896 0.499995 0.220339 0.582737
C12   C     C_R   0.632380 0.500024 0.483619 0.598683
C13   C     C_R   0.500108 0.500009 0.779661 0.580518
C14   C     C_1   0.499972 0.500000 0.065495 0.015822
C15   C     C_1   0.500036 0.500019 0.934504 0.014088
C16   C     C_R   0.745249 0.432700 0.443426 0.116312
C17   C     C_R   0.254113 0.567324 0.546593 0.207694
C18   C     C_R   0.254760 0.432696 0.556657 0.116233
C19   C     C_R   0.745913 0.567324 0.453922 0.205233
C20   C     C_R   0.816453 0.430944 0.478194 0.192976
C21   C     C_R   0.183078 0.567074 0.510718 0.187949
C22   C     C_R   0.183545 0.430959 0.522001 0.193420
C23   C     C_R   0.472981 0.721010 0.383024 0.101458
C24   C     C_R   0.816924 0.567049 0.489986 0.187022
C25   C     C_R   0.851985 0.498501 0.500049 -0.087908
C26   C     C_R   0.148010 0.498529 0.500446 -0.087864
C27   C     C_R   0.708620 0.500035 0.459266 -0.075867
C28   C     C_R   0.291393 0.500033 0.540928 -0.075097
C29   C     C_R   0.963537 0.498089 0.367019 -0.018303
C30   C     C_R   0.036459 0.498012 0.633492 -0.018298
C31   C     C_R   0.035428 0.497853 0.365631 0.021751
C32   C     C_R   0.964568 0.497757 0.634879 0.021679
C33   C     C_R   0.072067 0.498139 0.498949 0.097909
C34   C     C_R   0.526269 0.278882 0.617644 0.098018
C35   C     C_R   0.927928 0.498120 0.501563 0.098295
C36   C     C_R   0.527082 0.721144 0.616801 0.079536
C37   C     C_R   0.473748 0.278918 0.382245 0.098313
C38   C     C_R   0.473046 0.798717 0.378598 0.198016
C39   C     C_R   0.526567 0.201148 0.621425 0.175358
C40   C     C_R   0.527308 0.798882 0.620658 0.162437
Cu1   Cu    Cu3+1 0.500000 0.573360 0.500000 1.070519
Cu2   Cu    Cu3+1 0.500000 0.426640 0.500000 1.080054
H1    H     H_    0.935488 0.498176 0.263524 0.150828
H2    H     H_    0.393177 0.068058 0.564576 0.179396
H3    H     H_    0.393225 0.931772 0.564289 0.169300
H4    H     H_    0.606998 0.068205 0.434506 0.180004
H5    H     H_    0.677378 0.317184 0.560242 0.334147
H6    H     H_    0.377195 0.661641 0.788734 0.370407
H7    H     H_    0.322600 0.317220 0.439484 0.334327
H8    H     H_    0.623152 0.661785 0.211335 0.372189
H9    H     H_    0.949734 0.306036 0.621645 0.402222
H10   H     H_    0.162290 0.765990 0.432575 0.396629
H11   H     H_    0.050364 0.305962 0.378042 0.402177
H12   H     H_    0.064509 0.498039 0.736986 0.151180
H13   H     H_    0.837713 0.765830 0.569911 0.396945
H14   H     H_    0.409131 0.811761 0.999551 0.401537
H15   H     H_    0.620173 0.239048 0.893906 0.356506
H16   H     H_    0.620516 0.760781 0.894649 0.362827
H17   H     H_    0.379895 0.239171 0.105797 0.356619
H18   H     H_    0.062623 0.497619 0.261283 0.169011
H19   H     H_    0.937373 0.497448 0.739226 0.168587
H20   H     H_    0.450992 0.690159 0.292426 0.192044
H21   H     H_    0.547541 0.309671 0.709044 0.150143
H22   H     H_    0.548890 0.690353 0.707602 0.164694
H23   H     H_    0.452460 0.309733 0.290940 0.150324
H24   H     H_    0.607077 0.931917 0.434433 0.175151
N1    N     N_R   0.500000 0.683620 0.500000 -0.277169
N2    N     N_R   0.500000 0.316380 0.500000 -0.251697
O1    O     O_R   0.400190 0.561980 0.499980 -0.444283
O2    O     O_2   0.758975 0.319606 0.249271 -0.136468
O3    O     O_3   0.671376 0.296032 0.460274 -0.449320
O4    O     O_2   0.325169 0.694965 0.526329 -0.236306
O5    O     O_2   0.238105 0.687869 0.722049 -0.167436
O6    O     O_3   0.351766 0.616396 0.759721 -0.507430
O7    O     O_2   0.349495 0.386810 0.756542 -0.241982
O8    O     O_2   0.241063 0.319532 0.750534 -0.136611
O9    O     O_3   0.328620 0.296034 0.539393 -0.449689
O10   O     O_2   0.674859 0.694961 0.474337 -0.241627
O11   O     O_2   0.762074 0.687948 0.278902 -0.166814
O12   O     O_R   0.599810 0.438020 0.500020 -0.482365
O13   O     O_3   0.648429 0.616498 0.240614 -0.512505
O14   O     O_2   0.813543 0.282106 0.527551 -0.166186
O15   O     O_2   0.900247 0.330100 0.355715 -0.231048
O16   O     O_3   0.918833 0.349002 0.636499 -0.511918
O17   O     O_2   0.088336 0.642729 0.349695 -0.247204
O18   O     O_2   0.097239 0.671762 0.612364 -0.193024
O19   O     O_3   0.191555 0.721106 0.433680 -0.402456
O20   O     O_2   0.186440 0.282150 0.472158 -0.166703
O21   O     O_2   0.099782 0.330043 0.644266 -0.231076
O22   O     O_3   0.081112 0.349088 0.363569 -0.511874
O23   O     O_R   0.599810 0.561980 0.500020 -0.445505
O24   O     O_2   0.911520 0.642565 0.651716 -0.248785
O25   O     O_2   0.902857 0.671828 0.389144 -0.191530
O26   O     O_3   0.808380 0.721016 0.567654 -0.409996
O27   O     O_2   0.371817 0.879447 0.259886 -0.215851
O28   O     O_2   0.489066 0.901565 0.168672 -0.173160
O29   O     O_3   0.425982 0.782042 0.084002 -0.494707
O30   O     O_2   0.509078 0.099198 0.832346 -0.134585
O31   O     O_2   0.626293 0.117767 0.740312 -0.230458
O32   O     O_3   0.574705 0.216732 0.916688 -0.433605
O33   O     O_2   0.628472 0.880697 0.738279 -0.216993
O34   O     O_R   0.400190 0.438020 0.499980 -0.482340
O35   O     O_2   0.511671 0.902103 0.830257 -0.173613
O36   O     O_3   0.575098 0.783527 0.916153 -0.474381
O37   O     O_2   0.491040 0.099354 0.166949 -0.134146
O38   O     O_2   0.373814 0.117820 0.259016 -0.233502
O39   O     O_3   0.425377 0.216898 0.082969 -0.434202
O40   O     O_R   0.500000 0.561940 0.288400 -0.508121
O41   O     O_R   0.500000 0.438060 0.711600 -0.489776
O42   O     O_R   0.500000 0.561940 0.711600 -0.509694
O43   O     O_R   0.500000 0.438060 0.288400 -0.490195
O44   O     O_2   0.650548 0.386883 0.243343 -0.242786
S1    S     S_3+6 0.706250 0.357972 0.343586 0.127317
S2    S     S_3+6 0.559910 0.156030 0.779535 0.101026
S3    S     S_3+6 0.561406 0.843998 0.778134 0.073764
S4    S     S_3+6 0.440186 0.156135 0.219932 0.099127
S5    S     S_3+6 0.291764 0.645156 0.638084 0.107005
S6    S     S_3+6 0.293772 0.357932 0.656271 0.127442
S7    S     S_3+6 0.708342 0.645201 0.362546 0.106302
S8    S     S_3+6 0.861875 0.345114 0.496621 0.086774
S9    S     S_3+6 0.137575 0.651634 0.476602 0.114717
S10   S     S_3+6 0.138114 0.345135 0.503356 0.086738
S11   S     S_3+6 0.862397 0.651583 0.524646 0.111721
S12   S     S_3+6 0.439254 0.843449 0.220543 0.086712

loop_
_geom_bond_atom_site_label_1
_geom_bond_atom_site_label_2
_ccdc_geom_bond_type
O27   S12   D    
C31   H18   S    
C7    C10   A    
C21   C26   A    
Cu2   O12   S    
Cu1   O40   S    
H17   O39   S    
Cu1   Cu2   S    
O37   S4    D    
O35   S3    D    
O14   S8    D    
C16   S1    S    
O31   S2    D    
C36   N1    A    
Cu1   N1    S    
C30   H12   S    
C7    H3    S    
Cu2   O41   S    
C32   H19   S    
O29   S12   S    
C11   C14   S    
O30   S2    D    
C40   S3    S    
C20   C25   A    
C37   N2    A    
O16   S8    S    
O3    S1    S    
C23   N1    A    
C13   O41   A    
C12   O23   A    
C2    S4    S    
C23   H20   S    
C3    C38   A    
C8    C9    A    
C37   H23   S    
O4    S5    D    
C1    C28   S    
C31   C33   A    
O17   S9    D    
C19   C27   A    
C18   S6    S    
C17   S5    S    
O26   S11   S    
C11   O40   A    
C16   C27   A    
C1    O1    A    
C19   S7    S    
C6    H2    S    
C29   H1    S    
Cu2   N2    S    
O22   S10   S    
O7    S6    D    
H14   O29   S    
C6    C9    A    
H13   O26   S    
Cu2   O34   S    
O44   S1    D    
C22   S10   S    
O2    S1    D    
O5    S5    D    
O28   S12   D    
C12   C27   S    
C11   O43   A    
C34   C39   A    
C32   C35   A    
H6    O6    S    
C36   C40   A    
C18   C28   A    
C24   C25   A    
O20   S10   D    
O9    S6    S    
O24   S11   D    
C34   N2    A    
O19   S9    S    
H15   O32   S    
C24   S11   S    
O8    S6    D    
O38   S4    D    
O15   S8    D    
C2    C4    A    
Cu2   O43   S    
C13   O42   A    
O36   S3    S    
C26   C33   S    
C4    C39   A    
C16   C20   A    
C39   S2    S    
O18   S9    D    
O32   S2    S    
H5    O3    S    
C25   C35   S    
Cu1   O23   S    
C3    C40   A    
Cu1   O42   S    
C13   C15   S    
O33   S3    D    
O11   S7    D    
H16   O36   S    
C20   S8    S    
Cu1   O1    S    
O6    S5    S    
O13   S7    S    
C30   C33   A    
C18   C22   A    
C17   C28   A    
H10   O19   S    
O25   S11   D    
C5    H24   S    
C5    C8    A    
C6    C7    A    
H9    O16   S    
C23   C38   A    
C29   C35   A    
O10   S7    D    
C5    C10   A    
C29   C31   A    
C3    C10   S    
C30   C32   A    
C2    C37   A    
C12   O12   A    
C34   H21   S    
H7    O9    S    
C19   C24   A    
C21   S9    S    
C8    H4    S    
O39   S4    S    
C22   C26   A    
H11   O22   S    
C14   C15   T    
C4    C9    S    
C36   H22   S    
C1    O34   A    
C38   S12   S    
O21   S10   D    
H8    O13   S    
C17   C21   A    
