data_mof_unit_5921.cif
_audit_creation_date              2012-12-11T14:35:57-0500
_audit_creation_method            fapswitch 2.2
_symmetry_space_group_name_H-M    P1
_symmetry_Int_Tables_number       1
_space_group_crystal_system       triclinic
_cell_length_a                    14.507832
_cell_length_b                    16.121089
_cell_length_c                    7.015699
_cell_angle_alpha                 90.000013
_cell_angle_beta                  80.626011
_cell_angle_gamma                 89.999987
_cell_volume                      1618.93455043

loop_
_atom_site_label
_atom_site_type_symbol
_atom_type_description
_atom_site_fract_x
_atom_site_fract_y
_atom_site_fract_z
_atom_type_partial_charge
O1    O     O_R   0.337460 0.413110 0.524760 -0.527518
O2    O     O_R   0.662540 0.913110 0.475240 -0.527516
O3    O     O_R   0.348690 0.587910 0.191230 -0.550890
O4    O     O_R   0.651310 0.087910 0.808770 -0.550889
O5    O     O_R   0.166530 0.586890 0.082470 -0.529636
O6    O     O_R   0.833470 0.086890 0.917530 -0.529636
C1    C     C_R   0.369997 0.616856 0.353627 0.729285
C2    C     C_R   0.630003 0.116855 0.646373 0.729294
O7    O     O_R   0.348700 0.413830 0.191250 -0.547106
O8    O     O_R   0.651300 0.913830 0.808750 -0.547097
O9    O     O_R   0.166530 0.411570 0.082490 -0.532749
O10   O     O_R   0.833470 0.911570 0.917510 -0.532743
C3    C     C_R   0.371847 0.386226 0.353103 0.787645
C4    C     C_R   0.628152 0.886227 0.646897 0.787593
O11   O     O_R   0.337460 0.588430 0.524740 -0.547886
O12   O     O_R   0.662540 0.088430 0.475260 -0.547884
O13   O     O_3   0.192230 0.499460 0.407330 -0.371538
O14   O     O_3   0.807770 0.999460 0.592670 -0.371533
V1    V     V_3+5 0.263080 0.500100 0.108540 1.461592
V2    V     V_3+5 0.736920 0.000100 0.891460 1.461596
O15   O     O_R   0.155290 0.412090 0.756570 -0.518166
O16   O     O_R   0.844710 0.912090 0.243430 -0.518153
C5    C     C_R   0.131216 0.383926 0.932828 0.724228
C6    C     C_R   0.868785 0.883926 0.067172 0.724290
O17   O     O_R   0.155290 0.586170 0.756550 -0.554268
O18   O     O_R   0.844710 0.086170 0.243450 -0.554271
C7    C     C_R   0.133645 0.614996 0.933424 0.711721
C8    C     C_R   0.866354 0.114997 0.066576 0.711731
V3    V     V_3+5 0.240910 0.499900 0.616030 1.491047
V4    V     V_3+5 0.759090 0.999900 0.383970 1.491034
O19   O     O_3   0.311760 0.500540 0.867100 -0.381938
O20   O     O_3   0.688240 0.000540 0.132900 -0.381937
C9    C     C_3   0.058791 0.722568 0.178753 -0.372497
C10   C     C_3   0.941210 0.222566 0.821244 -0.372486
H1    H     H_    0.024508 0.679472 0.292133 0.217525
H2    H     H_    0.975490 0.179468 0.707863 0.217533
H3    H     H_    0.131022 0.733309 0.207992 0.134285
H4    H     H_    0.868978 0.233309 0.792006 0.134277
C11   C     C_3   0.007378 0.806884 0.189727 -0.180450
C12   C     C_3   0.992626 0.306881 0.810268 -0.180433
H5    H     H_    0.063100 0.854097 0.145840 0.149738
H6    H     H_    0.936904 0.354095 0.854146 0.149750
C13   C     C_3   0.960606 0.653249 0.954387 -0.151757
C14   C     C_3   0.039394 0.153249 0.045616 -0.151741
C15   C     C_3   0.086570 0.754401 0.823132 -0.385972
C16   C     C_3   0.913427 0.254403 0.176863 -0.385977
C17   C     C_3   0.061342 0.683728 0.973172 -0.022513
C18   C     C_3   0.938657 0.183729 0.026828 -0.022511
H7    H     H_    0.096992 0.729990 0.672687 0.163784
H8    H     H_    0.903001 0.229994 0.327309 0.163783
H9    H     H_    0.153348 0.784194 0.844523 0.157553
H10   H     H_    0.846650 0.284196 0.155463 0.157551
C19   C     C_3   0.938189 0.809887 0.038149 -0.093485
C20   C     C_3   0.061811 0.309887 0.961852 -0.093516
C21   C     C_3   0.885155 0.723156 0.025002 0.213255
C22   C     C_3   0.114844 0.223157 0.975017 0.213295
C23   C     C_3   0.007254 0.819939 0.846949 -0.363525
C24   C     C_3   0.992742 0.319942 0.153048 -0.363507
H11   H     H_    0.037784 0.882958 0.830871 0.189635
H12   H     H_    0.962212 0.382961 0.169118 0.189631
H13   H     H_    0.966795 0.809188 0.735504 0.249562
H14   H     H_    0.033198 0.309194 0.264500 0.249549
H15   H     H_    0.962291 0.644815 0.795976 0.172703
H16   H     H_    0.037704 0.144811 0.204025 0.172695
H17   H     H_    0.553903 0.816684 0.356982 0.174782
H18   H     H_    0.446095 0.316682 0.643018 0.174794
H19   H     H_    0.431474 0.695923 0.647519 0.153464
H20   H     H_    0.568521 0.195919 0.352482 0.153475
C25   C     C_2   0.437052 0.686653 0.344567 -0.312825
C26   C     C_2   0.562947 0.186652 0.655434 -0.312831
C27   C     C_2   0.460763 0.720376 0.506227 -0.119174
C28   C     C_2   0.539234 0.220373 0.493774 -0.119221
H21   H     H_    0.530352 0.792761 0.797903 0.132224
H22   H     H_    0.469643 0.292757 0.202098 0.132208
C29   C     C_2   0.557282 0.819412 0.657569 -0.335321
C30   C     C_2   0.442714 0.319409 0.342431 -0.335226
C31   C     C_2   0.527332 0.790230 0.497719 -0.126426
C32   C     C_2   0.472664 0.290227 0.502281 -0.126459
H23   H     H_    0.466903 0.711250 0.203753 0.132872
H24   H     H_    0.533096 0.211249 0.796247 0.132882
O21   O     O_3   0.827612 0.727112 0.880518 -0.616931
H25   H     H_    0.775259 0.766155 0.920090 0.313716
O22   O     O_3   0.172375 0.227113 0.119520 -0.616908
H26   H     H_    0.224727 0.266158 0.079974 0.313762
C33   C     C_2   0.968305 0.833180 0.389381 0.748325
O23   O     O_2   0.899021 0.799137 0.477486 -0.531133
O24   O     O_R   0.003523 0.905850 0.460236 -0.653940
H27   H     H_    0.961595 0.929459 0.576721 0.325831
C34   C     C_2   0.031702 0.333173 0.610615 0.748335
O25   O     O_2   0.100985 0.299126 0.522514 -0.531100
O26   O     O_R   0.996491 0.405847 0.539759 -0.653932
H28   H     H_    0.038421 0.429452 0.423270 0.325829
C35   C     C_2   0.934392 0.567251 0.032903 0.761692
O27   O     O_2   0.974077 0.536108 0.156152 -0.566171
O28   O     O_R   0.861420 0.524981 0.967496 -0.631349
H29   H     H_    0.847183 0.469657 0.034396 0.288811
C36   C     C_2   0.065613 0.067254 0.967090 0.761678
O29   O     O_2   0.025914 0.036103 0.843874 -0.566192
O30   O     O_R   0.138603 0.024996 0.032456 -0.631351
H30   H     H_    0.152821 0.969662 0.965604 0.288816
C37   C     C_2   0.822379 0.703519 0.218006 0.817510
O31   O     O_2   0.846339 0.654319 0.333305 -0.516352
O32   O     O_R   0.737188 0.744835 0.266931 -0.675019
H31   H     H_    0.703085 0.727482 0.398473 0.313691
C38   C     C_2   0.177630 0.203515 0.782030 0.817453
O33   O     O_2   0.153653 0.154335 0.666695 -0.516348
O34   O     O_R   0.262865 0.244769 0.733208 -0.675049
H32   H     H_    0.296997 0.227333 0.601773 0.313674

loop_
_geom_bond_atom_site_label_1
_geom_bond_atom_site_label_2
_ccdc_geom_bond_type
C24   H14   S    
O24   H27   S    
C37   O31   D    
C16   H10   S    
O13   V3    S    
O28   H29   S    
O4    C2    A    
V1    O19   S    
O21   H25   S    
C13   H15   S    
C11   H5    S    
C33   O23   D    
C14   H16   S    
C38   O34   S    
O9    V1    S    
C35   O27   D    
H22   C30   S    
C5    C20   S    
C10   C12   S    
C30   C32   D    
O3    C1    A    
V2    O20   S    
C23   H11   S    
C15   H9    S    
O12   V4    S    
C36   O29   D    
C2    O12   A    
C25   C27   D    
O7    C3    A    
C28   C32   S    
C13   C35   S    
O5    C7    A    
O7    V1    S    
O6    C8    A    
O22   H26   S    
O8    V2    S    
O34   H32   S    
O3    V1    S    
O14   V4    S    
C12   C34   S    
C21   O21   S    
H19   C27   S    
C19   C21   S    
C37   O32   S    
C16   C24   S    
H21   C29   S    
C36   O30   S    
C16   H8    S    
O11   V3    S    
C24   H12   S    
C16   C18   S    
C15   C17   S    
O17   V3    S    
H18   C32   S    
C20   C22   S    
H17   C31   S    
C33   O24   S    
C26   H24   S    
O8    C4    A    
O26   H28   S    
C19   C23   S    
O13   V1    S    
C1    O11   A    
C6    C19   S    
O15   V3    S    
C9    H3    S    
C14   C36   S    
C14   C22   S    
O30   H30   S    
C3    C30   S    
C15   H7    S    
H20   C28   S    
C15   C23   S    
O10   V2    S    
O1    V3    S    
C9    C11   S    
C29   C31   D    
C13   C21   S    
O18   V4    S    
C12   C20   S    
O15   C5    A    
C9    C17   S    
O16   C6    A    
C25   H23   S    
O1    C3    A    
C11   C33   S    
C27   C31   S    
C22   O22   S    
C20   C24   S    
C7    C17   S    
O10   C6    A    
C8    C18   S    
O16   V4    S    
C10   H4    S    
C2    C26   S    
C12   H6    S    
C1    C25   S    
C23   H13   S    
O5    V1    S    
O17   C7    A    
O6    V2    S    
C38   O33   D    
C21   C37   S    
O18   C8    A    
O2    V4    S    
C4    C29   S    
V3    O19   S    
V4    O20   S    
C11   C19   S    
O9    C5    A    
C9    H1    S    
C10   H2    S    
O14   V2    S    
O2    C4    A    
C22   C38   S    
O4    V2    S    
C10   C18   S    
C35   O28   S    
C34   O26   S    
O32   H31   S    
C26   C28   D    
C34   O25   D    
C13   C17   S    
C14   C18   S    
