data_mof_unit_58233.cif
_audit_creation_date              2013-03-05T15:43:53-0500
_audit_creation_method            fapswitch 2.2
_symmetry_space_group_name_H-M    P1
_symmetry_Int_Tables_number       1
_space_group_crystal_system       triclinic
_cell_length_a                    13.539779
_cell_length_b                    13.598901
_cell_length_c                    27.48262
_cell_angle_alpha                 90.850583
_cell_angle_beta                  90.36019
_cell_angle_gamma                 59.777626
_cell_volume                      4371.98190052

loop_
_atom_site_label
_atom_site_type_symbol
_atom_site_description
_atom_site_fract_x
_atom_site_fract_y
_atom_site_fract_z
_atom_type_partial_charge
O1    O     O_R   0.301710 0.195650 0.554160 -0.492080
O2    O     O_R   0.522390 0.158990 0.550460 -0.498157
C1    C     C_R   0.620304 0.100753 0.570380 0.552980
O3    O     O_R   0.694390 0.003530 0.554040 -0.470496
O4    O     O_R   0.657700 0.819660 0.549320 -0.482242
C2    C     C_R   0.599826 0.779642 0.568568 0.553239
O5    O     O_R   0.501930 0.803280 0.552920 -0.494032
O6    O     O_R   0.318170 0.023580 0.549580 -0.486837
C3    C     C_R   0.279245 0.121564 0.569757 0.556057
O7    O     O_R   0.303010 0.193990 0.446760 -0.502604
O8    O     O_R   0.523600 0.157450 0.450900 -0.502061
C4    C     C_R   0.624915 0.100667 0.432367 0.554096
O9    O     O_R   0.695690 0.001860 0.446640 -0.434552
O10   O     O_R   0.658900 0.818120 0.449760 -0.489237
C5    C     C_R   0.598575 0.781570 0.428746 0.544416
O11   O     O_R   0.503220 0.801620 0.445520 -0.507293
O12   O     O_R   0.319370 0.022040 0.450020 -0.499872
C6    C     C_R   0.276369 0.121660 0.431480 0.545274
Cr1   Cr    Cr6+3 0.417550 0.169090 0.500530 1.088523
Cr2   Cr    Cr6+3 0.669180 0.913420 0.499920 1.139007
Cr3   Cr    Cr6+3 0.413260 0.917540 0.499520 1.083627
O13   O     O_3   0.499990 0.000010 0.499990 -0.287140
C7    C     C_3   0.773738 0.610507 0.737475 0.239148
C8    C     C_3   0.737228 0.703856 0.776880 0.226610
C9    C     C_1   0.696905 0.605982 0.900265 0.050378
C10   C     C_1   0.630977 0.732919 0.616114 0.073277
C11   C     C_3   0.715924 0.556081 0.766640 -0.085947
C12   C     C_3   0.679678 0.651321 0.805849 -0.043427
C13   C     C_3   0.601671 0.632491 0.739140 -0.132089
C14   C     C_3   0.660850 0.685264 0.710382 0.005469
C15   C     C_3   0.565801 0.726420 0.779088 -0.149991
C16   C     C_3   0.625543 0.777375 0.749900 0.206270
C17   C     C_1   0.688286 0.630587 0.858049 0.040286
C18   C     C_1   0.648018 0.706391 0.658149 0.087758
H1    H     H_    0.480007 0.775461 0.796199 0.161189
H2    H     H_    0.540331 0.610035 0.723135 0.222057
H3    H     H_    0.753975 0.464076 0.773992 0.229519
C19   C     C_3   0.077512 0.179390 0.735024 0.262821
C20   C     C_3   0.140372 0.083727 0.772047 -0.075442
H4    H     H_    0.116781 0.019510 0.782219 0.199156
H5    H     H_    0.328852 0.973816 0.740530 0.179005
C21   C     C_1   0.093155 0.203248 0.901317 0.039087
C22   C     C_1   0.236273 0.136932 0.618197 0.058348
C23   C     C_3   0.077775 0.268576 0.769958 -0.043999
C24   C     C_3   0.144329 0.172148 0.806684 -0.006211
C25   C     C_3   0.193195 0.243567 0.747558 -0.109566
C26   C     C_3   0.189947 0.155244 0.712857 0.011910
C27   C     C_3   0.259001 0.147978 0.785079 -0.095956
C28   C     C_3   0.255791 0.059425 0.749640 -0.117463
C29   C     C_1   0.119797 0.185097 0.858981 0.014114
C30   C     C_1   0.212179 0.146274 0.660638 0.039435
H6    H     H_    0.332617 0.137269 0.807099 0.195684
H7    H     H_    0.215799 0.308264 0.736951 0.194406
H8    H     H_    0.003282 0.353053 0.779285 0.192075
C31   C     C_3   0.635259 0.269380 0.741037 0.269947
C32   C     C_3   0.552408 0.261942 0.776948 0.217696
H9    H     H_    0.494686 0.143936 0.738800 0.213938
C33   C     C_1   0.685649 0.207272 0.904609 0.062229
C34   C     C_1   0.636119 0.130928 0.618909 0.084506
C35   C     C_3   0.736345 0.194286 0.774822 0.248347
C36   C     C_3   0.653288 0.185906 0.810327 -0.032811
C37   C     C_3   0.751671 0.087812 0.748163 0.205383
C38   C     C_3   0.651645 0.162037 0.714297 -0.024929
C39   C     C_3   0.670472 0.077483 0.783982 -0.116199
C40   C     C_3   0.567730 0.154391 0.749963 -0.126751
C41   C     C_1   0.664865 0.196791 0.862850 0.070506
C42   C     C_1   0.645354 0.147757 0.661471 0.106927
H10   H     H_    0.688175 0.998360 0.802482 0.229232
C43   C     C_R   0.724705 0.719098 0.355670 -0.102489
C44   C     C_R   0.735073 0.710942 0.304950 -0.019581
C45   C     C_R   0.758247 0.681750 0.203310 -0.004628
C46   C     C_R   0.850787 0.670469 0.232003 0.196033
C47   C     C_R   0.837728 0.685770 0.282553 -0.092878
C48   C     C_R   0.770562 0.652738 0.153691 -0.109427
H11   H     H_    0.851445 0.621428 0.135492 0.198391
H12   H     H_    0.796079 0.707296 0.377961 0.176254
H13   H     H_    0.909468 0.674215 0.304542 0.198810
C49   C     C_R   0.681530 0.651015 0.128257 -0.034889
C50   C     C_R   0.527426 0.763981 0.348629 -0.090347
C51   C     C_R   0.535601 0.759251 0.298320 -0.016102
C52   C     C_R   0.640447 0.730143 0.276220 0.034375
C53   C     C_R   0.439455 0.785739 0.269938 -0.043349
C54   C     C_R   0.448352 0.775786 0.219492 0.278699
C55   C     C_R   0.555657 0.735199 0.197275 0.034665
C56   C     C_R   0.651128 0.717359 0.225525 -0.010488
C57   C     C_R   0.572213 0.702350 0.148432 -0.070189
C58   C     C_R   0.620824 0.746066 0.377625 0.007188
H14   H     H_    0.503039 0.705714 0.127180 0.215056
H15   H     H_    0.357818 0.811917 0.287017 0.161921
H16   H     H_    0.445356 0.788522 0.364976 0.156620
C59   C     C_R   0.190057 0.071268 0.360984 -0.126010
C60   C     C_R   0.160896 0.086438 0.311509 0.016149
C61   C     C_R   0.119654 0.108679 0.210925 0.037889
C62   C     C_R   0.105751 0.028670 0.237202 -0.074228
C63   C     C_R   0.129530 0.015298 0.286958 -0.113249
C64   C     C_R   0.095706 0.122926 0.161279 -0.098110
H17   H     H_    0.063283 0.073312 0.143371 0.152356
H18   H     H_    0.197508 0.998574 0.380010 0.145639
H19   H     H_    0.078719 0.974895 0.219054 0.162278
H20   H     H_    0.122298 0.950305 0.306273 0.153500
C65   C     C_R   0.103862 0.207626 0.135857 -0.016772
C66   C     C_R   0.198908 0.244785 0.360714 -0.087648
C67   C     C_R   0.188771 0.250944 0.310343 -0.044053
C68   C     C_R   0.168024 0.171957 0.285600 0.015606
C69   C     C_R   0.206516 0.329533 0.284301 0.188728
C70   C     C_R   0.208397 0.325327 0.233131 0.210433
C71   C     C_R   0.172365 0.256740 0.208770 -0.024882
C72   C     C_R   0.153552 0.179029 0.235076 0.010758
C73   C     C_R   0.147652 0.269576 0.159036 -0.066450
C74   C     C_R   0.214326 0.148208 0.385081 -0.010888
H21   H     H_    0.152645 0.334973 0.139075 0.215401
H22   H     H_    0.207692 0.309117 0.380567 0.206108
C75   C     C_R   0.583150 0.245466 0.368610 -0.106342
C76   C     C_R   0.595275 0.269143 0.320084 -0.017532
C77   C     C_R   0.596260 0.301078 0.218144 -0.006401
C78   C     C_R   0.526389 0.394408 0.249990 0.303506
C79   C     C_R   0.526990 0.378038 0.300545 0.294299
C80   C     C_R   0.596130 0.309006 0.166299 0.262887
H23   H     H_    0.513336 0.307822 0.390854 0.214939
C81   C     C_R   0.683617 0.218627 0.138613 -0.000021
C82   C     C_R   0.754466 0.059577 0.360792 0.202689
C83   C     C_R   0.758543 0.076259 0.310911 0.011628
C84   C     C_R   0.675998 0.180423 0.290120 -0.025662
C85   C     C_R   0.841884 0.989779 0.281197 -0.094167
C86   C     C_R   0.838227 0.002389 0.231348 -0.127894
C87   C     C_R   0.755235 0.103654 0.210410 0.008059
C88   C     C_R   0.675613 0.195575 0.239521 -0.020858
C89   C     C_R   0.756702 0.115159 0.160761 -0.157605
C90   C     C_R   0.656907 0.138191 0.387933 -0.025940
H24   H     H_    0.821362 0.044123 0.139551 0.154376
H25   H     H_    0.901747 0.933083 0.209096 0.161709
H26   H     H_    0.908510 0.910325 0.295737 0.199293
O14   O     O_R   0.818720 0.150820 0.967160 -0.488141
O15   O     O_R   0.006410 0.181720 0.970200 -0.485951
C91   C     C_R   0.047879 0.236915 0.949580 0.552556
O16   O     O_R   0.027890 0.334070 0.964920 -0.488786
O17   O     O_R   0.809600 0.521790 0.967960 -0.486919
C92   C     C_R   0.711377 0.562535 0.948321 0.543815
O18   O     O_R   0.635520 0.542770 0.964420 -0.497412
O19   O     O_R   0.665950 0.325030 0.970100 -0.486494
C93   C     C_R   0.720975 0.225299 0.951468 0.552374
O20   O     O_R   0.816620 0.158530 0.074540 -0.530608
O21   O     O_R   0.004460 0.188870 0.069750 -0.504428
C94   C     C_R   0.047135 0.245311 0.088681 0.543792
O22   O     O_R   0.025800 0.341780 0.072300 -0.496678
O23   O     O_R   0.807650 0.528950 0.067500 -0.502393
C95   C     C_R   0.706882 0.577530 0.085275 0.541439
O24   O     O_R   0.633420 0.550490 0.071810 -0.479449
O25   O     O_R   0.664000 0.332180 0.069640 -0.440772
C96   C     C_R   0.718831 0.235223 0.090047 0.558083
Cr4   Cr    Cr6+3 0.909170 0.177380 0.020380 1.070542
Cr5   Cr    Cr6+3 0.912710 0.429210 0.018220 1.088132
Cr6   Cr    Cr6+3 0.657170 0.432570 0.019030 1.127693
O26   O     O_3   0.826350 0.346390 0.019210 -0.280816
N1    N     N_R   0.810695 0.744722 0.796119 0.105620
O27   O     O_R   0.859292 0.781123 0.766477 -0.213601
O28   O     O_R   0.830181 0.742779 0.842578 -0.307845
Cl1   Cl    Cl    0.418703 0.377647 0.796734 -0.500807
Cl2   Cl    Cl    0.614164 0.390062 0.708731 -0.513878
N2    N     N_R   0.862473 0.993387 0.733203 0.158596
O29   O     O_R   0.943659 0.943851 0.765105 -0.236796
O30   O     O_R   0.881054 0.958168 0.688153 -0.237870
Cl3   Cl    Cl    0.844067 0.221749 0.796886 -0.575120
Cl4   Cl    Cl    0.910863 0.536071 0.709355 -0.483680
N3    N     N_R   0.959003 0.641520 0.211001 0.083916
O31   O     O_R   0.014519 0.549535 0.184603 -0.336013
O32   O     O_R   0.011591 0.694461 0.225730 -0.268181
Cl5   Cl    Cl    0.324558 0.808171 0.185779 -0.544278
N4    N     N_R   0.573402 0.898989 0.743130 0.071295
O33   O     O_R   0.523401 0.966519 0.780049 -0.416010
O34   O     O_R   0.561019 0.940645 0.699774 -0.375297
N5    N     N_R   0.257210 0.380768 0.206166 0.110555
O35   O     O_R   0.330141 0.325265 0.171499 -0.309012
O36   O     O_R   0.239892 0.480560 0.219156 -0.116452
N6    N     N_R   0.232929 0.406122 0.309645 0.108694
O37   O     O_R   0.324832 0.365871 0.335965 -0.333401
O38   O     O_R   0.156405 0.513625 0.313063 -0.233972
Cl6   Cl    Cl    0.481974 0.421178 0.134190 -0.382817
Cl7   Cl    Cl    0.446693 0.536227 0.230195 -0.366608
Cl8   Cl    Cl    0.449046 0.497190 0.339990 -0.460287
N7    N     N_R   0.847893 0.962492 0.383464 0.086540
O39   O     O_R   0.864299 0.860874 0.375228 -0.351979
O40   O     O_R   0.909084 0.977316 0.416248 -0.296417
N8    N     N_R   0.981771 0.195816 0.704781 0.129625
O41   O     O_R   0.989126 0.110863 0.679453 -0.259243
O42   O     O_R   0.896258 0.297811 0.697661 -0.238569

loop_
_geom_bond_atom_site_label_1
_geom_bond_atom_site_label_2
_geom_bond_distance
_ccdc_geom_bond_type
C31   C32   1.540712 S    
C38   C40   1.548710 S    
N3    O31   1.299777 A    
C11   C13   1.560245 S    
C71   C73   1.397562 A    
N4    O33   1.298538 A    
C69   C70   1.406463 A    
C66   H22   1.080260 S    
C95   O24   1.273202 A    
O14   Cr4   2.043684 S    
C16   N4    1.449211 S    
C50   C58   1.405871 A    
C19   N8    1.456578 S    
C91   O16   1.273362 A    
N6    O38   1.300700 A    
O4    Cr2   1.935620 S    
C2    C10   1.427242 S    
N7    O39   1.300975 A    
C78   C79   1.409693 A    
C13   H2    1.106011 S    
O8    Cr1   1.933038 S    
C61   C62   1.404273 A    
C53   H15   1.083645 S    
C75   C90   1.398996 A    
C39   H10   1.108492 S    
C59   C74   1.401465 A    
C82   N7    1.436901 S    
N5    O35   1.301013 A    
C55   C57   1.391688 A    
C75   C76   1.406352 A    
C73   H21   1.082541 S    
C61   C72   1.409178 A    
O4    C2    1.277906 A    
C65   C94   1.464407 S    
C57   H14   1.082240 S    
N1    O28   1.300122 A    
C70   C71   1.411261 A    
O18   Cr6   2.050174 S    
C65   C73   1.396143 A    
C77   C78   1.428461 A    
C35   Cl3   1.779044 S    
C77   C88   1.422396 A    
N8    O41   1.300103 A    
C85   H26   1.080726 S    
C43   H12   1.083647 S    
C35   C37   1.531108 S    
C46   N3    1.434649 S    
Cr4   O26   1.986971 S    
C44   C52   1.410577 A    
O25   Cr6   1.932499 S    
C50   H16   1.084673 S    
C37   C39   1.539701 S    
C34   C42   1.206348 T    
Cr3   O13   1.990509 S    
C45   C56   1.416380 A    
C36   C41   1.464314 S    
C10   C18   1.201313 T    
C54   C55   1.407895 A    
C23   C25   1.551680 S    
O6    C3    1.278879 A    
C31   C38   1.537640 S    
C32   Cl1   1.779927 S    
C7    C8    1.537149 S    
O17   Cr5   1.923528 S    
C7    C11   1.552973 S    
C13   C14   1.544480 S    
C43   C58   1.400616 A    
C8    N1    1.455685 S    
O19   Cr6   1.931248 S    
C20   C24   1.544360 S    
C49   C57   1.394336 A    
O21   Cr4   1.924746 S    
N3    O32   1.301139 A    
C75   H23   1.082240 S    
C31   C35   1.543814 S    
N4    O34   1.300258 A    
C43   C44   1.399001 A    
H5    C28   1.109810 S    
O16   Cr5   2.047662 S    
N5    O36   1.300137 A    
O6    Cr3   1.929808 S    
N1    O27   1.299331 A    
C38   C42   1.469481 S    
N7    O40   1.300857 A    
O7    C6    1.271592 A    
C25   C27   1.552160 S    
C3    C22   1.425995 S    
O1    Cr1   2.050804 S    
C4    C90   1.478814 S    
C14   C18   1.460219 S    
C76   C79   1.405395 A    
C7    C14   1.538841 S    
O10   Cr2   1.930132 S    
Cr1   O13   1.987057 S    
O1    C3    1.270530 A    
O19   C93   1.274203 A    
C33   C41   1.203376 T    
C51   C53   1.398694 A    
C48   H11   1.077925 S    
C82   C90   1.418172 A    
C20   H4    1.109958 S    
C63   H20   1.083629 S    
C46   C47   1.400725 A    
C26   C30   1.458878 S    
O5    Cr3   2.043777 S    
C60   C63   1.400759 A    
O12   Cr3   1.924368 S    
C21   C91   1.433328 S    
N2    O30   1.300212 A    
O20   Cr4   2.051745 S    
C36   C39   1.541874 S    
C8    C16   1.523821 S    
C19   C23   1.537028 S    
C37   C38   1.534653 S    
C32   C40   1.548041 S    
C86   H25   1.084166 S    
C84   C88   1.408391 A    
N6    O37   1.298461 A    
O7    Cr1   2.039823 S    
C71   C72   1.414342 A    
C77   C80   1.430435 A    
C64   H17   1.084325 S    
C44   C47   1.397674 A    
O12   C6    1.287081 A    
C82   C83   1.398770 A    
C62   C63   1.396255 A    
C67   C69   1.412614 A    
C55   C56   1.417686 A    
C19   C26   1.516234 S    
O15   C91   1.280893 A    
C49   C95   1.461678 S    
C21   C29   1.204937 T    
O23   Cr5   1.929958 S    
C76   C84   1.408075 A    
C80   Cl6   1.773086 S    
C27   C28   1.554981 S    
C20   C28   1.554586 S    
Cr5   O26   1.990864 S    
C12   C17   1.458742 S    
C61   C64   1.394010 A    
C12   C15   1.544047 S    
C69   N6    1.431132 S    
C86   C87   1.395617 A    
C15   H1    1.110377 S    
C66   C74   1.401878 A    
O15   Cr4   1.934493 S    
O24   Cr6   2.048560 S    
Cr2   O13   1.979575 S    
C83   C85   1.403694 A    
C1    O3    1.268384 A    
C68   C72   1.399019 A    
C23   C24   1.545491 S    
C5    C58   1.461659 S    
O23   C95   1.275936 A    
C54   Cl5   1.763883 S    
C24   C27   1.537292 S    
C25   C26   1.540369 S    
C87   C89   1.377154 A    
O9    Cr2   2.052532 S    
O2    Cr1   1.923969 S    
C32   C36   1.538477 S    
C70   N5    1.441814 S    
C15   C16   1.538459 S    
C8    C12   1.528580 S    
H9    C40   1.108558 S    
C51   C52   1.406704 A    
C89   H24   1.085215 S    
C45   C48   1.401304 A    
O8    C4    1.291595 A    
C81   C89   1.394870 A    
O11   Cr3   2.047274 S    
C2    O5    1.270119 A    
C26   C28   1.540430 S    
C79   Cl8   1.776264 S    
O17   C92   1.274765 A    
C81   C96   1.478166 S    
C94   O22   1.281218 A    
C62   H19   1.083443 S    
N2    O29   1.300301 A    
O20   C96   1.275217 A    
C9    C92   1.426568 S    
C83   C84   1.415738 A    
C45   C46   1.418787 A    
C13   C15   1.553479 S    
O25   C96   1.278857 A    
C39   C40   1.565601 S    
C14   C16   1.529823 S    
C33   C93   1.431156 S    
C22   C30   1.200705 T    
C19   C20   1.538114 S    
C7    Cl4   1.780967 S    
C24   C29   1.465160 S    
C11   H3    1.108583 S    
C87   C88   1.410445 A    
C5    O11   1.266142 A    
C25   H7    1.110176 S    
C31   Cl2   1.769563 S    
N8    O42   1.300455 A    
O2    C1    1.277202 A    
C37   N2    1.456482 S    
C59   H18   1.084018 S    
C66   C67   1.389838 A    
C80   C81   1.417946 A    
O22   Cr5   2.039184 S    
C92   O18   1.268893 A    
C60   C68   1.416776 A    
C50   C51   1.385715 A    
O3    Cr2   2.047176 S    
C23   H8    1.109403 S    
C27   H6    1.108989 S    
C4    O9    1.261858 A    
C6    C74   1.468667 S    
C53   C54   1.391055 A    
C48   C49   1.399879 A    
C78   Cl7   1.763095 S    
C67   C68   1.405258 A    
C47   H13   1.084056 S    
O10   C5    1.281394 A    
C35   C36   1.541390 S    
O14   C93   1.272670 A    
Cr6   O26   1.979414 S    
C64   C65   1.407107 A    
C52   C56   1.400797 A    
C59   C60   1.402448 A    
O21   C94   1.274557 A    
C9    C17   1.200901 T    
C85   C86   1.380676 A    
C11   C12   1.550731 S    
C1    C34   1.435830 S    
