data_mof_unit_68193.cif
_audit_creation_date              2012-12-11T16:32:24-0500
_audit_creation_method            fapswitch 2.2
_symmetry_space_group_name_H-M    P1
_symmetry_Int_Tables_number       1
_space_group_crystal_system       triclinic
_cell_length_a                    6.975439
_cell_length_b                    14.236194
_cell_length_c                    16.208176
_cell_angle_alpha                 90.349136
_cell_angle_beta                  89.185319
_cell_angle_gamma                 89.915493
_cell_volume                      1609.33734953

loop_
_atom_site_label
_atom_site_type_symbol
_atom_type_description
_atom_site_fract_x
_atom_site_fract_y
_atom_site_fract_z
_atom_type_partial_charge
O1    O     O_R   0.361630 0.167340 0.164570 -0.517942
O2    O     O_R   0.638370 0.832660 0.835430 -0.517943
O3    O     O_R   0.690860 0.157560 0.338690 -0.505577
O4    O     O_R   0.309140 0.842440 0.661310 -0.505579
O5    O     O_R   0.861260 0.336420 0.339380 -0.541762
O6    O     O_R   0.138740 0.663580 0.660620 -0.541759
C1    C     C_R   0.521018 0.135033 0.368025 0.815086
C2    C     C_R   0.478982 0.864968 0.631974 0.815106
O7    O     O_R   0.691330 0.156310 0.165190 -0.501539
O8    O     O_R   0.308670 0.843690 0.834810 -0.501542
O9    O     O_R   0.861730 0.335160 0.164640 -0.511099
O10   O     O_R   0.138270 0.664840 0.835360 -0.511104
C3    C     C_R   0.524300 0.129103 0.139967 0.793411
C4    C     C_R   0.475699 0.870896 0.860034 0.793411
O11   O     O_R   0.361150 0.168600 0.339320 -0.543904
O12   O     O_R   0.638850 0.831400 0.660680 -0.543903
O13   O     O_3   0.527950 0.310560 0.252000 -0.354913
O14   O     O_3   0.472050 0.689440 0.748000 -0.354914
V1    V     V_3+5 0.802770 0.240990 0.251980 1.737450
V2    V     V_3+5 0.197230 0.759010 0.748020 1.737448
O15   O     O_R   0.191450 0.346190 0.165260 -0.501904
O16   O     O_R   0.808550 0.653810 0.834740 -0.501904
C5    C     C_R   0.023732 0.372730 0.139958 0.807742
C6    C     C_R   0.976268 0.627273 0.860045 0.807752
O17   O     O_R   0.190980 0.347440 0.338770 -0.534075
O18   O     O_R   0.809020 0.652560 0.661230 -0.534071
C7    C     C_R   0.021509 0.367585 0.368747 0.846533
C8    C     C_R   0.978492 0.632411 0.631256 0.846545
V3    V     V_3+5 0.302780 0.262760 0.251980 1.700494
V4    V     V_3+5 0.697220 0.737240 0.748020 1.700500
O19   O     O_3   0.027730 0.193200 0.251960 -0.348000
O20   O     O_3   0.972270 0.806800 0.748040 -0.348004
C9    C     C_3   0.938605 0.416982 0.526061 0.720025
C10   C     C_3   0.061403 0.583009 0.473945 0.720013
C11   C     C_3   0.110096 0.470985 0.561688 0.207391
C12   C     C_3   0.889912 0.529007 0.438318 0.207367
C13   C     C_3   0.989951 0.561994 0.561979 -0.340745
C14   C     C_3   0.010055 0.437998 0.438027 -0.340757
C15   C     C_3   0.816252 0.507716 0.526910 -0.331185
C16   C     C_3   0.183755 0.492276 0.473096 -0.331187
H1    H     H_    0.665092 0.513258 0.548813 0.216216
H2    H     H_    0.334915 0.486734 0.451192 0.216213
C17   C     C_R   0.997731 0.700586 0.029829 0.170131
C18   C     C_R   0.002275 0.299416 0.970172 0.170158
C19   C     C_R   0.019533 0.734829 0.109282 -0.282612
C20   C     C_R   0.980507 0.265173 0.890714 -0.282645
C21   C     C_R   0.058021 0.675963 0.173136 0.777011
C22   C     C_R   0.942051 0.324039 0.826855 0.777009
C23   C     C_R   0.076845 0.579817 0.159581 0.149151
C24   C     C_R   0.923207 0.420184 0.840414 0.149122
C25   C     C_R   0.034129 0.537958 0.080801 -0.088210
C26   C     C_R   0.965888 0.462044 0.919199 -0.088185
C27   C     C_R   0.002596 0.600529 0.012772 0.052670
C28   C     C_R   0.997409 0.399473 0.987229 0.052676
C29   C     C_R   0.021884 0.437851 0.068324 -0.027046
C30   C     C_R   0.978117 0.562152 0.931678 -0.027040
H3    H     H_    0.013078 0.809637 0.121951 0.201526
H4    H     H_    0.986983 0.190366 0.878043 0.201526
C31   C     C_3   0.432074 0.960827 0.429909 -0.302286
C32   C     C_3   0.567929 0.039179 0.570095 -0.302320
C33   C     C_3   0.605919 0.924891 0.479684 0.242593
C34   C     C_3   0.394081 0.075112 0.520316 0.242524
H5    H     H_    0.374803 0.927675 0.373179 0.243485
H6    H     H_    0.625194 0.072333 0.626826 0.243479
C35   C     C_3   0.492127 0.936884 0.561809 -0.374668
C36   C     C_3   0.507874 0.063117 0.438192 -0.374688
C37   C     C_3   0.320249 0.973381 0.512614 0.730256
C38   C     C_3   0.679758 0.026619 0.487384 0.730278
C39   C     C_R   0.493549 0.200063 0.968166 0.115249
C40   C     C_R   0.506454 0.799935 0.031836 0.115229
C41   C     C_R   0.457698 0.231683 0.888156 0.149882
C42   C     C_R   0.542320 0.768316 0.111843 0.149903
C43   C     C_R   0.410447 0.169211 0.826818 0.645045
C44   C     C_R   0.589576 0.830787 0.173180 0.645088
C45   C     C_R   0.390854 0.074206 0.843384 0.027212
C46   C     C_R   0.609157 0.925793 0.156615 0.027218
C47   C     C_R   0.451980 0.035575 0.920382 -0.109175
C48   C     C_R   0.548021 0.964423 0.079620 -0.109185
C49   C     C_R   0.491743 0.100337 0.986498 -0.014087
C50   C     C_R   0.508256 0.899662 0.013503 -0.014088
C51   C     C_R   0.474357 0.936125 0.932608 0.002624
C52   C     C_R   0.525642 0.063873 0.067393 0.002621
Br1   Br    Br    0.274022 0.428099 0.649140 -0.256264
Br2   Br    Br    0.726003 0.571901 0.350863 -0.256239
F1    F     F_    0.133667 0.944735 0.526503 -0.560520
F2    F     F_    0.866335 0.055258 0.473489 -0.560525
F3    F     F_    0.636992 0.796838 0.248447 -0.534243
F4    F     F_    0.363047 0.203161 0.751548 -0.534256
Br3   Br    Br    0.542641 0.302500 0.043969 -0.431484
Br4   Br    Br    0.457359 0.697498 0.956033 -0.431497
Br5   Br    Br    0.439789 0.363130 0.861234 -0.360956
Br6   Br    Br    0.560235 0.636869 0.138764 -0.360939
Br7   Br    Br    0.219443 0.016495 0.766445 -0.387366
Br8   Br    Br    0.780567 0.983508 0.233553 -0.387347
F5    F     F_    0.873879 0.330680 0.553300 -0.547832
F6    F     F_    0.126134 0.669310 0.446705 -0.547829
F7    F     F_    0.910065 0.285386 0.751390 -0.527886
F8    F     F_    0.090101 0.714618 0.248586 -0.527936
Br9   Br    Br    0.964017 0.804613 0.956008 -0.496360
Br10  Br    Br    0.035973 0.195388 0.043994 -0.496348
Br11  Br    Br    0.208728 0.522830 0.248560 -0.354205
Br12  Br    Br    0.791339 0.477164 0.751432 -0.354258
Br13  Br    Br    0.763558 0.818106 0.449038 -0.163343
Br14  Br    Br    0.236046 0.181865 0.550906 -0.163186

loop_
_geom_bond_atom_site_label_1
_geom_bond_atom_site_label_2
_ccdc_geom_bond_type
C36   C38   S    
C10   C13   S    
C38   F2    S    
C6    C30   S    
O4    C2    A    
V1    O19   S    
C15   H1    S    
C22   F7    S    
C19   H3    S    
C9    C15   S    
C21   F8    S    
C44   C46   A    
C34   C37   S    
C10   C16   S    
C46   C48   A    
C33   Br13  S    
C17   Br9   S    
O3    C1    A    
C31   C36   S    
C23   Br11  S    
C42   Br6   S    
C48   C50   A    
C7    C14   S    
O12   V4    S    
O13   V3    S    
C32   C34   S    
O7    V1    S    
C19   C21   A    
C39   C41   A    
O7    C3    A    
C31   C37   S    
O5    C7    A    
C17   C27   A    
O6    C8    A    
O8    V2    S    
C35   C37   S    
C24   C26   A    
O3    V1    S    
O14   V4    S    
C44   F3    S    
V4    O20   S    
C25   C29   A    
C46   Br8   S    
C22   C24   A    
C2    C35   S    
C2    O12   A    
C20   H4    S    
C43   C45   A    
C40   Br4   S    
C39   Br3   S    
C9    F5    S    
C26   C28   A    
O11   V3    S    
C34   Br14  S    
C47   C49   A    
O17   V3    S    
C20   C22   A    
C37   F1    S    
C31   C33   S    
C34   C36   S    
C40   C50   A    
C42   C44   A    
O8    C4    A    
C41   C43   A    
C11   Br1   S    
C1    O11   A    
C18   C20   A    
C23   C25   A    
O15   V3    S    
C3    C52   S    
C25   C27   A    
C43   F4    S    
C9    C11   S    
C33   C35   S    
C45   C47   A    
C48   C52   A    
C16   H2    S    
C47   C51   A    
O9    V1    S    
O10   V2    S    
O1    V3    S    
C41   Br5   S    
C17   C19   A    
C32   C35   S    
C24   Br12  S    
O15   C5    A    
O16   C6    A    
C39   C49   A    
O17   C7    A    
C45   Br7   S    
V2    O20   S    
C27   C30   A    
C28   C29   A    
O16   V4    S    
C11   C13   S    
O18   C8    A    
C12   C15   S    
C10   F6    S    
C50   C51   A    
C49   C52   A    
C5    C29   S    
O5    V1    S    
C21   C23   A    
O6    V2    S    
O10   C6    A    
C31   H5    S    
C9    C14   S    
O2    V4    S    
C32   H6    S    
C12   C14   S    
C11   C16   S    
C13   C15   S    
C1    C36   S    
C14   C16   S    
C18   Br10  S    
C33   C38   S    
C8    C13   S    
C12   Br2   S    
O9    C5    A    
O13   V1    S    
C10   C12   S    
O14   V2    S    
O2    C4    A    
O4    V2    S    
C18   C28   A    
O1    C3    A    
C32   C38   S    
V3    O19   S    
C40   C42   A    
C4    C51   S    
C26   C30   A    
O18   V4    S    
