data_mof_unit_42356.cif
_audit_creation_date              2012-12-11T14:21:09-0500
_audit_creation_method            fapswitch 2.2
_symmetry_space_group_name_H-M    P1
_symmetry_Int_Tables_number       1
_space_group_crystal_system       triclinic
_cell_length_a                    11.647974
_cell_length_b                    11.538432
_cell_length_c                    19.512772
_cell_angle_alpha                 90.018677
_cell_angle_beta                  90.209629
_cell_angle_gamma                 59.432293
_cell_volume                      2258.03275169

loop_
_atom_site_label
_atom_site_type_symbol
_atom_type_description
_atom_site_fract_x
_atom_site_fract_y
_atom_site_fract_z
_atom_type_partial_charge
C1    C     C_R   0.640580 0.117427 0.599155 0.548819
C2    C     C_1   0.641929 0.702901 0.667815 0.007822
C3    C     C_1   0.126499 0.198838 0.859370 0.004016
C4    C     C_1   0.171744 0.169991 0.727715 -0.030372
C5    C     C_1   0.150132 0.182208 0.799007 -0.030030
C6    C     C_1   0.195644 0.160566 0.667347 0.003659
C7    C     C_1   0.677828 0.192029 0.860785 0.001829
C8    C     C_1   0.658663 0.167330 0.728902 -0.030243
C9    C     C_1   0.665177 0.181534 0.800267 -0.030703
C10   C     C_1   0.653421 0.149460 0.668495 0.002341
C11   C     C_R   0.670361 0.647960 0.199998 -0.060994
C12   C     C_R   0.612778 0.745532 0.598399 0.539389
C13   C     C_R   0.548142 0.687545 0.233092 -0.014574
C14   C     C_R   0.549392 0.655852 0.302843 -0.001528
C15   C     C_R   0.777566 0.608583 0.311532 0.306144
C16   C     C_R   0.786346 0.601910 0.240193 -0.137181
C17   C     C_R   0.426001 0.752926 0.197573 -0.074575
C18   C     C_R   0.312276 0.765548 0.226640 -0.145028
C19   C     C_R   0.316716 0.714886 0.291689 -0.138349
C20   C     C_R   0.435373 0.653451 0.330145 0.058482
C21   C     C_R   0.655427 0.649624 0.342626 0.020888
C22   C     C_R   0.175907 0.176997 0.183591 -0.003620
C23   C     C_R   0.241241 0.145243 0.598160 0.564347
C24   C     C_R   0.251241 0.233321 0.206146 0.030797
C25   C     C_R   0.281785 0.227664 0.276853 0.034294
C26   C     C_R   0.208889 0.065054 0.292805 -0.131908
C27   C     C_R   0.159774 0.090129 0.226630 -0.155215
C28   C     C_R   0.287586 0.304061 0.160388 -0.081957
C29   C     C_R   0.323716 0.393334 0.185055 -0.107086
C30   C     C_R   0.331316 0.406527 0.254998 -0.135263
C31   C     C_R   0.319852 0.319495 0.300327 -0.087355
C32   C     C_R   0.265534 0.136217 0.320329 0.007084
C33   C     C_R   0.736097 0.201775 0.205960 0.007316
C34   C     C_R   0.640719 0.105651 0.399114 0.519905
C35   C     C_R   0.812892 0.065521 0.231956 0.049619
C36   C     C_R   0.762720 0.031753 0.288636 0.022416
C37   C     C_R   0.613309 0.269619 0.310861 -0.163575
C38   C     C_R   0.641452 0.302593 0.247494 -0.156846
C39   C     C_R   0.932349 0.959242 0.201858 -0.087524
C40   C     C_R   0.983319 0.825509 0.219539 -0.157383
C41   C     C_R   0.920117 0.792721 0.268250 -0.118170
C42   C     C_R   0.807842 0.893838 0.300697 -0.075334
C43   C     C_R   0.669381 0.136533 0.331282 0.000042
C44   C     C_R   0.081508 0.231118 0.928621 0.544610
C45   C     C_R   0.619256 0.730598 0.405463 0.551674
C46   C     C_R   0.683378 0.604642 0.929655 0.546491
C47   C     C_R   0.708018 0.206739 0.930191 0.557928
C48   C     C_R   0.089260 0.231580 0.123115 0.527076
C49   C     C_R   0.684676 0.607588 0.127560 0.533626
C50   C     C_R   0.745405 0.234525 0.134282 0.554208
C51   C     C_R   0.302536 0.116030 0.393729 0.547809
C52   C     C_1   0.669231 0.647150 0.860229 0.004865
C53   C     C_1   0.655038 0.683031 0.728375 -0.030456
C54   C     C_1   0.662748 0.666951 0.799683 -0.031399
Cr1   Cr    Cr6+3 0.404720 0.198220 0.499960 1.016587
Cr2   Cr    Cr6+3 0.698290 0.897110 0.500380 1.057658
Cr3   Cr    Cr6+3 0.396970 0.904720 0.499610 1.009187
Cr4   Cr    Cr6+3 0.926180 0.151990 0.028120 1.008391
Cr5   Cr    Cr6+3 0.921330 0.451820 0.027470 1.022536
Cr6   Cr    Cr6+3 0.626260 0.446870 0.028710 1.018230
H1    H     H_    0.343474 0.453957 0.150113 0.126983
H2    H     H_    0.355366 0.478684 0.273955 0.114094
H3    H     H_    0.339047 0.330365 0.352897 0.163143
H4    H     H_    0.540336 0.347022 0.342423 0.127645
H5    H     H_    0.989696 0.973841 0.163499 0.142365
H6    H     H_    0.587292 0.406266 0.230268 0.140179
H7    H     H_    0.069852 0.746141 0.193837 0.110676
H8    H     H_    0.960478 0.688369 0.280867 0.194675
H9    H     H_    0.756233 0.862589 0.334359 0.178164
H10   H     H_    0.418057 0.794063 0.146732 0.136843
H11   H     H_    0.883339 0.560774 0.216544 0.162829
H12   H     H_    0.221211 0.812920 0.197434 0.098854
H13   H     H_    0.226947 0.721810 0.311967 0.117756
H14   H     H_    0.191983 0.997713 0.324092 0.154764
H15   H     H_    0.282658 0.295034 0.105383 0.133298
H16   H     H_    0.101886 0.047371 0.210687 0.117816
O1    O     O_R   0.267740 0.231960 0.575440 -0.494371
O2    O     O_R   0.685970 0.784660 0.430010 -0.472531
O3    O     O_R   0.502530 0.767000 0.423990 -0.543514
O4    O     O_R   0.288330 0.026350 0.429250 -0.493932
O5    O     O_3   0.499990 0.000020 0.499980 -0.282054
O6    O     O_R   0.821500 0.119340 0.952830 -0.499699
O7    O     O_R   0.037130 0.162530 0.957360 -0.495341
O8    O     O_R   0.056440 0.344740 0.951340 -0.506836
O9    O     O_R   0.797900 0.560360 0.957470 -0.488862
O10   O     O_R   0.596130 0.579390 0.952730 -0.506115
O11   O     O_R   0.639060 0.321160 0.958670 -0.488965
O12   O     O_R   0.527280 0.186640 0.570530 -0.497512
O13   O     O_R   0.821240 0.124200 0.104370 -0.529384
O14   O     O_R   0.036890 0.167040 0.097840 -0.533308
O15   O     O_R   0.056180 0.349610 0.102880 -0.519712
O16   O     O_R   0.797660 0.564870 0.097950 -0.498566
O17   O     O_R   0.595880 0.584250 0.104270 -0.528678
O18   O     O_R   0.638830 0.325670 0.099150 -0.493954
O19   O     O_3   0.824590 0.350230 0.028100 -0.270727
O20   O     O_R   0.728090 0.003450 0.576380 -0.497112
O21   O     O_R   0.682970 0.789190 0.570490 -0.485405
O22   O     O_R   0.499290 0.771880 0.575530 -0.517097
O23   O     O_R   0.285330 0.030870 0.569730 -0.485939
O24   O     O_R   0.270980 0.227080 0.423890 -0.502877
O25   O     O_R   0.530280 0.182120 0.430050 -0.543977
O26   O     O_R   0.731330 0.998570 0.424830 -0.512786
F1    F     F_    0.887075 0.573488 0.350638 -0.644806
C55   C     C_3   0.428530 0.589340 0.398132 -0.241945
C56   C     C_3   0.560996 0.492748 0.434802 -0.406248
H17   H     H_    0.551391 0.413521 0.461962 0.144716
H18   H     H_    0.645483 0.442526 0.398581 0.155289
H19   H     H_    0.585466 0.545138 0.474732 0.176541
H20   H     H_    0.361363 0.669597 0.434326 0.172505
H21   H     H_    0.376538 0.532692 0.388360 0.099698

loop_
_geom_bond_atom_site_label_1
_geom_bond_atom_site_label_2
_ccdc_geom_bond_type
C25   C31   A    
C23   O23   A    
C26   C32   A    
C41   C42   A    
Cr3   O3    S    
C22   C48   S    
C19   C20   A    
C44   O7    A    
C2    C12   S    
Cr2   O5    S    
C53   C54   S    
C56   H18   S    
C26   C27   A    
C29   C30   A    
C14   C21   A    
C28   C29   A    
Cr4   O6    S    
C30   C31   A    
Cr1   O1    S    
C6    C23   S    
C15   C16   A    
Cr3   O23   S    
C46   C52   S    
Cr2   O2    S    
C7    C9    T    
C18   C19   A    
C47   O6    A    
Cr1   O12   S    
C51   O4    A    
C33   C35   A    
C36   C42   A    
C38   H6    S    
C8    C9    S    
C48   O15   A    
Cr1   O24   S    
C45   O2    A    
Cr1   O5    S    
C12   O22   A    
C46   O9    A    
Cr6   O17   S    
C25   C32   A    
C17   H10   S    
C48   O14   A    
C13   C14   A    
C39   H5    S    
Cr3   O4    S    
C16   H11   S    
Cr5   O19   S    
Cr2   O21   S    
C55   C56   S    
Cr6   O11   S    
C52   C54   T    
C41   H8    S    
C21   C45   S    
C18   H12   S    
C56   H19   S    
C29   H1    S    
C3    C44   S    
C34   O25   A    
C34   C43   S    
C14   C20   A    
C19   H13   S    
Cr5   O8    S    
C4    C6    T    
C39   C40   A    
Cr6   O10   S    
C50   O18   A    
Cr5   O15   S    
C44   O8    A    
C33   C50   S    
C40   H7    S    
C42   H9    S    
C23   O1    A    
C35   C36   A    
C47   O11   A    
C37   C43   A    
C35   C39   A    
Cr4   O19   S    
Cr5   O9    S    
C32   C51   S    
C37   C38   A    
C11   C49   S    
C31   H3    S    
C11   C16   A    
C50   O13   A    
C17   C18   A    
C45   O3    A    
C34   O26   A    
C24   C25   A    
Cr4   O14   S    
C12   O21   A    
C40   C41   A    
C22   C27   A    
C30   H2    S    
C22   C24   A    
C49   O16   A    
C27   H16   S    
C37   H4    S    
C51   O24   A    
Cr2   O20   S    
C1    C10   S    
C24   C28   A    
C4    C5    S    
C3    C5    T    
C2    C53   T    
C20   C55   S    
C56   H17   S    
Cr1   O25   S    
C33   C38   A    
C13   C17   A    
C49   O17   A    
Cr2   O26   S    
Cr4   O7    S    
C55   H21   S    
C11   C13   A    
C55   H20   S    
C1    O12   A    
C1    O20   A    
Cr3   O22   S    
C26   H14   S    
Cr3   O5    S    
Cr5   O16   S    
Cr4   O13   S    
Cr6   O19   S    
C15   C21   A    
C8    C10   T    
C36   C43   A    
C15   F1    S    
C28   H15   S    
C7    C47   S    
C46   O10   A    
Cr6   O18   S    
