data_mof_unit_51884.cif
_audit_creation_date              2012-10-26T21:02:57-0400
_audit_creation_method            fapswitch 2.2
_symmetry_space_group_name_H-M    P1
_symmetry_Int_Tables_number       1
_space_group_crystal_system       triclinic
_cell_length_a                    12.318626
_cell_length_b                    12.997862
_cell_length_c                    23.512398
_cell_angle_alpha                 77.704912
_cell_angle_beta                  100.99328
_cell_angle_gamma                 116.222854
_cell_volume                      3279.68836718

loop_
_atom_site_label
_atom_site_type_symbol
_atom_type_description
_atom_site_fract_x
_atom_site_fract_y
_atom_site_fract_z
_atom_type_partial_charge
C1    C     C_R   0.855250 0.284956 0.505336 0.535478
C2    C     C_R   0.019095 0.596271 0.871184 0.400476
C3    C     C_R   0.905487 0.517481 0.749147 -0.057320
C4    C     C_R   0.999150 0.499562 0.608950 0.545253
C5    C     C_R   0.907143 0.518884 0.689841 -0.150266
C6    C     C_R   0.997159 0.498503 0.671460 0.002564
C7    C     C_R   0.085193 0.476615 0.713432 -0.145193
C8    C     C_R   0.083324 0.475307 0.772634 -0.058312
C9    C     C_R   0.993559 0.495685 0.790719 0.240491
C10   C     C_R   0.090008 0.475047 0.251361 -0.062012
C11   C     C_R   0.089756 0.476126 0.310499 -0.144709
C12   C     C_R   0.950389 0.286449 0.049105 0.127322
C13   C     C_R   0.001189 0.498877 0.328677 0.004052
C14   C     C_R   0.912975 0.520370 0.286662 -0.148543
C15   C     C_R   0.913452 0.519224 0.227594 -0.056546
C16   C     C_R   0.144705 0.714313 0.491907 0.551470
C17   C     C_R   0.001955 0.496688 0.209724 0.240327
C18   C     C_R   0.274866 0.030808 0.427559 0.139893
C19   C     C_R   0.226648 0.837638 0.481705 -0.027475
C20   C     C_R   0.815156 0.073584 0.540755 0.039685
C21   C     C_R   0.730633 0.958519 0.553925 0.109714
C22   C     C_R   0.607189 0.928093 0.536572 -0.123416
C23   C     C_R   0.946319 0.288002 0.988980 -0.119088
C24   C     C_R   0.564198 0.008845 0.502460 0.005459
C25   C     C_R   0.650530 0.121883 0.483812 -0.001064
C26   C     C_R   0.438014 0.979412 0.484683 0.007346
C27   C     C_R   0.400320 0.059823 0.445145 0.079479
C28   C     C_R   0.000489 0.499885 0.391076 0.549080
C29   C     C_R   0.488683 0.165106 0.421727 -0.124152
C30   C     C_R   0.611202 0.194500 0.439826 -0.120278
C31   C     C_R   0.348103 0.871218 0.504517 -0.144104
C32   C     C_R   0.189137 0.918244 0.444750 -0.117371
C33   C     C_R   0.774462 0.158537 0.508218 -0.033286
C34   C     C_R   0.969731 0.390804 0.949529 0.003284
C35   C     C_R   0.347830 0.328729 0.594059 -0.138847
C36   C     C_R   0.759076 0.645843 0.420693 0.039270
C37   C     C_R   0.661755 0.676793 0.402826 -0.167070
C38   C     C_R   0.558040 0.621081 0.432286 -0.146208
C39   C     C_R   0.550600 0.533493 0.480513 -0.012797
C40   C     C_R   0.028645 0.597007 0.110890 0.396638
C41   C     C_R   0.652877 0.504662 0.497228 0.174644
C42   C     C_R   0.446447 0.474129 0.512974 -0.021119
C43   C     C_R   0.447066 0.387543 0.561092 0.027590
C44   C     C_R   0.547036 0.360534 0.576469 -0.176177
C45   C     C_R   0.997066 0.494132 0.970402 -0.038281
C46   C     C_R   0.647597 0.417992 0.545486 -0.102189
C47   C     C_R   0.341103 0.496770 0.500279 0.032853
C48   C     C_R   0.248076 0.355980 0.579704 0.079005
C49   C     C_R   0.974747 0.393206 0.130201 0.406977
C50   C     C_R   0.975232 0.389789 0.070566 0.048053
C51   C     C_R   0.999765 0.493844 0.030775 -0.059534
C52   C     C_R   0.026888 0.598088 0.051087 0.029662
C53   C     C_3   0.041375 0.165313 0.110203 -0.256781
C54   C     C_3   0.232459 0.197563 0.420693 -0.286338
C55   C     C_2   0.944370 0.100269 0.562374 0.256592
C56   C     C_R   0.021645 0.597984 0.930880 0.034616
C57   C     C_3   0.805706 0.817832 0.549799 -0.282250
C58   C     C_R   0.048932 0.700973 0.951854 -0.123296
C59   C     C_R   0.051568 0.701032 0.011313 -0.121995
C60   C     C_R   0.967594 0.393059 0.889388 0.399476
Cu1   Cu    Cu3+1 0.098270 0.475410 0.513370 0.956950
Cu2   Cu    Cu3+1 0.901730 0.524590 0.486630 0.904872
H1    H     H_    0.158836 0.459231 0.341867 0.123475
H2    H     H_    0.171527 0.311380 0.605225 0.129810
H3    H     H_    0.548072 0.294472 0.613305 0.118268
H4    H     H_    0.347745 0.262500 0.630944 0.103301
H5    H     H_    0.332486 0.560695 0.464373 0.118646
H6    H     H_    0.839145 0.689627 0.397544 0.128781
H7    H     H_    0.485600 0.648670 0.416607 0.105977
H8    H     H_    0.666778 0.744321 0.366028 0.116208
H9    H     H_    0.719534 0.391497 0.561386 0.184248
H10   H     H_    0.068313 0.781891 0.922421 0.167095
H11   H     H_    0.072748 0.782059 0.025962 0.164874
H12   H     H_    0.843522 0.537980 0.299352 0.128459
H13   H     H_    0.835670 0.533063 0.762877 0.131519
H14   H     H_    0.838013 0.535789 0.658511 0.126260
H15   H     H_    0.155611 0.460588 0.700613 0.128648
H16   H     H_    0.151937 0.458858 0.804551 0.131369
H17   H     H_    0.158797 0.457734 0.237791 0.123872
H18   H     H_    0.864545 0.108525 0.070157 0.249105
H19   H     H_    0.083229 0.158177 0.074139 0.127781
H20   H     H_    0.019672 0.084715 0.142361 0.160528
H21   H     H_    0.107696 0.239453 0.132798 0.175819
H22   H     H_    0.154855 0.075344 0.364135 0.255885
H23   H     H_    0.844849 0.535563 0.195623 0.131169
H24   H     H_    0.164561 0.154309 0.452848 0.207413
H25   H     H_    0.206676 0.261208 0.388452 0.147271
H26   H     H_    0.323345 0.245418 0.443893 0.160759
H27   H     H_    0.970484 0.079860 0.608668 0.114367
H28   H     H_    0.709481 0.811626 0.614402 0.252666
H29   H     H_    0.726687 0.769927 0.519453 0.151668
H30   H     H_    0.839530 0.755589 0.578087 0.155060
H31   H     H_    0.879914 0.883759 0.524066 0.184302
H32   H     H_    0.094024 0.893093 0.428076 0.119586
H33   H     H_    0.463879 0.224990 0.388386 0.148189
H34   H     H_    0.369713 0.809000 0.536938 0.126169
H35   H     H_    0.548368 0.838099 0.548081 0.107696
H36   H     H_    0.926740 0.208154 0.973479 0.161497
H37   H     H_    0.674754 0.273594 0.417197 0.154422
N1    N     N_R   0.002248 0.495692 0.148868 -0.406860
N2    N     N_R   0.992556 0.494841 0.851704 -0.396582
N3    N     N_R   0.246280 0.438190 0.533650 -0.227581
N4    N     N_R   0.754320 0.561190 0.466710 -0.237034
N5    N     N_2   0.930882 0.180479 0.087319 -0.455398
N6    N     N_2   0.234871 0.112478 0.390579 -0.537879
N7    N     N_2   0.769472 0.872092 0.585877 -0.533000
O1    O     O_R   0.972510 0.318130 0.516820 -0.448195
O2    O     O_R   0.082990 0.479280 0.429170 -0.500293
O3    O     O_R   0.917010 0.520800 0.406580 -0.513028
O4    O     O_2   0.056814 0.696539 0.131105 -0.503680
O5    O     O_2   0.020605 0.137043 0.528069 -0.529095
O6    O     O_2   0.944797 0.295162 0.169268 -0.463792
O7    O     O_2   0.940352 0.294318 0.868630 -0.501716
O8    O     O_2   0.044252 0.695314 0.832973 -0.499121
O9    O     O_R   0.806530 0.359650 0.494230 -0.529508
O10   O     O_R   0.082990 0.479200 0.593420 -0.508281
O11   O     O_R   0.917010 0.520720 0.570830 -0.523262
O12   O     O_R   0.193470 0.640350 0.505770 -0.506581
O13   O     O_R   0.027490 0.681870 0.483180 -0.503824

loop_
_geom_bond_atom_site_label_1
_geom_bond_atom_site_label_2
_ccdc_geom_bond_type
C32   H32   S    
C8    H16   S    
C57   H30   S    
C27   C29   A    
C2    O8    S    
C19   C31   A    
C60   O7    S    
C1    C33   S    
C7    C8    A    
C39   C41   A    
C54   H25   S    
C12   C23   A    
C26   C27   A    
C29   C30   A    
H18   N5    S    
C36   N4    A    
C14   H12   S    
C36   C37   A    
C24   C26   A    
C12   N5    S    
C11   H1    S    
C5    C6    A    
C48   H2    S    
C19   C32   A    
C10   C17   A    
C31   H34   S    
C53   H19   S    
Cu1   O2    S    
Cu2   O11   S    
C45   C56   A    
C8    C9    A    
C41   C46   A    
C13   C28   S    
C13   C14   A    
C35   C43   A    
C59   H11   S    
C21   N7    S    
C7    H15   S    
C57   N7    S    
C38   H7    S    
C26   C31   A    
C47   N3    A    
C57   H31   S    
C21   C22   A    
C34   C60   A    
C44   H3    S    
C20   C55   S    
C35   C48   A    
C47   H5    S    
C44   C46   A    
C50   C51   A    
C39   C42   A    
C51   C52   A    
C24   C25   A    
H28   N7    S    
C4    C6    S    
C16   O13   A    
C29   H33   S    
C40   O4    S    
C2    N2    A    
C58   C59   A    
C40   C52   A    
C30   H37   S    
C41   N4    A    
C53   H20   S    
C43   C44   A    
C37   C38   A    
C3    C9    A    
C52   C59   A    
C16   O12   A    
C23   C34   A    
C48   N3    A    
Cu1   O10   S    
H22   N6    S    
C46   H9    S    
C34   C45   A    
Cu2   O13   S    
C1    O1    A    
C49   O6    S    
C20   C33   A    
C22   C24   A    
C4    O11   A    
C18   C32   A    
C42   C43   A    
C60   N2    A    
C3    H13   S    
C54   H24   S    
Cu2   N4    S    
C25   C30   A    
C15   C17   A    
C57   H29   S    
C54   N6    S    
C55   O5    D    
Cu1   O12   S    
C4    O10   A    
C18   C27   A    
C3    C5    A    
C40   N1    A    
C12   C50   A    
C10   H17   S    
C36   H6    S    
C6    C7    A    
C28   O3    A    
C1    O9    A    
C35   H4    S    
C15   H23   S    
C53   H21   S    
C5    H14   S    
Cu1   N3    S    
C18   N6    S    
Cu2   O9    S    
C55   H27   S    
C2    C56   A    
C49   N1    A    
C54   H26   S    
C11   C13   A    
C58   H10   S    
C38   C39   A    
Cu2   O3    S    
C28   O2    A    
C16   C19   S    
C56   C58   A    
C42   C47   A    
Cu1   Cu2   S    
Cu1   O1    S    
C17   N1    S    
C10   C11   A    
C23   H36   S    
C20   C21   A    
C9    N2    S    
C49   C50   A    
C22   H35   S    
C45   C51   A    
C14   C15   A    
C53   N5    S    
C37   H8    S    
C25   C33   A    
