data_mof_unit_34411.cif
_audit_creation_date              2013-03-05T16:50:11-0500
_audit_creation_method            fapswitch 2.2
_symmetry_space_group_name_H-M    P1
_symmetry_Int_Tables_number       1
_space_group_crystal_system       triclinic
_cell_length_a                    27.818081
_cell_length_b                    10.855636
_cell_length_c                    26.534514
_cell_angle_alpha                 89.886239
_cell_angle_beta                  90.53482
_cell_angle_gamma                 86.860026
_cell_volume                      8000.56765401

loop_
_atom_site_label
_atom_site_type_symbol
_atom_site_description
_atom_site_fract_x
_atom_site_fract_y
_atom_site_fract_z
_atom_type_partial_charge
O1    O     O_R   0.500000 0.319660 0.542350 -0.551359
O2    O     O_R   0.500000 0.680340 0.457650 -0.563987
O3    O     O_R   0.500000 0.319630 0.457650 -0.545664
O4    O     O_R   0.500000 0.680370 0.542350 -0.542077
C1    C     C_R   0.498251 0.262298 0.499885 0.820846
C2    C     C_R   0.501798 0.737683 0.500124 0.822255
O5    O     O_R   0.430260 0.500030 0.542340 -0.551220
O6    O     O_R   0.569740 0.499970 0.457660 -0.549473
O7    O     O_R   0.430270 0.500010 0.457650 -0.549275
O8    O     O_R   0.569730 0.499990 0.542350 -0.549722
C3    C     C_R   0.407303 0.500316 0.499866 0.853612
C4    C     C_R   0.592663 0.499637 0.500157 0.856445
Cu1   Cu    Cu3+1 0.500000 0.500020 0.550150 1.062882
Cu2   Cu    Cu3+1 0.500000 0.499980 0.449850 1.055953
O9    O     O_2   0.414805 0.455433 0.784909 -0.452825
O10   O     O_2   0.587029 0.527281 0.214143 -0.438140
C5    C     C_R   0.419366 0.427451 0.056475 -0.192264
C6    C     C_R   0.577253 0.585527 0.944156 -0.193690
C7    C     C_R   0.180426 0.388628 0.498203 0.607020
C8    C     C_R   0.819654 0.604423 0.504846 0.609059
O11   O     O_2   0.207698 0.283088 0.492167 -0.492170
O12   O     O_2   0.792371 0.711052 0.506324 -0.491930
N1    N     N_R   0.201979 0.498122 0.503289 -0.455140
N2    N     N_R   0.798076 0.494497 0.502125 -0.456289
C9    C     C_R   0.175580 0.606314 0.510856 0.603297
C10   C     C_R   0.824516 0.384613 0.501907 0.604792
C11   C     C_R   0.277435 0.505916 0.454872 0.414917
C12   C     C_R   0.720957 0.507149 0.454580 0.407540
C13   C     C_R   0.327792 0.506741 0.454666 -0.195721
C14   C     C_R   0.670606 0.509262 0.454892 -0.288129
C15   C     C_R   0.329761 0.495344 0.545905 -0.185776
C16   C     C_R   0.671640 0.483917 0.545642 -0.086436
C17   C     C_R   0.279775 0.494785 0.546456 -0.165051
C18   C     C_R   0.721690 0.482551 0.545753 -0.142529
C19   C     C_R   0.253418 0.499502 0.501306 0.240345
C20   C     C_R   0.746568 0.494428 0.500577 0.236067
C21   C     C_R   0.101958 0.496361 0.505782 -0.039504
C22   C     C_R   0.898168 0.494834 0.504950 -0.040760
C23   C     C_R   0.130049 0.385738 0.499182 -0.031084
C24   C     C_R   0.870050 0.606696 0.506085 -0.030517
C25   C     C_R   0.107393 0.275080 0.493240 -0.117635
C26   C     C_R   0.892679 0.718182 0.508017 -0.118138
C27   C     C_R   0.125121 0.607589 0.511934 -0.021296
C28   C     C_R   0.875017 0.382724 0.503043 -0.024485
C29   C     C_R   0.354292 0.500855 0.500014 -0.118389
C30   C     C_R   0.645630 0.497886 0.500307 -0.119463
H1    H     H_    0.349161 0.491064 0.581497 0.190277
H2    H     H_    0.653342 0.474143 0.581054 0.237674
H3    H     H_    0.261335 0.490182 0.582120 0.162925
H4    H     H_    0.741318 0.472531 0.581091 0.168403
H5    H     H_    0.128168 0.188935 0.487566 0.196372
H6    H     H_    0.871865 0.805521 0.508301 0.193801
C31   C     C_R   0.977070 0.381448 0.503107 0.046527
C32   C     C_R   0.023089 0.608873 0.511316 0.047148
C33   C     C_R   0.972002 0.608991 0.509017 0.044746
C34   C     C_R   0.028130 0.382224 0.501285 0.043654
C35   C     C_R   0.949295 0.495087 0.505733 0.075981
C36   C     C_R   0.050845 0.495794 0.506178 0.075664
C37   C     C_R   0.952543 0.270516 0.502531 -0.189471
C38   C     C_R   0.047660 0.718329 0.518768 -0.191180
C39   C     C_R   0.902601 0.271446 0.502396 -0.122310
C40   C     C_R   0.097592 0.717444 0.518951 -0.126559
H7    H     H_    0.384930 0.408628 0.040364 0.147783
H8    H     H_    0.609536 0.617964 0.960993 0.146660
H9    H     H_    0.438343 0.659738 0.717288 0.164642
H10   H     H_    0.561250 0.338869 0.282815 0.167205
O13   O     O_2   0.801955 0.277728 0.500214 -0.502372
O14   O     O_2   0.198137 0.712373 0.516750 -0.509076
C41   C     C_R   0.057534 0.273091 0.494165 -0.188278
C42   C     C_R   0.942554 0.719617 0.509332 -0.188534
H11   H     H_    0.650833 0.520275 0.419704 0.206964
H12   H     H_    0.346344 0.511580 0.419184 0.247450
H13   H     H_    0.885663 0.183916 0.501684 0.189139
H14   H     H_    0.114560 0.803945 0.524510 0.187572
H15   H     H_    0.970785 0.180496 0.502951 0.136956
H16   H     H_    0.029478 0.806794 0.525393 0.136758
H17   H     H_    0.043264 0.184103 0.488118 0.143096
H18   H     H_    0.956780 0.809826 0.509574 0.139430
H19   H     H_    0.402689 0.264837 0.288926 0.194944
H20   H     H_    0.599541 0.729885 0.709140 0.195025
C43   C     C_R   0.394704 0.238613 0.369356 0.461257
C44   C     C_R   0.606248 0.757273 0.628659 0.456946
C45   C     C_R   0.416416 0.187615 0.413005 -0.094680
C46   C     C_R   0.584132 0.810192 0.585596 -0.111645
H21   H     H_    0.397731 0.196136 0.448587 0.134828
H22   H     H_    0.602104 0.801341 0.549621 0.139004
C47   C     C_R   0.461592 0.123587 0.410723 0.064890
C48   C     C_R   0.539369 0.875938 0.588890 0.043277
C49   C     C_R   0.485074 0.111106 0.364292 -0.123837
C50   C     C_R   0.516783 0.888565 0.635803 -0.103366
H23   H     H_    0.519766 0.061177 0.361896 0.142881
H24   H     H_    0.482395 0.939634 0.638977 0.155911
C51   C     C_R   0.463864 0.163064 0.320745 -0.162006
C52   C     C_R   0.538448 0.834948 0.678807 -0.170691
H25   H     H_    0.482193 0.153640 0.285044 0.168152
H26   H     H_    0.520798 0.844397 0.714883 0.176730
C53   C     C_R   0.418895 0.226501 0.323108 -0.170662
C54   C     C_R   0.582969 0.769633 0.675402 -0.203476
C55   C     C_R   0.486903 0.935521 0.457238 -0.179586
C56   C     C_R   0.513171 0.064441 0.542882 -0.182419
H27   H     H_    0.475676 0.886086 0.424261 0.205116
H28   H     H_    0.524258 0.113887 0.575953 0.224635
C57   C     C_R   0.503054 0.871392 0.500423 -0.093483
C58   C     C_R   0.497081 0.128579 0.499624 -0.098017
C59   C     C_R   0.517296 0.936566 0.543603 0.011679
C60   C     C_R   0.483017 0.063334 0.456392 0.011212
H29   H     H_    0.385517 0.397935 0.963421 0.136791
H30   H     H_    0.618231 0.563442 0.034864 0.138175
C61   C     C_R   0.466212 0.441105 0.187835 0.549972
C62   C     C_R   0.532019 0.564712 0.812406 0.549005
O15   O     O_2   0.427201 0.409095 0.213592 -0.547288
O16   O     O_2   0.569953 0.604609 0.786971 -0.561711
N3    N     N_R   0.507080 0.469678 0.213562 -0.448689
N4    N     N_R   0.492432 0.528721 0.786354 -0.445697
C63   C     C_R   0.547411 0.499331 0.187809 0.604002
C64   C     C_R   0.453226 0.489961 0.811676 0.607087
C65   C     C_R   0.535917 0.405702 0.299613 -0.328585
C66   C     C_R   0.463944 0.593707 0.700413 -0.337698
C67   C     C_R   0.532710 0.416567 0.352803 0.549123
C68   C     C_R   0.467263 0.583301 0.647224 0.537032
C69   C     C_R   0.470134 0.574038 0.343287 0.401754
C70   C     C_R   0.530127 0.426384 0.656680 0.491348
C71   C     C_R   0.473491 0.563924 0.290695 -0.254170
C72   C     C_R   0.526916 0.436824 0.709289 -0.235814
C73   C     C_R   0.505816 0.479477 0.268231 0.238487
C74   C     C_R   0.494207 0.520269 0.731719 0.230991
C75   C     C_R   0.504680 0.478917 0.107370 -0.119539
C76   C     C_R   0.494602 0.516873 0.892466 -0.120364
C77   C     C_R   0.464208 0.445765 0.134746 -0.007030
C78   C     C_R   0.533840 0.559396 0.865497 -0.004574
C79   C     C_R   0.421992 0.420232 0.108765 -0.125762
C80   C     C_R   0.574492 0.594903 0.891921 -0.132899
C81   C     C_R   0.547283 0.504032 0.134088 -0.083889
C82   C     C_R   0.453319 0.483188 0.865357 -0.083975
N5    N     N_R   0.500000 0.499970 0.374520 -0.241942
N6    N     N_R   0.500000 0.500030 0.625480 -0.251217
H31   H     H_    0.450215 0.622226 0.266566 0.215644
H32   H     H_    0.550306 0.378935 0.733462 0.211034
H33   H     H_    0.390211 0.395373 0.128893 0.194719
H34   H     H_    0.604809 0.630157 0.872214 0.188802
C83   C     C_R   0.457086 0.466664 0.973374 -0.001589
C84   C     C_R   0.542701 0.524148 0.026267 -0.001778
C85   C     C_R   0.539474 0.538857 0.972658 0.081310
C86   C     C_R   0.459144 0.460132 0.027334 0.079957
C87   C     C_R   0.496995 0.507536 0.946355 0.070904
C88   C     C_R   0.502224 0.487600 0.053467 0.071319
C89   C     C_R   0.416303 0.433205 0.945308 -0.294433
C90   C     C_R   0.585507 0.543348 0.053697 -0.296024
C91   C     C_R   0.413911 0.441208 0.892374 0.457843
C92   C     C_R   0.588200 0.534365 0.106595 0.459859
O17   O     O_3   0.437834 0.657848 0.616541 -0.682652
H35   H     H_    0.416835 0.713131 0.637622 0.302961
O18   O     O_3   0.562149 0.342108 0.383514 -0.683029
H36   H     H_    0.583238 0.286993 0.362455 0.303705
O19   O     O_3   0.349653 0.297165 0.372865 -0.688799
H37   H     H_    0.339466 0.328012 0.339003 0.371898
O20   O     O_3   0.650740 0.696242 0.624062 -0.729113
H38   H     H_    0.661149 0.663336 0.657548 0.335637
O21   O     O_3   0.373190 0.407496 0.866670 -0.659207
H39   H     H_    0.348893 0.380841 0.890904 0.324177
O22   O     O_3   0.630819 0.554613 0.131756 -0.646161
H40   H     H_    0.655813 0.575514 0.107249 0.328849
S1    S     S_3+6 0.424269 0.685174 0.362098 0.026894
O23   O     O_2   0.377488 0.643663 0.341284 -0.251021
O24   O     O_2   0.418251 0.707936 0.417285 -0.275767
O25   O     O_3   0.434787 0.820127 0.334056 -0.507640
H41   H     H_    0.470034 0.827688 0.336800 0.314115
S2    S     S_3+6 0.575369 0.313495 0.637869 -0.006271
O26   O     O_2   0.581957 0.293185 0.582595 -0.295317
O27   O     O_2   0.622438 0.349705 0.660103 -0.310679
O28   O     O_3   0.561828 0.178845 0.664278 -0.566611
H42   H     H_    0.589557 0.120820 0.656754 0.381074
S3    S     S_3+6 0.751017 0.521508 0.396598 0.064742
O29   O     O_2   0.773410 0.644264 0.394904 -0.200102
O30   O     O_2   0.790104 0.421111 0.391828 -0.259658
O31   O     O_3   0.712329 0.512981 0.347779 -0.478144
H43   H     H_    0.703479 0.425820 0.347111 0.354081
S4    S     S_3+6 0.245325 0.509759 0.396967 0.072343
O32   O     O_2   0.228632 0.383135 0.386076 -0.188063
O33   O     O_2   0.202011 0.598486 0.399896 -0.275215
O34   O     O_3   0.280484 0.552277 0.349521 -0.473043
H44   H     H_    0.280569 0.643323 0.351929 0.388966

loop_
_geom_bond_atom_site_label_1
_geom_bond_atom_site_label_2
_geom_bond_distance
_ccdc_geom_bond_type
C45   C47   1.404275 A    
O28   H42   0.990872 S    
O20   H38   0.991746 S    
C51   C53   1.396534 A    
C11   C13   1.401418 A    
C44   C54   1.407757 A    
C84   C88   1.417428 A    
C41   H17   1.076093 S    
S1    O23   1.501143 D    
C11   S4    1.769307 S    
C56   C58   1.398468 A    
C9    C27   1.403547 A    
C58   C60   1.412739 A    
C14   H11   1.082304 S    
C31   C37   1.416266 A    
C10   C28   1.403903 A    
C23   C25   1.395324 A    
C32   C38   1.416162 A    
S3    O29   1.502353 D    
O5    C3    1.290116 A    
C56   C59   1.386706 A    
N2    C20   1.433109 S    
C5    C86   1.416360 A    
O1    C1    1.290288 A    
C10   O13   1.349700 S    
C72   H32   1.084231 S    
C6    C85   1.415899 A    
S1    O24   1.494949 D    
C46   H22   1.083719 S    
C65   C67   1.419752 A    
N4    C74   1.453921 S    
C12   S3    1.768607 S    
C71   C73   1.387854 A    
C42   H18   1.076127 S    
Cu2   N5    1.998845 S    
C52   C54   1.396744 A    
C17   H3    1.082974 S    
C69   S1    1.782738 S    
C26   C42   1.388479 A    
C38   C40   1.388476 A    
C37   C39   1.388771 A    
O4    Cu1   1.968314 S    
C55   C60   1.385897 A    
C75   C81   1.414910 A    
C17   C19   1.398123 A    
C6    C80   1.390644 A    
S2    O28   1.682467 S    
C8    N2    1.366578 A    
H10   C65   1.082970 S    
O17   H35   0.991640 S    
C15   C17   1.391066 A    
C49   H23   1.083112 S    
C62   N4    1.370134 A    
C21   C36   1.422350 A    
C61   N3    1.370995 A    
C13   H12   1.080442 S    
C24   C26   1.395240 A    
C1    C58   1.453782 S    
C67   O18   1.378558 S    
C15   H1    1.083000 S    
Cu1   Cu2   2.661415 S    
C16   H2    1.080622 S    
O2    C2    1.290470 A    
C9    O14   1.349754 S    
O8    C4    1.293644 A    
H30   C90   1.075090 S    
C43   C45   1.400193 A    
H19   C53   1.081388 S    
C50   C52   1.396514 A    
C66   C68   1.419536 A    
S3    O30   1.503130 D    
C18   H4    1.082932 S    
C70   S2    1.783272 S    
S4    O34   1.680683 S    
S4    O32   1.502530 D    
S1    O25   1.682929 S    
C86   C88   1.424914 A    
C55   C57   1.397316 A    
C83   C86   1.433886 A    
C44   O20   1.378041 S    
C31   C35   1.421475 A    
C7    N1    1.366638 A    
C76   C87   1.433953 A    
C63   C81   1.426239 A    
C39   H13   1.083598 S    
O34   H44   0.990683 S    
C82   C91   1.411186 A    
C38   H16   1.076146 S    
C67   N5    1.378913 A    
C13   C29   1.404768 A    
N4    C64   1.371418 A    
C68   N6    1.378790 A    
C16   C18   1.391518 A    
C21   C27   1.408476 A    
C78   C80   1.397509 A    
O7    Cu2   1.952670 S    
C75   C77   1.408308 A    
C22   C28   1.408540 A    
C76   C82   1.414798 A    
C5    C79   1.390561 A    
C22   C35   1.422352 A    
H29   C89   1.074203 S    
C50   H24   1.083088 S    
O21   H39   0.991411 S    
O6    C4    1.290168 A    
C56   H28   1.080859 S    
C57   C59   1.412715 A    
C33   C35   1.421445 A    
C2    C57   1.453866 S    
C69   N5    1.391005 A    
C64   C82   1.426129 A    
C52   H26   1.082397 S    
C91   O21   1.383576 S    
C84   C90   1.415200 A    
C70   N6    1.392093 A    
O3    Cu2   1.968316 S    
C7    C23   1.403939 A    
C90   C92   1.407810 A    
C4    C30   1.472487 S    
S2    O26   1.495075 D    
C45   H21   1.083704 S    
C25   H5    1.083581 S    
C48   C50   1.403189 A    
H9    C66   1.082970 S    
C44   C46   1.399913 A    
O7    C3    1.294653 A    
C61   C77   1.409955 A    
O25   H41   0.990406 S    
Cu1   N6    1.998845 S    
C3    C29   1.474392 S    
O4    C2    1.283242 A    
O1    Cu1   1.969240 S    
C70   C72   1.404040 A    
O10   C63   1.348347 S    
C37   H15   1.076151 S    
C72   C74   1.387329 A    
C32   C36   1.421418 A    
C31   C34   1.422140 A    
C85   C87   1.424330 A    
C92   O22   1.383473 S    
C32   C33   1.421820 A    
O31   H43   0.990809 S    
C68   O17   1.378524 S    
O6    Cu2   1.949140 S    
H20   C54   1.081249 S    
C84   C85   1.432530 A    
C16   C30   1.401648 A    
C14   C30   1.405210 A    
C81   C92   1.411324 A    
C46   C48   1.404469 A    
C8    O12   1.349788 S    
O3    C1    1.283439 A    
O8    Cu1   1.952668 S    
C76   C78   1.408947 A    
S4    O33   1.503484 D    
C83   C87   1.418081 A    
C28   C39   1.395387 A    
C80   H34   1.083509 S    
C89   C91   1.407819 A    
C71   H31   1.084194 S    
N1    C19   1.433295 S    
C43   O19   1.377831 S    
S2    O27   1.503305 D    
C11   C19   1.410488 A    
C61   O15   1.348979 S    
C21   C23   1.408548 A    
O22   H40   0.991408 S    
C5    H7    1.075325 S    
C22   C24   1.408498 A    
C48   C59   1.480865 S    
N2    C10   1.366717 A    
C6    H8    1.076051 S    
C47   C60   1.480617 S    
C43   C53   1.407983 A    
C8    C24   1.403565 A    
C12   C14   1.399690 A    
S3    O31   1.682328 S    
C34   C36   1.421472 A    
C62   C78   1.410116 A    
C18   C20   1.398999 A    
N1    C9    1.366831 A    
C49   C51   1.396312 A    
O2    Cu2   1.969240 S    
C62   O16   1.348651 S    
C69   C71   1.403635 A    
C33   C42   1.416241 A    
C79   H33   1.083544 S    
C83   C89   1.415641 A    
C75   C88   1.433970 A    
C77   C79   1.397341 A    
O5    Cu1   1.949140 S    
N3    C73   1.455326 S    
C12   C20   1.410171 A    
C51   H25   1.082388 S    
C34   C41   1.416314 A    
C15   C29   1.404191 A    
O19   H37   0.991677 S    
C47   C49   1.403183 A    
O9    C64   1.348367 S    
C40   H14   1.083589 S    
C66   C74   1.394677 A    
N3    C63   1.371971 A    
O18   H36   0.991647 S    
C25   C41   1.388777 A    
C65   C73   1.395294 A    
C55   H27   1.079966 S    
C27   C40   1.395275 A    
C26   H6    1.083597 S    
C7    O11   1.349689 S    
