data_mof_unit_54631.cif
_audit_creation_date              2012-10-26T21:20:05-0400
_audit_creation_method            fapswitch 2.2
_symmetry_space_group_name_H-M    P1
_symmetry_Int_Tables_number       1
_space_group_crystal_system       triclinic
_cell_length_a                    13.000005
_cell_length_b                    10.783454
_cell_length_c                    9.544375
_cell_angle_alpha                 89.386329
_cell_angle_beta                  97.0064
_cell_angle_gamma                 91.173817
_cell_volume                      1327.66234489

loop_
_atom_site_label
_atom_site_type_symbol
_atom_type_description
_atom_site_fract_x
_atom_site_fract_y
_atom_site_fract_z
_atom_type_partial_charge
C1    C     C_R   0.502758 0.262516 0.500850 0.544825
C2    C     C_R   0.699851 0.504181 0.527881 0.540825
C3    C     C_R   0.813706 0.510969 0.546630 0.008217
C4    C     C_R   0.186294 0.489031 0.453370 0.008218
C5    C     C_R   0.018131 0.436245 0.325336 -0.103018
C6    C     C_R   0.981869 0.563756 0.674663 -0.103017
C7    C     C_R   0.126638 0.440374 0.329832 0.005200
C8    C     C_R   0.873362 0.559625 0.670168 0.005200
C9    C     C_R   0.136766 0.529883 0.566295 -0.127000
C10   C     C_R   0.863234 0.470118 0.433704 -0.127000
C11   C     C_R   0.029721 0.523434 0.560488 0.023785
C12   C     C_R   0.497242 0.737484 0.499150 0.544824
C13   C     C_R   0.970279 0.476567 0.439511 0.023785
C14   C     C_R   0.572560 0.063895 0.424882 -0.009746
C15   C     C_R   0.427439 0.936105 0.575117 -0.009746
C16   C     C_R   0.566003 0.935022 0.423660 -0.123848
C17   C     C_R   0.433996 0.064977 0.576339 -0.123848
C18   C     C_3   0.821286 0.608427 0.793048 -0.262705
C19   C     C_3   0.891916 0.672520 0.911885 -0.453488
C20   C     C_3   0.178715 0.391567 0.206955 -0.262705
C21   C     C_3   0.108085 0.327469 0.088122 -0.453487
C22   C     C_3   0.655504 0.127367 0.349386 -0.267663
C23   C     C_R   0.495070 0.871315 0.498234 0.014179
C24   C     C_3   0.623070 0.132376 0.190226 -0.401167
C25   C     C_3   0.344496 0.872632 0.650613 -0.267666
C26   C     C_3   0.376925 0.867634 0.809774 -0.401172
C27   C     C_R   0.504929 0.128685 0.501765 0.014180
C28   C     C_R   0.436552 0.420964 0.065900 -0.012070
C29   C     C_R   0.563448 0.579036 0.934100 -0.012067
C30   C     C_R   0.435917 0.420839 0.917736 0.333889
C31   C     C_R   0.564083 0.579161 0.082264 0.333889
C32   C     C_R   0.300149 0.495819 0.472118 0.540824
Cl1   Cl    Cl    0.349690 0.316153 0.822651 -0.660712
Cl2   Cl    Cl    0.650310 0.683847 0.177349 -0.660712
Cu1   Cu    Cu3+1 0.500000 0.500020 0.640660 0.985105
Cu2   Cu    Cu3+1 0.500000 0.499980 0.359340 0.985104
H1    H     H_    0.818083 0.432488 0.340076 0.132907
H2    H     H_    0.934469 0.752222 0.869744 0.151696
H3    H     H_    0.843941 0.708405 0.990595 0.186434
H4    H     H_    0.762618 0.677144 0.750742 0.161614
H5    H     H_    0.781754 0.529672 0.841784 0.172817
H6    H     H_    0.065530 0.247770 0.130268 0.151695
H7    H     H_    0.052715 0.394269 0.033052 0.146484
H8    H     H_    0.156060 0.291577 0.009416 0.186431
H9    H     H_    0.218246 0.470321 0.158215 0.172817
H10   H     H_    0.237383 0.322852 0.249264 0.161613
H11   H     H_    0.612981 0.037115 0.146846 0.171248
H12   H     H_    0.181916 0.567515 0.659923 0.132907
H13   H     H_    0.549155 0.182399 0.165832 0.180271
H14   H     H_    0.683904 0.182009 0.138042 0.135857
H15   H     H_    0.673917 0.222594 0.389021 0.158363
H16   H     H_    0.728969 0.075684 0.370902 0.139236
H17   H     H_    0.316095 0.817995 0.861961 0.135858
H18   H     H_    0.450845 0.817623 0.834173 0.180271
H19   H     H_    0.387003 0.962896 0.853147 0.171249
H20   H     H_    0.271028 0.924311 0.629090 0.139235
H21   H     H_    0.326086 0.777403 0.610985 0.158368
H22   H     H_    0.969452 0.401259 0.233769 0.111714
H23   H     H_    0.030548 0.598741 0.766231 0.111714
H24   H     H_    0.618940 0.883880 0.367773 0.179964
H25   H     H_    0.381058 0.116120 0.632226 0.179964
H26   H     H_    0.386518 0.357126 0.115201 0.131322
H27   H     H_    0.613482 0.642874 0.884798 0.131322
H28   H     H_    0.947287 0.605718 0.966949 0.146483
N1    N     N_R   0.500030 0.500030 0.852080 -0.244068
N2    N     N_R   0.499970 0.499970 0.147920 -0.244069
O1    O     O_R   0.499990 0.319660 0.618740 -0.445393
O2    O     O_R   0.500010 0.680340 0.381260 -0.445393
O3    O     O_R   0.499990 0.319630 0.381170 -0.523186
O4    O     O_R   0.500010 0.680370 0.618830 -0.523184
O5    O     O_R   0.349000 0.499990 0.599490 -0.452010
O6    O     O_R   0.651000 0.500010 0.400510 -0.452010
O7    O     O_R   0.348990 0.499960 0.361920 -0.529876
O8    O     O_R   0.651010 0.500040 0.638080 -0.529877

loop_
_geom_bond_atom_site_label_1
_geom_bond_atom_site_label_2
_ccdc_geom_bond_type
C31   N2    A    
C28   N2    A    
C29   H27   S    
Cu1   O8    S    
C19   H2    S    
C14   C27   A    
C32   O5    A    
C21   H8    S    
C11   C13   A    
C24   H13   S    
Cu2   N2    S    
C5    C13   A    
C20   H9    S    
C2    O8    A    
C25   H20   S    
Cu1   O1    S    
C19   H28   S    
C17   H25   S    
C26   H19   S    
C14   C22   S    
C15   C23   A    
C2    C3    S    
C25   C26   S    
C31   Cl2   S    
Cu1   O5    S    
C29   C31   A    
C3    C10   A    
Cu2   O2    S    
C1    O3    A    
C9    C11   A    
C12   C23   S    
C4    C32   S    
C25   H21   S    
C5    H22   S    
C4    C7    A    
C29   N1    A    
C19   H3    S    
C28   C30   A    
C1    O1    A    
C18   C19   S    
C16   C23   A    
C14   C16   A    
C10   H1    S    
C3    C8    A    
C24   H14   S    
Cu2   O3    S    
C22   C24   S    
C15   C25   S    
C30   N1    A    
C8    C18   S    
Cu2   O7    S    
Cu1   N1    S    
Cu2   O6    S    
C21   H6    S    
C17   C27   A    
C26   H17   S    
C26   H18   S    
C6    C11   A    
C2    O6    A    
C20   C21   S    
C9    H12   S    
C15   C17   A    
C7    C20   S    
C16   H24   S    
C18   H5    S    
C32   O7    A    
C1    C27   S    
C18   H4    S    
C12   O4    A    
C5    C7    A    
C6    C8    A    
C30   Cl1   S    
C22   H16   S    
C4    C9    A    
C21   H7    S    
C24   H11   S    
C6    H23   S    
C12   O2    A    
C20   H10   S    
Cu1   Cu2   S    
Cu1   O4    S    
C22   H15   S    
C10   C13   A    
C28   H26   S    
