data_mof_unit_42344.cif
_audit_creation_date              2012-12-10T17:59:15-0500
_audit_creation_method            fapswitch 2.2
_symmetry_space_group_name_H-M    P1
_symmetry_Int_Tables_number       1
_space_group_crystal_system       triclinic
_cell_length_a                    10.822964
_cell_length_b                    9.510397
_cell_length_c                    10.78649
_cell_angle_alpha                 90.30675
_cell_angle_beta                  90.403841
_cell_angle_gamma                 90.029653
_cell_volume                      1110.2171366

loop_
_atom_site_label
_atom_site_type_symbol
_atom_type_description
_atom_site_fract_x
_atom_site_fract_y
_atom_site_fract_z
_atom_type_partial_charge
C1    C     C_R   0.262072 0.499982 0.500459 0.786664
C2    C     C_3   0.491653 0.661282 0.932940 -0.003975
C3    C     C_R   0.063889 0.372466 0.507641 -0.187619
C4    C     C_R   0.063921 0.627604 0.495588 -0.151080
C5    C     C_R   0.936111 0.372463 0.507175 -0.176009
C6    C     C_R   0.936153 0.627604 0.495140 -0.167828
C7    C     C_R   0.871780 0.500006 0.500456 -0.017944
C8    C     C_R   0.128251 0.500007 0.501369 -0.008252
C9    C     C_R   0.415430 0.073983 0.431194 -0.027598
C10   C     C_R   0.415319 0.925084 0.431334 -0.019846
C11   C     C_R   0.585269 0.926027 0.567931 -0.009394
C12   C     C_R   0.584921 0.074895 0.568470 -0.015808
C13   C     C_R   0.498870 0.499955 0.260128 0.808991
C14   C     C_R   0.737938 0.500001 0.499730 0.808030
C15   C     C_R   0.500895 0.500895 0.739910 0.799406
C16   C     C_3   0.381727 0.420041 0.070462 -0.203245
C17   C     C_3   0.619695 0.430998 0.074012 -0.238230
C18   C     C_3   0.380966 0.419596 0.924470 -0.011819
C19   C     C_3   0.612169 0.416752 0.930698 0.037701
C20   C     C_3   0.491881 0.655435 0.075782 -0.421791
C21   C     C_3   0.498041 0.501140 0.122273 -0.053558
C22   C     C_3   0.498444 0.504011 0.877529 -0.058107
Cu1   Cu    Cu3+1 0.500020 0.640660 0.500000 0.953595
Cu2   Cu    Cu3+1 0.500020 0.359340 0.500000 0.946795
H1    H     H_    0.654103 0.870203 0.621392 0.139166
H2    H     H_    0.652829 0.131365 0.623452 0.129128
H3    H     H_    0.388199 0.308812 0.101458 0.107166
H4    H     H_    0.626104 0.323198 0.113532 0.122331
H5    H     H_    0.391855 0.307897 0.894247 0.141703
H6    H     H_    0.586120 0.304366 0.916797 0.117739
H7    H     H_    0.408451 0.707763 0.114949 0.173846
H8    H     H_    0.570736 0.716326 0.116181 0.186008
H9    H     H_    0.111983 0.272786 0.512825 0.149179
H10   H     H_    0.112028 0.727321 0.490852 0.149251
H11   H     H_    0.887997 0.272770 0.512138 0.149810
H12   H     H_    0.888073 0.727313 0.490285 0.150567
H13   H     H_    0.347863 0.129763 0.375845 0.119042
H14   H     H_    0.347656 0.868561 0.376099 0.121446
N1    N     N_R   0.500030 0.852070 0.500030 -0.161666
N2    N     N_R   0.500030 0.147930 0.500030 -0.162211
O1    O     O_R   0.319660 0.618740 0.499990 -0.588677
O2    O     O_R   0.319660 0.381260 0.499990 -0.593474
O3    O     O_R   0.499990 0.618790 0.317690 -0.584225
O4    O     O_R   0.499990 0.381210 0.317690 -0.593371
O5    O     O_R   0.680370 0.618830 0.500010 -0.596479
O6    O     O_R   0.680370 0.381170 0.500010 -0.585067
O7    O     O_R   0.500030 0.618780 0.682310 -0.590985
O8    O     O_R   0.500030 0.381220 0.682310 -0.577201
C23   C     C_1   0.266072 0.476467 0.124452 0.302705
N3    N     N_1   0.175985 0.520523 0.166820 -0.272914
C24   C     C_1   0.731790 0.505490 0.118443 0.274285
N4    N     N_1   0.819267 0.563319 0.154230 -0.274176
N5    N     N_2   0.263569 0.467400 0.870453 -0.389535
H15   H     H_    0.270432 0.518692 0.786941 0.254478
C25   C     C_3   0.165950 0.363074 0.863923 -0.656639
H16   H     H_    0.187099 0.283836 0.790992 0.214072
H17   H     H_    0.077409 0.415261 0.839877 0.232308
H18   H     H_    0.154741 0.308826 0.953987 0.236405
N6    N     N_2   0.730919 0.420200 0.865817 -0.439318
H19   H     H_    0.792569 0.345110 0.896691 0.254846
C26   C     C_3   0.790840 0.547725 0.826217 -0.599995
H20   H     H_    0.879630 0.520699 0.781150 0.203093
H21   H     H_    0.812396 0.616949 0.906205 0.256234
H22   H     H_    0.734706 0.601347 0.754927 0.232793
C27   C     C_1   0.378550 0.736182 0.892038 0.265882
N7    N     N_1   0.290634 0.795702 0.860322 -0.285406
C28   C     C_1   0.592750 0.755803 0.895316 0.236873
N8    N     N_1   0.669662 0.834185 0.867920 -0.338103

loop_
_geom_bond_atom_site_label_1
_geom_bond_atom_site_label_2
_ccdc_geom_bond_type
C2    C22   S    
C26   H22   S    
C25   H16   S    
C12   N2    A    
C6    C7    A    
Cu1   O5    S    
C7    C14   S    
C1    C8    S    
Cu2   O2    S    
C9    C10   A    
N5    C25   S    
Cu1   O1    S    
C15   O7    A    
C10   H14   S    
C2    C27   S    
Cu2   O6    S    
C17   C24   S    
C16   H3    S    
C9    H13   S    
C13   C21   S    
N6    H19   S    
C14   O6    A    
C18   H5    S    
N5    H15   S    
C16   C23   S    
C11   N1    A    
C19   H6    S    
C16   C21   S    
C15   O8    A    
Cu1   N1    S    
C5    H11   S    
C4    C6    A    
Cu2   N2    S    
C6    H12   S    
C27   N7    T    
C14   O5    A    
C5    C7    A    
C25   H17   S    
C20   H8    S    
C26   H20   S    
Cu2   O4    S    
C23   N3    T    
C4    H10   S    
N6    C26   S    
Cu1   O7    S    
C11   H1    S    
Cu1   Cu2   S    
C2    C20   S    
C24   N4    T    
Cu2   O8    S    
C2    C28   S    
C1    O2    A    
C13   O3    A    
C19   C22   S    
Cu1   O3    S    
C20   C21   S    
C16   C18   S    
C3    C8    A    
C15   C22   S    
C25   H18   S    
C1    O1    A    
C4    C8    A    
C26   H21   S    
C3    H9    S    
C17   C19   S    
C18   N5    S    
C19   N6    S    
C13   O4    A    
C18   C22   S    
C17   H4    S    
C9    N2    A    
C17   C21   S    
C28   N8    T    
C11   C12   A    
C12   H2    S    
C10   N1    A    
C3    C5    A    
C20   H7    S    
