data_mof_unit_42347.cif
_audit_creation_date              2012-12-11T20:00:43-0500
_audit_creation_method            fapswitch 2.2
_symmetry_space_group_name_H-M    P1
_symmetry_Int_Tables_number       1
_space_group_crystal_system       triclinic
_cell_length_a                    8.249958
_cell_length_b                    16.200344
_cell_length_c                    27.100691
_cell_angle_alpha                 72.375151
_cell_angle_beta                  96.780141
_cell_angle_gamma                 95.875839
_cell_volume                      3419.39685192

loop_
_atom_site_label
_atom_site_type_symbol
_atom_type_description
_atom_site_fract_x
_atom_site_fract_y
_atom_site_fract_z
_atom_type_partial_charge
Ba1   Ba    Ba6+2 0.337820 0.939830 0.518500 1.637519
Ba2   Ba    Ba6+2 0.851970 0.060110 0.481480 1.635041
C1    C     C_3   0.083525 0.530222 0.602628 -0.389274
C2    C     C_R   0.445131 0.398757 0.188986 0.573439
C3    C     C_2   0.280621 0.278758 0.279401 -0.089006
C4    C     C_3   0.599715 0.605310 0.622674 0.401331
C5    C     C_3   0.273814 0.247714 0.337471 -0.046140
C6    C     C_1   0.473385 0.143618 0.341122 0.027983
C7    C     C_2   0.513015 0.188657 0.293331 -0.117491
C8    C     C_2   0.408302 0.259314 0.258711 0.195629
C9    C     C_R   0.522388 0.405011 0.103541 -0.079641
C10   C     C_R   0.523703 0.313737 0.120423 -0.033042
C11   C     C_R   0.563291 0.271618 0.085787 -0.063601
C12   C     C_3   0.079285 0.626192 0.597772 0.385254
C13   C     C_R   0.482285 0.447393 0.138213 -0.024503
C14   C     C_2   0.354518 0.164312 0.363038 -0.285598
C15   C     C_2   0.835841 0.834785 0.636851 -0.274518
C16   C     C_3   0.671033 0.518672 0.629144 -0.370416
C17   C     C_R   0.641952 0.459138 0.966230 0.020160
C18   C     C_R   0.594229 0.594917 0.983935 0.020142
C19   C     C_R   0.637204 0.551219 0.949627 0.049626
C20   C     C_R   0.687302 0.419191 0.930635 -0.102497
C21   C     C_R   0.725249 0.467332 0.880921 -0.063568
C22   C     C_R   0.720285 0.557851 0.863969 -0.024604
C23   C     C_3   0.080693 0.014593 0.646619 0.294460
C24   C     C_R   0.676138 0.600129 0.898113 -0.079861
C25   C     C_R   0.671489 0.691232 0.880759 -0.037353
C26   C     C_R   0.711224 0.738664 0.829704 0.597544
C27   C     C_R   0.758771 0.606327 0.813351 0.574549
C28   C     C_3   0.603144 0.884910 0.389734 0.310559
C29   C     C_2   0.919721 0.726486 0.722103 -0.100381
C30   C     C_3   0.920150 0.752575 0.663741 -0.051387
C31   C     C_1   0.718531 0.856755 0.658945 0.038077
C32   C     C_2   0.682170 0.813360 0.707395 -0.105397
C33   C     C_2   0.791437 0.745488 0.742827 0.192085
C34   C     C_3   0.083171 0.975805 0.705266 -0.357866
C35   C     C_R   0.602024 0.410197 0.017469 0.020387
C36   C     C_R   0.560731 0.453955 0.051975 0.049113
C37   C     C_R   0.557252 0.546100 0.035531 0.020107
C38   C     C_R   0.601504 0.318364 0.035709 -0.100022
C39   C     C_R   0.480540 0.538073 0.121650 -0.061954
C40   C     C_3   0.592327 0.814436 0.362765 -0.391706
C41   C     C_R   0.589841 0.686518 0.965090 -0.099245
C42   C     C_R   0.627621 0.733201 0.914913 -0.061059
C43   C     C_R   0.516930 0.586224 0.071731 -0.102157
C44   C     C_2   0.401458 0.245354 0.512935 -0.290439
C45   C     C_3   0.649117 0.359998 0.368169 0.340521
C46   C     C_R   0.803365 0.759099 0.490910 -0.296609
C47   C     C_2   0.254980 0.312931 0.562827 -0.127676
C48   C     C_2   0.269233 0.245357 0.545172 0.043910
C49   C     C_2   0.508094 0.314169 0.498895 0.004922
C50   C     C_3   0.465209 0.399564 0.503817 -0.041784
C51   C     C_3   0.378849 0.389287 0.552635 -0.004174
C52   C     C_3   0.599239 0.116203 0.609968 0.314581
C53   C     C_2   0.604860 0.466017 0.500396 -0.072194
C54   C     C_2   0.572856 0.549287 0.484264 -0.082050
C55   C     C_R   0.840882 0.617316 0.456161 0.003057
C56   C     C_3   0.670846 0.433930 0.318588 -0.315198
C57   C     C_R   0.703025 0.618469 0.481504 -0.045086
C58   C     C_R   0.955713 0.688133 0.446367 -0.142540
C59   C     C_R   0.933294 0.760403 0.462111 0.069694
C60   C     C_R   0.684251 0.689914 0.499070 -0.009928
C61   C     C_3   0.640154 0.189976 0.634235 -0.378516
C62   C     C_3   0.111835 0.991842 0.357020 0.323466
C63   C     C_3   0.079414 0.034805 0.298331 -0.220029
C64   C     C_3   0.193277 0.008366 0.265621 -0.200087
C65   C     C_3   0.164783 0.912960 0.267258 -0.347244
C66   C     C_3   0.550244 0.612146 0.674135 -0.155633
C67   C     C_3   0.129461 0.380364 0.394391 0.356935
C68   C     C_3   0.449788 0.533066 0.705563 -0.326431
C69   C     C_3   0.116550 0.476607 0.386508 -0.369647
C70   C     C_R   0.484408 0.266217 0.171452 0.592247
H1    H     H_    0.136727 0.664572 0.562091 0.099233
H2    H     H_    0.244821 0.991465 0.368530 -0.002089
H3    H     H_    0.056564 0.031492 0.376783 0.062838
H4    H     H_    0.208870 0.514197 0.599984 0.151414
H5    H     H_    0.098389 0.106271 0.290672 0.059010
H6    H     H_    0.949324 0.020597 0.285397 0.131935
H7    H     H_    0.002871 0.514482 0.570405 0.071002
H8    H     H_    0.952031 0.013866 0.629433 0.014765
H9    H     H_    0.150893 0.973808 0.631645 0.072028
H10   H     H_    0.007992 0.013073 0.721202 0.136523
H11   H     H_    0.032710 0.907302 0.715005 0.069669
H12   H     H_    0.675814 0.833220 0.331276 0.128607
H13   H     H_    0.210840 0.977702 0.723479 0.132812
H14   H     H_    0.040674 0.489532 0.640287 0.113152
H15   H     H_    0.769666 0.505980 0.661569 0.097913
H16   H     H_    0.708897 0.303352 0.365339 0.095767
H17   H     H_    0.516451 0.343065 0.371400 -0.051702
H18   H     H_    0.796823 0.465168 0.319124 0.142717
H19   H     H_    0.650611 0.407889 0.284844 0.121459
H20   H     H_    0.582514 0.483541 0.314268 0.120174
H21   H     H_    0.259538 0.370995 0.391848 -0.058610
H22   H     H_    0.094235 0.343783 0.433909 0.073166
H23   H     H_    0.627428 0.752178 0.390728 0.063716
H24   H     H_    0.203607 0.498308 0.415376 0.067972
H25   H     H_    0.991010 0.488970 0.391893 0.150644
H26   H     H_    0.146993 0.514768 0.346784 0.119148
H27   H     H_    0.622431 0.175212 0.279344 0.131391
H28   H     H_    0.565072 0.201540 0.097317 0.119239
H29   H     H_    0.005748 0.680686 0.745757 0.120150
H30   H     H_    0.759012 0.432708 0.855576 0.120414
H31   H     H_    0.695867 0.350296 0.939796 0.068330
H32   H     H_    0.629384 0.279677 0.012220 0.067944
H33   H     H_    0.197172 0.326319 0.256111 0.118324
H34   H     H_    0.465110 0.804912 0.345844 0.114377
H35   H     H_    0.450685 0.572796 0.147474 0.120151
H36   H     H_    0.556958 0.724956 0.988032 0.068097
H37   H     H_    0.698695 0.657424 0.611200 -0.058387
H38   H     H_    0.622123 0.803099 0.902926 0.121349
H39   H     H_    0.571101 0.825328 0.721153 0.129182
H40   H     H_    0.512806 0.655347 0.063045 0.067690
H41   H     H_    0.335050 0.131764 0.403440 0.081462
H42   H     H_    0.850280 0.864555 0.595838 0.082153
H43   H     H_    0.162261 0.309782 0.588746 0.076511
H44   H     H_    0.057092 0.688194 0.424404 0.091485
H45   H     H_    0.467043 0.111986 0.598189 -0.007392
H46   H     H_    0.420012 0.185527 0.504859 0.063965
H47   H     H_    0.787807 0.815212 0.503189 0.070798
H48   H     H_    0.728553 0.447217 0.514404 0.096143
H49   H     H_    0.574719 0.464409 0.636997 0.120211
H50   H     H_    0.446890 0.566490 0.473991 0.103764
H51   H     H_    0.722938 0.520784 0.592888 0.088127
H52   H     H_    0.522659 0.864011 0.421989 0.063779
H53   H     H_    0.204133 0.870253 0.306405 0.153430
H54   H     H_    0.033514 0.896768 0.257007 0.130439
H55   H     H_    0.238175 0.900356 0.238826 0.114345
H56   H     H_    0.669611 0.129982 0.575578 0.071075
H57   H     H_    0.171016 0.048817 0.224574 0.139048
H58   H     H_    0.323029 0.022395 0.278611 0.145273
H59   H     H_    0.949267 0.640937 0.593254 -0.080251
H60   H     H_    0.346826 0.512640 0.680873 0.155631
H61   H     H_    0.528165 0.477885 0.723283 0.122167
H62   H     H_    0.400005 0.549499 0.737476 0.132092
H63   H     H_    0.662891 0.621546 0.698401 0.112094
H64   H     H_    0.482130 0.671133 0.666054 0.146741
H65   H     H_    0.731045 0.895138 0.405117 0.010611
H66   H     H_    0.565346 0.180214 0.667296 0.125532
H67   H     H_    0.614674 0.253054 0.605140 0.058978
H68   H     H_    0.771966 0.192078 0.648490 0.127557
N1    N     N_R   0.446539 0.308592 0.205637 -0.420476
N2    N     N_R   0.753787 0.696377 0.796076 -0.420033
O1    O     O_2   0.431310 0.922990 0.623550 -0.458147
O2    O     O_2   0.846217 0.307183 0.503795 -0.486464
O3    O     O_3   0.721336 0.386499 0.410880 -0.601720
O4    O     O_3   0.663280 0.983100 0.563360 -0.499786
O5    O     O_3   0.016420 0.932050 0.462720 -0.489554
O6    O     O_2   0.959730 0.164640 0.549160 -0.455433
O7    O     O_3   0.151218 0.099979 0.635359 -0.640198
O8    O     O_2   0.926965 0.213405 0.327871 -0.500002
O9    O     O_3   0.024678 0.353430 0.356312 -0.595284
O10   O     O_2   0.481574 0.186997 0.185007 -0.611629
O11   O     O_2   0.795860 0.567502 0.784576 -0.625644
O12   O     O_3   0.041038 0.906454 0.370093 -0.644012
O13   O     O_2   0.412542 0.437377 0.218506 -0.622072
O14   O     O_2   0.710162 0.817751 0.815641 -0.596595
O15   O     O_3   0.126250 0.812630 0.574830 -0.484876
O16   O     O_2   0.267731 0.783889 0.671401 -0.493528
O17   O     O_3   0.639170 0.038582 0.647176 -0.626486
O18   O     O_3   0.163967 0.645293 0.641799 -0.592175
O19   O     O_2   0.229950 0.835370 0.450810 -0.461155
O20   O     O_3   0.517580 0.797570 0.545130 -0.475136
O21   O     O_2   0.346789 0.696881 0.492428 -0.500381
O22   O     O_3   0.462081 0.615056 0.585825 -0.590186
O23   O     O_2   0.758370 0.077020 0.376420 -0.459299
O24   O     O_3   0.526390 0.016840 0.436620 -0.496509
O25   O     O_3   0.063420 0.187310 0.425160 -0.474483
O26   O     O_3   0.553175 0.961127 0.353116 -0.636703
O27   O     O_3   0.173250 0.067890 0.537260 -0.479461
O28   O     O_3   0.672100 0.202370 0.454860 -0.490810
P1    P     P_3+3 0.610630 0.953360 0.619150 0.993660
P2    P     P_3+3 0.057260 0.861390 0.437850 0.975387
P3    P     P_3+3 0.502474 0.699663 0.529687 0.947133
P4    P     P_3+3 0.579040 0.046590 0.380840 0.980625
P5    P     P_3+3 0.687898 0.302471 0.467731 0.944708
P6    P     P_3+3 0.121966 0.750360 0.639479 0.952089
P7    P     P_3+3 0.142343 0.145185 0.567812 0.950646
P8    P     P_3+3 0.069583 0.248309 0.360249 0.941919

loop_
_geom_bond_atom_site_label_1
_geom_bond_atom_site_label_2
_ccdc_geom_bond_type
C53   C54   D    
C45   O3    S    
O6    P7    D    
C23   H8    S    
C45   H17   S    
C61   H68   S    
C19   C24   A    
C1    H7    S    
C14   H41   S    
C43   H40   S    
C12   H59   S    
O20   P3    S    
C3    H33   S    
O5    P2    S    
O26   P4    S    
C30   P6    S    
C24   C25   A    
O17   P1    S    
C29   H29   S    
C17   C19   A    
C22   C24   A    
C32   C33   S    
C35   C38   A    
C67   H21   S    
C65   H53   S    
C36   C37   A    
C6    P4    S    
C55   C57   A    
C21   H30   S    
C52   C61   S    
C34   H11   S    
Ba2   O6    S    
C62   O12   S    
C44   H46   S    
C23   O7    S    
Ba1   Ba2   S    
C53   H48   S    
C67   C69   S    
C22   C27   A    
C11   C38   A    
C17   C35   A    
C52   O17   S    
O19   P2    D    
C9    C13   A    
C25   C42   A    
O3    P5    S    
C34   H10   S    
C6    C7    D    
C70   O10   D    
C68   H61   S    
C21   C22   A    
C7    C8    S    
Ba2   O24   S    
C50   C53   S    
C16   H51   S    
C37   C43   A    
C64   H57   S    
C4    C66   S    
C64   C65   S    
C10   C70   A    
Ba1   O19   S    
C6    C14   D    
C28   H65   S    
O4    P1    S    
C1    H14   S    
C23   H9    S    
C32   H39   S    
O18   P6    S    
Ba1   O4    S    
C15   C31   D    
O27   P7    S    
C15   H42   S    
C31   C32   D    
C46   H47   S    
O28   P5    S    
C70   N1    Am   
C4    C16   S    
C69   H26   S    
O24   P4    S    
C63   H5    S    
C40   H23   S    
C67   O9    S    
C12   H1    S    
C66   H64   S    
C17   C20   A    
C40   H12   S    
C13   C39   A    
C67   H22   S    
C65   H54   S    
C2    N1    Am   
C3    C5    S    
C18   C37   A    
C55   C58   A    
C69   H24   S    
C33   N2    S    
O23   P4    D    
C60   P3    S    
C52   H56   S    
C44   C49   D    
Ba1   P1    S    
C20   H31   S    
C49   C50   S    
C5    P8    S    
C12   O18   S    
C58   C59   A    
C8    N1    S    
C54   H50   S    
C9    C36   A    
C41   C42   A    
C35   C36   A    
Ba1   O1    S    
C65   H55   S    
C38   H32   S    
C69   H25   S    
C46   C60   A    
C29   C30   S    
C26   O14   D    
C48   P7    S    
C68   H60   S    
O7    P7    S    
O12   P2    S    
O22   P3    S    
C59   P2    S    
C10   C11   A    
C49   P5    S    
C1    H4    S    
C40   H34   S    
Ba2   O23   S    
C1    C12   S    
C56   H18   S    
O16   P6    D    
C5    C14   S    
C47   H43   S    
Ba2   O28   S    
Ba1   O20   S    
C47   C48   D    
C4    H37   S    
C29   C33   D    
C58   H44   S    
C26   N2    Am   
Ba2   O4    S    
O21   P3    D    
C18   C41   A    
C50   C51   S    
C27   O11   D    
C56   H19   S    
C15   C30   S    
C57   C60   A    
C39   C43   A    
C63   H6    S    
C39   H35   S    
C23   C34   S    
C61   H67   S    
C66   H63   S    
C4    O22   S    
O9    P8    S    
C2    O13   D    
O15   P6    S    
C9    C10   A    
C34   H13   S    
C28   H52   S    
C16   H49   S    
C44   C48   S    
Ba1   P2    S    
C16   H15   S    
C54   C57   S    
O8    P8    D    
C45   H16   S    
C11   H28   S    
Ba1   O15   S    
Ba2   O5    S    
O1    P1    D    
C3    C8    D    
C62   C63   S    
C45   C56   S    
C46   C59   A    
Ba1   O24   S    
C2    C13   A    
C47   C51   S    
C27   N2    Am   
O2    P5    D    
Ba1   O27   S    
C61   H66   S    
C62   H3    S    
C41   H36   S    
Ba1   O5    S    
Ba2   O27   S    
C28   O26   S    
O25   P8    S    
C18   C19   A    
C7    H27   S    
C63   C64   S    
C52   H45   S    
C25   C26   A    
C68   H62   S    
C66   C68   S    
C62   H2    S    
C20   C21   A    
C28   C40   S    
C56   H20   S    
Ba2   O25   S    
Ba2   P4    S    
C42   H38   S    
C64   H58   S    
C31   P1    S    
