data_mof_unit_10051.cif
_audit_creation_date              2012-10-26T19:56:13-0400
_audit_creation_method            fapswitch 2.2
_symmetry_space_group_name_H-M    P1
_symmetry_Int_Tables_number       1
_space_group_crystal_system       triclinic
_cell_length_a                    11.160321
_cell_length_b                    10.586195
_cell_length_c                    9.687707
_cell_angle_alpha                 90.884575
_cell_angle_beta                  90.395331
_cell_angle_gamma                 90.808024
_cell_volume                      1144.27818001

loop_
_atom_site_label
_atom_site_type_symbol
_atom_type_description
_atom_site_fract_x
_atom_site_fract_y
_atom_site_fract_z
_atom_type_partial_charge
C1    C     C_R   0.500524 0.260282 0.499331 0.548319
C2    C     C_3   0.424324 0.037268 0.405627 -0.076787
C3    C     C_3   0.505145 0.877066 0.501659 0.032345
C4    C     C_3   0.502618 0.122764 0.498990 0.031737
C5    C     C_3   0.394342 0.955888 0.532190 -0.112009
C6    C     C_3   0.613825 0.044159 0.468606 -0.135669
C7    C     C_3   0.583935 0.572324 0.051654 0.053801
C8    C     C_3   0.415524 0.428693 0.946355 -0.021776
C9    C     C_3   0.484216 0.610955 0.953496 0.303404
C10   C     C_3   0.514736 0.389055 0.045359 0.328423
C11   C     C_3   0.598768 0.459399 0.947070 0.019710
C12   C     C_R   0.502616 0.739628 0.500779 0.560133
C13   C     C_3   0.400119 0.540795 0.051372 -0.037490
C14   C     C_R   0.262498 0.492292 0.498933 0.546915
C15   C     C_R   0.737617 0.490874 0.501404 0.544005
C16   C     C_R   0.121648 0.564605 0.016835 -0.110865
C17   C     C_R   0.822836 0.209210 0.878523 -0.121288
C18   C     C_R   0.101468 0.575571 0.157617 -0.080581
C19   C     C_R   0.850219 0.260086 0.751116 -0.163629
C20   C     C_R   0.109851 0.468764 0.239766 0.035233
C21   C     C_R   0.883538 0.388008 0.742939 0.013525
C22   C     C_R   0.149513 0.353414 0.184330 0.296990
C23   C     C_R   0.873075 0.470150 0.504579 0.019893
C24   C     C_R   0.882019 0.467340 0.858223 0.284692
C25   C     C_R   0.162275 0.340392 0.042210 0.242521
C26   C     C_R   0.859130 0.415478 0.986838 0.219308
C27   C     C_R   0.148947 0.447217 0.959162 -0.167247
C28   C     C_R   0.827812 0.286256 0.996364 -0.111742
C29   C     C_R   0.932077 0.439043 0.384065 0.066091
C30   C     C_R   0.068690 0.416723 0.609331 -0.031486
C31   C     C_3   0.893664 0.309459 0.330568 -0.340672
C32   C     C_3   0.121152 0.293587 0.657896 -0.378099
C33   C     C_R   0.127447 0.471307 0.496904 0.023783
C34   C     C_R   0.941670 0.433926 0.620756 0.018026
C35   C     C_R   0.056009 0.472094 0.375739 0.020231
C36   C     C_3   0.472961 0.043218 0.625848 -0.082792
C37   C     C_3   0.535336 0.956492 0.375107 -0.088414
C38   C     C_3   0.584086 0.962134 0.595149 -0.101581
Cl1   Cl    Cl    0.459670 0.768621 0.899631 -0.554063
Cl2   Cl    Cl    0.532882 0.230214 0.098530 -0.568836
Cl3   Cl    Cl    0.173603 0.222554 0.291444 -0.621690
Cl4   Cl    Cl    0.891320 0.633292 0.836276 -0.560190
Cl5   Cl    Cl    0.197781 0.190962 0.971262 -0.560647
Cl6   Cl    Cl    0.837404 0.520084 0.123788 -0.643292
Cu1   Cu    Cu3+1 0.500030 0.499990 0.643150 1.027738
Cu2   Cu    Cu3+1 0.499970 0.500010 0.356850 1.054459
H1    H     H_    0.169030 0.444195 0.851780 0.155022
H2    H     H_    0.851189 0.199227 0.660217 0.118997
H3    H     H_    0.649351 0.928390 0.672843 0.174352
H4    H     H_    0.361400 0.067719 0.324542 0.240628
H5    H     H_    0.447150 0.081133 0.728798 0.198809
H6    H     H_    0.561018 0.918639 0.272103 0.182452
H7    H     H_    0.304566 0.917082 0.558486 0.158018
H8    H     H_    0.703385 0.083559 0.442322 0.119600
H9    H     H_    0.937921 0.284646 0.233509 0.187120
H10   H     H_    0.919206 0.236577 0.406219 0.129040
H11   H     H_    0.795168 0.302570 0.315624 0.162385
H12   H     H_    0.793790 0.247093 0.090090 0.170738
H13   H     H_    0.079950 0.262197 0.754277 0.189611
H14   H     H_    0.102580 0.218493 0.579224 0.180329
H15   H     H_    0.219373 0.299366 0.674519 0.175046
H16   H     H_    0.643755 0.647523 0.095210 0.204461
H17   H     H_    0.357685 0.358397 0.892970 0.174171
H18   H     H_    0.663253 0.407477 0.886177 0.153125
H19   H     H_    0.327822 0.593147 0.101283 0.144729
H20   H     H_    0.118681 0.647352 0.952893 0.214041
H21   H     H_    0.795967 0.110901 0.885783 0.176185
H22   H     H_    0.073727 0.665249 0.201290 0.177188
N1    N     N_3   0.500090 0.499970 0.858290 -0.280574
N2    N     N_3   0.499910 0.500030 0.141710 -0.262712
O1    O     O_R   0.500060 0.316850 0.620870 -0.533930
O2    O     O_R   0.499940 0.683150 0.379130 -0.518671
O3    O     O_R   0.500000 0.316860 0.379090 -0.429403
O4    O     O_R   0.500000 0.683140 0.620910 -0.427706
O5    O     O_R   0.319670 0.500010 0.620890 -0.509993
O6    O     O_R   0.680330 0.499990 0.379110 -0.457984
O7    O     O_R   0.319620 0.500010 0.379110 -0.497735
O8    O     O_R   0.680380 0.499990 0.620890 -0.487780

loop_
_geom_bond_atom_site_label_1
_geom_bond_atom_site_label_2
_ccdc_geom_bond_type
C4    C36   S    
C8    C13   S    
C12   O4    A    
Cu1   O1    S    
C24   Cl4   S    
C25   Cl5   S    
C14   C33   S    
Cu2   O6    S    
C26   Cl6   S    
C38   H3    S    
C13   H19   S    
Cu1   Cu2   S    
C7    C11   S    
C8    N1    S    
C1    O1    A    
C23   C29   A    
C5    H7    S    
C19   C21   A    
C6    H8    S    
C32   H15   S    
C15   O8    A    
C13   N2    S    
C18   H22   S    
C5    C36   S    
C9    Cl1   S    
C10   Cl2   S    
C14   O7    A    
C9    C13   S    
C3    C12   S    
C2    H4    S    
C33   C35   A    
C20   C35   S    
C3    C38   S    
C22   C25   A    
C6    C38   S    
Cu1   O8    S    
C31   H10   S    
Cu2   O2    S    
C16   C27   A    
C15   C23   S    
C15   O6    A    
C12   O2    A    
C7    N2    S    
C17   H21   S    
C30   C34   A    
Cu1   N1    S    
C4    C6    S    
C11   H18   S    
C37   H6    S    
C19   H2    S    
C21   C34   S    
Cu1   O4    S    
C2    C4    S    
C7    H16   S    
C23   C34   A    
C6    C37   S    
C36   H5    S    
C10   N2    S    
C8    C10   S    
C20   C22   A    
C2    C5    S    
C16   H20   S    
C32   H14   S    
C27   H1    S    
C7    C9    S    
C30   C33   A    
C17   C28   A    
C24   C26   A    
C9    N1    S    
C3    C5    S    
Cu2   O7    S    
C11   N1    S    
C28   H12   S    
C25   C27   A    
C29   C35   A    
C26   C28   A    
Cu1   O5    S    
C1    C4    S    
C1    O3    A    
C14   O5    A    
C31   H11   S    
C36   C38   S    
C29   C31   S    
C30   C32   S    
C2    C37   S    
C17   C19   A    
C18   C20   A    
Cu2   N2    S    
C10   C11   S    
C8    H17   S    
C22   Cl3   S    
C3    C37   S    
C16   C18   A    
C21   C24   A    
C32   H13   S    
C31   H9    S    
Cu2   O3    S    
