data_mof_unit_55026.cif
_audit_creation_date              2012-12-11T17:43:44-0500
_audit_creation_method            fapswitch 2.2
_symmetry_space_group_name_H-M    P1
_symmetry_Int_Tables_number       1
_space_group_crystal_system       triclinic
_cell_length_a                    15.061583
_cell_length_b                    14.953303
_cell_length_c                    16.953364
_cell_angle_alpha                 108.837074
_cell_angle_beta                  106.360002
_cell_angle_gamma                 108.961814
_cell_volume                      3082.44310492

loop_
_atom_site_label
_atom_site_type_symbol
_atom_type_description
_atom_site_fract_x
_atom_site_fract_y
_atom_site_fract_z
_atom_type_partial_charge
C1    C     C_R   0.083726 0.288377 0.081213 -0.142521
C2    C     C_R   0.082530 0.113599 0.133041 -0.232287
C3    C     C_R   0.991404 0.924360 0.079234 0.054993
C4    C     C_R   0.989437 0.111565 0.083309 0.054888
C5    C     C_R   0.083396 0.021834 0.136596 0.029697
C6    C     C_R   0.894252 0.021889 0.053880 0.029309
C7    C     C_R   0.704402 0.949032 0.952360 -0.182809
C8    C     C_R   0.164986 0.987311 0.266678 -0.138260
C9    C     C_R   0.603520 0.033968 0.000523 -0.090799
C10   C     C_R   0.352146 0.065438 0.350053 -0.089242
C11   C     C_R   0.455226 0.572942 0.263389 -0.293139
C12   C     C_R   0.908452 0.722410 0.977657 -0.120042
C13   C     C_R   0.473552 0.280149 0.633791 -0.314017
C14   C     C_R   0.465231 0.558918 0.180886 0.575587
C15   C     C_R   0.469756 0.297230 0.719816 0.580799
C16   C     C_R   0.936901 0.518542 0.745993 -0.144356
C17   C     C_R   0.065244 0.549333 0.264964 -0.138269
C18   C     C_R   0.443144 0.457107 0.118217 -0.036154
C19   C     C_R   0.469478 0.392224 0.772131 -0.012770
C20   C     C_R   0.419709 0.373426 0.142133 -0.261616
C21   C     C_R   0.474067 0.467914 0.739340 -0.255553
C22   C     C_R   0.410163 0.388746 0.224444 -0.107038
C23   C     C_R   0.029042 0.576855 0.744404 0.081767
C24   C     C_R   0.479857 0.450555 0.655426 -0.093444
C25   C     C_R   0.426135 0.487964 0.284168 -0.122792
C26   C     C_R   0.479538 0.356882 0.602770 -0.122233
C27   C     C_R   0.525767 0.425922 0.016118 -0.273505
C28   C     C_R   0.377501 0.422365 0.870980 -0.270155
C29   C     C_R   0.539288 0.419129 0.936821 0.111158
C30   C     C_R   0.368254 0.436456 0.953471 0.091182
C31   C     C_R   0.463020 0.412354 0.861327 0.097815
C32   C     C_R   0.442528 0.436341 0.026389 0.100188
C33   C     C_R   0.610043 0.953822 0.935216 -0.112802
C34   C     C_R   0.974056 0.537008 0.274968 0.068867
C35   C     C_R   0.252467 0.003750 0.337822 -0.097298
C36   C     C_R   0.968471 0.583861 0.362887 0.121023
C37   C     C_R   0.041165 0.615773 0.677339 0.116320
C38   C     C_R   0.147734 0.667224 0.600685 -0.006220
C39   C     C_R   0.868875 0.581482 0.453012 -0.004193
C40   C     C_R   0.779716 0.202630 0.812717 -0.133763
C41   C     C_R   0.279206 0.786067 0.177503 -0.110187
C42   C     C_R   0.138300 0.653487 0.675588 -0.235300
C43   C     C_R   0.872871 0.561136 0.367890 -0.244948
C44   C     C_R   0.954349 0.603442 0.608705 -0.279875
C45   C     C_R   0.764915 0.197111 0.726318 0.044556
C46   C     C_R   0.060414 0.639618 0.444325 -0.281422
C47   C     C_R   0.960200 0.613718 0.531027 0.110372
C48   C     C_R   0.057464 0.644067 0.526488 0.111083
C49   C     C_R   0.723738 0.100855 0.640082 0.137049
C50   C     C_R   0.442774 0.858211 0.324758 0.147517
C51   C     C_R   0.594512 0.028636 0.393053 -0.248290
C52   C     C_R   0.613464 0.911493 0.555691 -0.231465
C53   C     C_R   0.501218 0.948202 0.318307 -0.185143
C54   C     C_R   0.685394 0.000821 0.638294 -0.186633
C55   C     C_R   0.485437 0.843406 0.401482 -0.325846
C56   C     C_R   0.334543 0.784232 0.256954 0.081309
C57   C     C_R   0.705425 0.107364 0.556625 -0.291458
C58   C     C_R   0.578334 0.922540 0.475654 0.194484
C59   C     C_R   0.629507 0.018914 0.474136 0.188129
C60   C     C_R   0.691115 0.109029 0.083543 -0.124101
C61   C     C_R   0.364612 0.108654 0.289789 -0.137889
C62   C     C_R   0.785538 0.104351 0.101272 -0.145271
C63   C     C_R   0.277368 0.092661 0.218619 -0.184623
C64   C     C_R   0.260004 0.533957 0.950245 -0.069495
C65   C     C_R   0.699680 0.402822 0.995064 -0.148525
C66   C     C_R   0.793318 0.025009 0.035285 0.114180
C67   C     C_R   0.285282 0.457746 0.965552 0.061638
C68   C     C_R   0.176612 0.032554 0.206929 0.115011
C69   C     C_R   0.785128 0.298132 0.735156 -0.148001
C70   C     C_R   0.272931 0.690311 0.253800 -0.139048
C71   C     C_R   0.241690 0.430006 0.020280 -0.117663
C72   C     C_R   0.704063 0.499877 0.919772 -0.170680
C73   C     C_R   0.109436 0.601439 0.824023 -0.151227
C74   C     C_R   0.891367 0.465829 0.188348 -0.138322
C75   C     C_R   0.912547 0.203470 0.000302 -0.146507
C76   C     C_R   0.082375 0.807057 0.052106 -0.132598
C77   C     C_R   0.994987 0.196661 0.055021 0.064454
C78   C     C_R   0.641132 0.435130 0.944377 0.087425
C79   C     C_R   0.993834 0.821581 0.041296 0.053386
C80   C     C_3   0.587414 0.721374 0.214991 0.248159
C81   C     C_3   0.613747 0.801130 0.177354 -0.852779
C82   C     C_3   0.505601 0.157885 0.725682 0.268272
C83   C     C_3   0.521167 0.106102 0.788886 -0.891759
C84   C     C_R   0.247380 0.681979 0.594548 0.127510
C85   C     C_R   0.339279 0.776586 0.656838 -0.155137
C86   C     C_R   0.434813 0.785127 0.657493 -0.112492
C87   C     C_R   0.439178 0.698989 0.597047 -0.109851
C88   C     C_R   0.348008 0.605128 0.534197 -0.123919
C89   C     C_R   0.896475 0.927329 0.047421 -0.233892
C90   C     C_R   0.252416 0.596304 0.533115 -0.156209
C91   C     C_R   0.767774 0.558788 0.457533 0.127210
C92   C     C_R   0.754505 0.641516 0.513093 -0.155184
C93   C     C_R   0.663054 0.619518 0.524954 -0.110513
C94   C     C_R   0.584734 0.514886 0.482009 -0.099728
C95   C     C_R   0.596830 0.432311 0.425594 -0.102117
C96   C     C_R   0.687840 0.454063 0.412787 -0.155812
H1    H     H_    0.160831 0.316942 0.133288 0.099821
H2    H     H_    0.473981 0.540876 0.779330 0.140996
H3    H     H_    0.388779 0.323353 0.241310 0.111657
H4    H     H_    0.483855 0.509604 0.630988 0.116330
H5    H     H_    0.585364 0.432968 0.074972 0.126465
H6    H     H_    0.318571 0.419854 0.814751 0.137677
H7    H     H_    0.134794 0.668309 0.442336 0.132644
H8    H     H_    0.880251 0.576248 0.611773 0.136819
H9    H     H_    0.801300 0.524735 0.306000 0.122013
H10   H     H_    0.205910 0.661985 0.727739 0.124004
H11   H     H_    0.858902 0.498174 0.701036 0.093196
H12   H     H_    0.827196 0.703457 0.951056 0.094019
H13   H     H_    0.144429 0.597632 0.316904 0.099200
H14   H     H_    0.541953 0.895525 0.871216 0.110295
H15   H     H_    0.243000 0.969554 0.384084 0.112949
H16   H     H_    0.739725 0.182901 0.556244 0.122652
H17   H     H_    0.442635 0.775413 0.408840 0.124840
H18   H     H_    0.702693 0.991881 0.700801 0.114234
H19   H     H_    0.472081 0.960496 0.258769 0.121883
H20   H     H_    0.634315 0.101420 0.390102 0.129401
H21   H     H_    0.578024 0.836294 0.556105 0.127662
H22   H     H_    0.530523 0.037786 0.986847 0.103093
H23   H     H_    0.708524 0.887282 0.900513 0.109935
H24   H     H_    0.419698 0.079384 0.406078 0.113865
H25   H     H_    0.685906 0.170956 0.134142 0.104504
H26   H     H_    0.441932 0.154866 0.298435 0.102286
H27   H     H_    0.852868 0.163158 0.165836 0.115513
H28   H     H_    0.288308 0.126850 0.172617 0.106747
H29   H     H_    0.769945 0.138758 0.831064 0.098143
H30   H     H_    0.309178 0.839191 0.150352 0.087826
H31   H     H_    0.283813 0.574904 0.912022 0.089403
H32   H     H_    0.672238 0.342645 0.016690 0.094961
H33   H     H_    0.780286 0.323595 0.682123 0.102909
H34   H     H_    0.088241 0.941108 0.259317 0.114645
H35   H     H_    0.296200 0.653509 0.295567 0.092359
H36   H     H_    0.243086 0.370824 0.043011 0.115319
H37   H     H_    0.680893 0.532107 0.873546 0.107298
H38   H     H_    0.189802 0.659501 0.852894 0.089828
H39   H     H_    0.809384 0.438122 0.170530 0.092809
H40   H     H_    0.830890 0.153323 0.973962 0.119459
H41   H     H_    0.162651 0.865831 0.091748 0.115844
H42   H     H_    0.823683 0.856054 0.016555 0.122827
H43   H     H_    0.154822 0.186314 0.169328 0.119562
H44   H     H_    0.644529 0.688725 0.218618 0.084573
H45   H     H_    0.415507 0.499101 0.346491 0.118918
H46   H     H_    0.595167 0.764160 0.285706 0.110138
H47   H     H_    0.558120 0.835186 0.172670 0.255370
H48   H     H_    0.693839 0.866523 0.223937 0.208997
H49   H     H_    0.609205 0.761390 0.107487 0.250154
H50   H     H_    0.583277 0.206444 0.731940 0.103362
H51   H     H_    0.455369 0.093619 0.653650 0.103264
H52   H     H_    0.445028 0.056440 0.784387 0.253000
H53   H     H_    0.557965 0.054869 0.767831 0.204197
H54   H     H_    0.572536 0.167997 0.861470 0.252606
H55   H     H_    0.337048 0.842672 0.705723 0.111944
H56   H     H_    0.482537 0.342859 0.537044 0.125961
H57   H     H_    0.505718 0.857794 0.705807 0.103432
H58   H     H_    0.513274 0.704462 0.599479 0.085945
H59   H     H_    0.351632 0.538552 0.487495 0.099030
H60   H     H_    0.182586 0.521976 0.485950 0.118604
H61   H     H_    0.815778 0.722618 0.548433 0.118600
H62   H     H_    0.653631 0.683518 0.568314 0.098780
H63   H     H_    0.514235 0.497877 0.491726 0.082148
H64   H     H_    0.535863 0.351455 0.392230 0.095909
H65   H     H_    0.697277 0.389273 0.370370 0.104649
H66   H     H_    0.467824 0.649011 0.310477 0.130644
H67   H     H_    0.470191 0.207281 0.589440 0.111266
H68   H     H_    0.404518 0.295345 0.095143 0.142703
N1    N     N_R   0.055660 0.348550 0.045620 -0.041354
N2    N     N_R   0.185200 0.638170 0.176300 -0.040290
N3    N     N_R   0.201680 0.494570 0.045620 -0.037661
N4    N     N_R   0.798320 0.505430 0.954380 -0.037160
N5    N     N_R   0.068420 0.560530 0.871650 -0.041134
N6    N     N_R   0.931580 0.439470 0.128350 -0.039164
N7    N     N_R   0.948070 0.295860 0.997670 -0.040051
N8    N     N_R   0.051930 0.704140 0.002330 -0.043981
N9    N     N_R   0.944340 0.651450 0.954380 -0.040536
N10   N     N_R   0.960830 0.507850 0.823700 -0.037613
N11   N     N_R   0.039170 0.492150 0.176300 -0.040555
N12   N     N_R   0.811290 0.303410 0.871650 -0.037891
N13   N     N_R   0.188710 0.696590 0.128350 -0.043561
N14   N     N_R   0.205200 0.552990 0.997670 -0.042217
N15   N     N_R   0.794800 0.447010 0.002330 -0.038717
N16   N     N_R   0.814800 0.361830 0.823700 -0.038626
Ni1   Ni    Ni4+2 0.119340 0.493420 0.109960 0.220343
Ni2   Ni    Ni4+2 0.880660 0.506580 0.890040 0.214073
Ni3   Ni    Ni4+2 0.872590 0.372590 0.000000 0.212662
Ni4   Ni    Ni4+2 0.127410 0.627410 0.000000 0.216809
O1    O     O_3   0.484687 0.640253 0.155893 -0.638541
O2    O     O_3   0.456693 0.220976 0.751862 -0.643074

loop_
_geom_bond_atom_site_label_1
_geom_bond_atom_site_label_2
_ccdc_geom_bond_type
N1    N7    A    
N12   Ni3   S    
C30   C32   A    
C87   C88   A    
C94   H63   S    
N6    Ni3   S    
C27   C29   A    
C1    C77   A    
C14   C18   A    
C95   C96   A    
C76   C79   A    
N7    Ni3   S    
C19   C31   S    
N10   Ni2   S    
C85   H55   S    
C82   H51   S    
C44   H8    S    
C41   C56   A    
C76   H41   S    
C15   C19   A    
C93   C94   A    
C81   H47   S    
C82   O2    S    
C2    H43   S    
C41   N13   A    
C19   C21   A    
C86   H57   S    
C24   C26   A    
C38   C42   A    
C70   N2    A    
C69   N16   A    
C11   C14   A    
C57   C59   A    
C57   H16   S    
C24   H4    S    
C11   C25   A    
C49   C54   A    
C20   H68   S    
C12   C79   A    
C49   C57   A    
C96   H65   S    
C60   C62   A    
C43   H9    S    
C37   C42   A    
C76   N8    A    
C92   C93   A    
C13   H67   S    
C72   C78   A    
C16   H11   S    
C71   H36   S    
C81   H48   S    
C29   C78   S    
C52   C54   A    
C22   C25   A    
C67   C71   A    
N5    N10   A    
C36   C46   A    
C10   C35   A    
C22   H3    S    
C1    N1    A    
C38   C48   A    
C30   C67   S    
C44   C47   A    
N11   Ni1   S    
C83   H54   S    
C52   H21   S    
C91   C96   A    
C3    C79   S    
C71   N3    A    
C9    C33   A    
C9    H22   S    
C7    C33   A    
C60   H25   S    
C93   H62   S    
N2    Ni1   S    
C84   C90   A    
C23   C73   A    
C5    C68   S    
C39   C91   S    
C62   H27   S    
C82   H50   S    
N16   Ni2   S    
C63   H28   S    
N15   Ni3   S    
N6    N11   A    
C40   C45   A    
C15   O2    S    
C46   C48   A    
C50   C53   A    
C62   C66   A    
C45   C69   A    
C95   H64   S    
C89   H42   S    
C65   H32   S    
C7    H23   S    
C84   C85   A    
C4    C6    A    
C1    H1    S    
C91   C92   A    
C40   N12   A    
C14   O1    S    
C75   H40   S    
C39   C43   A    
C55   H17   S    
C58   C59   A    
C85   C86   A    
C27   H5    S    
C11   H66   S    
C50   C56   S    
C92   H61   S    
C51   C53   A    
C8    C35   A    
C2    C4    A    
C64   C67   A    
N5    Ni4   S    
C23   C37   S    
C64   N14   A    
N8    Ni4   S    
N12   N16   A    
C47   C48   A    
C45   C49   S    
C80   O1    S    
C64   H31   S    
C74   H39   S    
C61   C63   A    
C87   H58   S    
N2    N13   A    
C81   H49   S    
C75   C77   A    
C52   C58   A    
C10   C61   A    
C34   C74   A    
C88   C90   A    
N9    Ni2   S    
C82   C83   S    
C16   C23   A    
C56   C70   A    
C13   C15   A    
C8    H34   S    
C13   C26   A    
C21   C24   A    
C2    C5    A    
C18   C32   S    
C17   C34   A    
C90   H60   S    
N13   Ni4   S    
C35   H15   S    
N8    N9    A    
C39   C47   A    
C16   N10   A    
C63   C68   A    
C80   H46   S    
C65   C78   A    
C38   C84   S    
C27   C32   A    
C86   C87   A    
C41   H30   S    
C28   C31   A    
C25   H45   S    
C50   C55   A    
C20   C22   A    
C80   C81   S    
C3    C5    A    
C17   H13   S    
C17   N11   A    
C8    C68   A    
C6    C89   A    
C65   N15   A    
C46   H7    S    
N4    Ni2   S    
C51   H20   S    
N4    N15   A    
C3    C89   A    
C9    C60   A    
N1    Ni1   S    
C37   C44   A    
C26   H56   S    
C4    C77   S    
C29   C31   A    
C80   H44   S    
C7    C66   A    
C75   N7    A    
C21   H2    S    
C12   H12   S    
C72   H37   S    
N3    Ni1   S    
C40   H29   S    
C54   H18   S    
C28   C30   A    
C70   H35   S    
C34   C36   S    
C18   C20   A    
C94   C95   A    
C74   N6    A    
C10   H24   S    
C83   H52   S    
C42   H10   S    
C28   H6    S    
C6    C66   S    
N3    N14   A    
C51   C59   A    
C73   H38   S    
C69   H33   S    
C88   H59   S    
C55   C58   A    
C72   N4    A    
C61   H26   S    
C36   C43   A    
C33   H14   S    
C73   N5    A    
N14   Ni4   S    
C53   H19   S    
C12   N9    A    
C83   H53   S    
