data_mof_unit_39180.cif
_audit_creation_date              2013-03-05T17:00:14-0500
_audit_creation_method            fapswitch 2.2
_symmetry_space_group_name_H-M    P1
_symmetry_Int_Tables_number       1
_space_group_crystal_system       triclinic
_cell_length_a                    10.673945
_cell_length_b                    16.192782
_cell_length_c                    16.464414
_cell_angle_alpha                 86.153574
_cell_angle_beta                  92.363413
_cell_angle_gamma                 93.166694
_cell_volume                      2832.96525963

loop_
_atom_site_label
_atom_site_type_symbol
_atom_site_description
_atom_site_fract_x
_atom_site_fract_y
_atom_site_fract_z
_atom_type_partial_charge
O1    O     O_R   0.494530 0.422540 0.612660 -0.592949
O2    O     O_R   0.504350 0.561840 0.618900 -0.573556
C1    C     C_R   0.492900 0.487842 0.653339 0.979339
O3    O     O_R   0.678320 0.430330 0.496880 -0.603004
O4    O     O_R   0.688140 0.569640 0.503120 -0.574366
C2    C     C_R   0.739944 0.499245 0.508808 0.995536
Zn1   Zn    Zn3+2 0.493440 0.406980 0.495830 1.019795
Zn2   Zn    Zn3+2 0.506560 0.593020 0.504170 1.097261
O5    O     O_R   0.495650 0.438160 0.381100 -0.649522
O6    O     O_R   0.505470 0.577460 0.387340 -0.495706
O7    O     O_R   0.311860 0.430360 0.496880 -0.650088
O8    O     O_R   0.321680 0.569670 0.503120 -0.612205
C3    C     C_R   0.502571 0.511965 0.346780 0.985237
C4    C     C_R   0.259201 0.499911 0.493448 0.864776
H1    H     H_    0.899205 0.632576 0.504809 0.204260
C5    C     C_R   0.881682 0.346481 0.563503 0.396484
C6    C     C_R   0.925852 0.271705 0.541367 -0.342628
H2    H     H_    0.884205 0.213333 0.566069 0.186819
C7    C     C_R   0.025937 0.271834 0.489535 0.398371
C8    C     C_R   0.090956 0.346829 0.467590 -0.214296
H3    H     H_    0.169253 0.345827 0.428199 0.205724
C9    C     C_R   0.051457 0.422330 0.493849 -0.005027
C10   C     C_R   0.934137 0.422424 0.528093 -0.024639
C11   C     C_R   0.873886 0.498283 0.521365 -0.029341
C12   C     C_R   0.942619 0.573503 0.507978 -0.145745
H4    H     H_    0.121403 0.632431 0.491169 0.178179
C13   C     C_R   0.068479 0.573407 0.495962 -0.195664
C14   C     C_R   0.124237 0.498280 0.488987 -0.050399
C15   C     C_R   0.457158 0.477717 0.737651 -0.086804
C16   C     C_R   0.380246 0.535521 0.767125 -0.230297
C17   C     C_R   0.341686 0.526815 0.847319 0.317410
C18   C     C_R   0.383781 0.459479 0.898042 0.220135
C19   C     C_R   0.452784 0.398681 0.866754 -0.191185
C20   C     C_R   0.488779 0.407406 0.786473 -0.139614
C21   C     C_R   0.591848 0.534422 0.128927 -0.211153
C22   C     C_R   0.604154 0.534867 0.213620 0.417611
C23   C     C_R   0.474409 0.518090 0.091014 0.248023
N1    N     N_2   0.382274 0.462423 0.982702 -0.138622
N2    N     N_2   0.468828 0.510934 0.006260 -0.119924
C24   C     C_R   0.495520 0.520961 0.259288 -0.126944
H5    H     H_    0.673998 0.542988 0.092215 0.210867
H6    H     H_    0.485471 0.347478 0.906264 0.191154
H7    H     H_    0.544861 0.361015 0.763496 0.231086
C25   C     C_R   0.377255 0.509261 0.221133 -0.219375
C26   C     C_R   0.366272 0.507979 0.137247 -0.083247
H8    H     H_    0.293839 0.498949 0.256642 0.184194
H9    H     H_    0.274076 0.497580 0.108643 0.208178
H10   H     H_    0.349820 0.587206 0.727319 0.196742
N3    N     N_R   0.515300 0.716920 0.509720 -0.209410
C27   C     C_R   0.470752 0.769281 0.445201 0.407779
C28   C     C_R   0.470225 0.855540 0.451849 -0.357079
C29   C     C_R   0.491333 0.890379 0.526351 0.134900
C30   C     C_R   0.519748 0.837129 0.594205 0.202906
C31   C     C_R   0.550918 0.753765 0.582495 0.305576
C32   C     C_R   0.428998 0.144139 0.543588 -0.132670
C33   C     C_R   0.424945 0.230800 0.546489 0.088674
C34   C     C_R   0.493965 0.110841 0.481316 0.316346
N4    N     N_2   0.480661 0.977637 0.535423 -0.062448
N5    N     N_2   0.501927 0.023608 0.472750 -0.139805
N6    N     N_R   0.484690 0.283070 0.490290 -0.095678
H11   H     H_    0.375761 0.256229 0.594449 0.140429
H12   H     H_    0.381283 0.104010 0.589046 0.203114
C35   C     C_R   0.547548 0.252043 0.429745 0.041736
C36   C     C_R   0.551905 0.166358 0.423766 -0.267459
H13   H     H_    0.596082 0.293938 0.386199 0.168139
H14   H     H_    0.444150 0.895837 0.399579 0.250113
H15   H     H_    0.602456 0.143255 0.375047 0.183002
N7    N     N_R   0.264716 0.587607 0.877521 0.235115
O9    O     O_R   0.200465 0.570462 0.942558 -0.326358
O10   O     O_R   0.250680 0.658372 0.836731 -0.345731
S1    S     S_3+6 0.514256 0.877934 0.692176 0.139453
O11   O     O_2   0.633891 0.928264 0.708990 -0.169781
O12   O     O_2   0.406750 0.934119 0.692673 -0.267122
O13   O     O_3   0.494422 0.803704 0.767439 -0.414432
H16   H     H_    0.410062 0.777528 0.755895 0.378658
S2    S     S_3+6 0.659267 0.709343 0.656870 0.111902
O14   O     O_2   0.590534 0.666213 0.726724 -0.264295
O15   O     O_2   0.741258 0.649567 0.622652 -0.281588
O16   O     O_3   0.755546 0.784979 0.693411 -0.460375
H17   H     H_    0.802552 0.758005 0.740123 0.410170
S3    S     S_3+6 0.789976 0.341912 0.650989 0.036269
O17   O     O_2   0.768292 0.426877 0.677271 -0.282940
O18   O     O_2   0.666219 0.296570 0.633957 -0.334076
O19   O     O_3   0.866534 0.289467 0.727656 -0.488835
H18   H     H_    0.850950 0.230185 0.717178 0.372676
S4    S     S_3+6 0.410768 0.737064 0.349157 0.094118
O20   O     O_2   0.346965 0.806867 0.302137 -0.269813
O21   O     O_2   0.517620 0.714828 0.299642 -0.192592
O22   O     O_3   0.304267 0.656984 0.358936 -0.550968
H19   H     H_    0.223278 0.682343 0.365504 0.359171
S5    S     S_3+6 0.075250 0.177223 0.458374 0.057918
O23   O     O_2   0.187026 0.191489 0.405622 -0.262577
O24   O     O_2   0.109815 0.122153 0.532101 -0.284738
O25   O     O_3   0.957104 0.130113 0.405292 -0.475394
H20   H     H_    0.890984 0.115873 0.445129 0.353073
S6    S     S_3+6 0.755364 0.547319 0.261105 0.041552
O26   O     O_2   0.782772 0.469875 0.312788 -0.342033
O27   O     O_2   0.853726 0.563077 0.198319 -0.251252
O28   O     O_3   0.758842 0.627731 0.320777 -0.509991
H21   H     H_    0.846668 0.633159 0.342382 0.375775

loop_
_geom_bond_atom_site_label_1
_geom_bond_atom_site_label_2
_geom_bond_distance
_ccdc_geom_bond_type
C32   C33   1.410409 A    
C35   H13   1.081277 S    
C7    C8    1.398443 A    
S2    O16   1.681338 S    
S3    O17   1.502341 D    
C30   C31   1.435233 A    
C25   C26   1.382727 A    
Zn1   O7    1.996211 S    
H4    C13   1.082925 S    
N6    C35   1.362307 A    
C19   H6    1.083150 S    
C16   H10   1.083670 S    
C21   C23   1.397108 A    
S2    O15   1.492527 D    
C16   C17   1.394997 A    
O7    C4    1.283084 A    
S4    O21   1.502173 D    
H1    C12   1.082935 S    
N3    C31   1.403374 A    
S6    O28   1.680866 S    
C1    C15   1.451077 S    
O5    C3    1.286907 A    
C3    C24   1.437373 S    
O19   H18   0.990523 S    
C21   C22   1.395646 A    
C5    C6    1.399155 A    
S6    O27   1.503518 D    
C10   C11   1.413461 A    
C18   N1    1.398667 S    
C9    C14   1.417318 A    
O3    Zn1   1.988264 S    
S3    O18   1.500866 D    
C25   H8    1.084379 S    
C6    H2    1.083218 S    
C26   H9    1.082903 S    
C17   N7    1.442222 S    
C34   N5    1.436448 S    
O13   H16   0.990516 S    
C28   C29   1.389125 A    
C36   H15   1.082941 S    
C22   C24   1.407474 A    
N1    N2    1.245873 D    
C11   C12   1.396062 A    
O3    C2    1.286152 A    
S5    O23   1.503088 D    
S1    O12   1.503888 D    
S4    O20   1.504948 D    
N7    O9    1.301413 A    
N4    N5    1.252201 D    
C15   C20   1.397716 A    
S4    O22   1.680447 S    
C33   N6    1.364982 A    
O1    C1    1.290362 A    
C28   H14   1.081126 S    
C15   C16   1.401522 A    
S5    O24   1.502994 D    
C22   S6    1.771450 S    
O28   H21   0.990291 S    
Zn2   O8    1.988263 S    
C2    C11   1.436890 S    
S6    O26   1.503038 D    
C8    H3    1.080251 S    
C27   C28   1.408685 A    
C33   H11   1.081829 S    
S2    O14   1.501322 D    
C29   N4    1.441950 S    
C31   S2    1.792034 S    
Zn2   O6    1.956135 S    
O8    C4    1.295463 A    
C5    C10   1.421378 A    
C32   C34   1.413116 A    
O4    Zn2   1.996210 S    
C23   C26   1.404773 A    
C30   S1    1.788010 S    
Zn1   N6    2.011473 S    
S3    O19   1.682283 S    
C29   C30   1.398319 A    
C34   C36   1.400372 A    
Zn1   O5    1.923032 S    
O1    Zn1   1.956136 S    
C17   C18   1.410402 A    
O2    Zn2   1.923034 S    
C20   H7    1.082705 S    
C8    C9    1.414998 A    
C35   C36   1.400996 A    
O6    C3    1.288933 A    
S1    O13   1.678936 S    
C12   C13   1.366059 A    
C18   C19   1.398743 A    
O2    C1    1.292504 A    
S1    O11   1.502550 D    
C23   N2    1.406507 S    
S5    O25   1.681766 S    
O4    C2    1.290314 A    
C5    S3    1.769865 S    
C6    C7    1.394360 A    
C19   C20   1.387639 A    
O25   H20   0.990648 S    
C21   H5    1.082823 S    
C7    S5    1.761859 S    
C27   S4    1.781262 S    
O16   H17   0.990611 S    
C24   C25   1.395787 A    
C32   H12   1.082318 S    
N7    O10   1.301499 A    
N3    C27   1.398372 A    
C13   C14   1.397031 A    
C9    C10   1.394499 A    
C4    C14   1.438313 S    
O22   H19   0.990219 S    
Zn2   N3    2.011331 S    
