data_mof_unit_63617.cif
_audit_creation_date              2012-12-10T19:29:30-0500
_audit_creation_method            fapswitch 2.2
_symmetry_space_group_name_H-M    P1
_symmetry_Int_Tables_number       1
_space_group_crystal_system       triclinic
_cell_length_a                    22.271592
_cell_length_b                    22.267348
_cell_length_c                    14.955686
_cell_angle_alpha                 90.000396
_cell_angle_beta                  90.072272
_cell_angle_gamma                 90.0
_cell_volume                      7416.95683243

loop_
_atom_site_label
_atom_site_type_symbol
_atom_type_description
_atom_site_fract_x
_atom_site_fract_y
_atom_site_fract_z
_atom_type_partial_charge
C1    C     C_R   0.418767 0.918763 0.499943 0.895722
C2    C     C_R   0.581232 0.081239 0.500057 0.895734
C3    C     C_R   0.581233 0.918762 0.500057 0.895847
C4    C     C_R   0.418767 0.081238 0.499943 0.895613
C5    C     C_R   0.918768 0.418761 0.499943 0.895733
C6    C     C_R   0.081233 0.581237 0.500057 0.895721
C7    C     C_R   0.081233 0.418762 0.500057 0.895614
C8    C     C_R   0.918767 0.581238 0.499943 0.895847
C9    C     C_1   0.336757 0.163241 0.499643 0.056829
C10   C     C_1   0.663242 0.836759 0.500357 0.057031
C11   C     C_1   0.663235 0.163248 0.500359 0.057002
C12   C     C_1   0.336753 0.836763 0.499641 0.057043
C13   C     C_1   0.836758 0.663241 0.499643 0.056978
C14   C     C_1   0.163243 0.336759 0.500357 0.056775
C15   C     C_1   0.163247 0.663237 0.500359 0.057097
C16   C     C_1   0.836764 0.336752 0.499640 0.057056
C17   C     C_1   0.500105 0.000000 0.189799 0.205316
C18   C     C_1   0.499895 1.000000 0.810201 0.205313
C19   C     C_1   0.000105 0.500001 0.189799 0.205313
C20   C     C_1   0.999895 0.499999 0.810201 0.205314
C21   C     C_3   0.471856 0.950395 0.969758 -0.227672
C22   C     C_3   0.528145 0.049604 0.030242 -0.227671
C23   C     C_3   0.528835 0.950793 0.030240 -0.227588
C24   C     C_3   0.471166 0.049207 0.969760 -0.227778
C25   C     C_3   0.972331 0.450129 0.969759 -0.227679
C26   C     C_3   0.027669 0.549872 0.030241 -0.227680
C27   C     C_3   0.029303 0.451071 0.030241 -0.227766
C28   C     C_3   0.970696 0.548929 0.969759 -0.227577
C29   C     C_3   0.700943 0.729028 0.542736 -0.246624
C30   C     C_3   0.299037 0.270952 0.457191 -0.246836
C31   C     C_3   0.298739 0.729344 0.456133 -0.246544
C32   C     C_3   0.700422 0.271496 0.540784 -0.247051
C33   C     C_3   0.200963 0.229048 0.542808 -0.246879
C34   C     C_3   0.799057 0.770972 0.457265 -0.246668
C35   C     C_3   0.799578 0.228504 0.459215 -0.247003
C36   C     C_3   0.201261 0.770655 0.543868 -0.246496
C37   C     C_3   0.228918 0.200808 0.457576 -0.243925
C38   C     C_3   0.771062 0.799172 0.542497 -0.243933
C39   C     C_3   0.770520 0.201371 0.544423 -0.243701
C40   C     C_3   0.228631 0.799477 0.458646 -0.244086
C41   C     C_3   0.728938 0.700828 0.457504 -0.244006
C42   C     C_3   0.271082 0.299191 0.542423 -0.243998
C43   C     C_3   0.271369 0.700523 0.541354 -0.244017
C44   C     C_3   0.729479 0.298629 0.455576 -0.243632
C45   C     C_1   0.374356 0.125644 0.499798 -0.126438
C46   C     C_1   0.625643 0.874355 0.500202 -0.126218
C47   C     C_1   0.625639 0.125649 0.500204 -0.126235
C48   C     C_1   0.374354 0.874358 0.499797 -0.126228
C49   C     C_1   0.874357 0.625645 0.499798 -0.126282
C50   C     C_1   0.125643 0.374356 0.500202 -0.126502
C51   C     C_1   0.125646 0.625642 0.500203 -0.126164
C52   C     C_1   0.874361 0.374351 0.499796 -0.126171
C53   C     C_3   0.264119 0.236159 0.583739 0.475646
C54   C     C_3   0.735920 0.763880 0.416261 0.475613
C55   C     C_3   0.736963 0.235074 0.416286 0.475626
C56   C     C_3   0.264693 0.763269 0.583727 0.475687
C57   C     C_3   0.764080 0.736120 0.583739 0.475656
C58   C     C_3   0.235881 0.263841 0.416260 0.475689
C59   C     C_3   0.235307 0.736730 0.416273 0.475643
C60   C     C_3   0.763037 0.264926 0.583713 0.475582
C61   C     C_3   0.291383 0.208614 0.499594 0.024805
C62   C     C_3   0.708617 0.791386 0.500406 0.024657
C63   C     C_3   0.708610 0.208621 0.500407 0.024620
C64   C     C_3   0.291380 0.791390 0.499593 0.024569
C65   C     C_3   0.791384 0.708615 0.499595 0.024656
C66   C     C_3   0.208617 0.291386 0.500405 0.024804
C67   C     C_3   0.208620 0.708610 0.500408 0.024569
C68   C     C_3   0.791390 0.291379 0.499592 0.024620
C69   C     C_3   0.443968 0.999608 0.029751 0.477723
C70   C     C_3   0.556033 0.000391 0.970249 0.477881
C71   C     C_3   0.943973 0.499072 0.029751 0.477879
C72   C     C_3   0.056026 0.500928 0.970249 0.477721
C73   C     C_3   0.500217 0.000000 0.089510 -0.063360
C74   C     C_3   0.499783 0.999999 0.910490 -0.063390
C75   C     C_3   0.000216 0.500003 0.089510 -0.063391
C76   C     C_3   0.999783 0.499997 0.910490 -0.063360
H1    H     H_    0.212785 0.160022 0.422256 0.195765
H2    H     H_    0.787178 0.839941 0.577876 0.195806
H3    H     H_    0.786185 0.161053 0.581363 0.196019
H4    H     H_    0.212259 0.840501 0.424194 0.195743
H5    H     H_    0.712822 0.660059 0.422125 0.195785
H6    H     H_    0.287215 0.339977 0.577743 0.195743
H7    H     H_    0.287741 0.659499 0.575807 0.195761
H8    H     H_    0.713815 0.338948 0.418636 0.196039
H9    H     H_    0.660269 0.712986 0.578309 0.194476
H10   H     H_    0.339694 0.286977 0.421559 0.194294
H11   H     H_    0.339149 0.713567 0.419643 0.194534
H12   H     H_    0.659314 0.287974 0.574776 0.194308
H13   H     H_    0.160306 0.213023 0.578440 0.194284
H14   H     H_    0.839731 0.787014 0.421692 0.194466
H15   H     H_    0.840686 0.212026 0.425223 0.194319
H16   H     H_    0.160851 0.786432 0.580357 0.194547
H17   H     H_    0.553128 0.910435 0.054562 0.202512
H18   H     H_    0.446872 0.089565 0.945438 0.202480
H19   H     H_    0.448128 0.909702 0.945435 0.202489
H20   H     H_    0.551872 0.090297 0.054565 0.202367
H21   H     H_    0.053982 0.410947 0.054563 0.202530
H22   H     H_    0.946018 0.589053 0.945437 0.202563
H23   H     H_    0.948993 0.409211 0.945436 0.202311
H24   H     H_    0.051006 0.590790 0.054564 0.202437
N1    N     N_1   0.500020 0.000000 0.268010 -0.079040
N2    N     N_1   0.499980 1.000000 0.731990 -0.079039
N3    N     N_1   0.000020 0.500000 0.268010 -0.079039
N4    N     N_1   0.999980 0.500000 0.731990 -0.079040
O1    O     O_R   0.438390 0.938390 0.574460 -0.599490
O2    O     O_R   0.561610 0.061610 0.425540 -0.599495
O3    O     O_R   0.561610 0.938390 0.425540 -0.599381
O4    O     O_R   0.438390 0.061610 0.574460 -0.599468
O5    O     O_R   0.938390 0.438390 0.574460 -0.599518
O6    O     O_R   0.061610 0.561610 0.425540 -0.599512
O7    O     O_R   0.061610 0.438390 0.425540 -0.599445
O8    O     O_R   0.938390 0.561610 0.574460 -0.599357
O9    O     O_R   0.438400 0.938390 0.425520 -0.604685
O10   O     O_R   0.561600 0.061610 0.574480 -0.604686
O11   O     O_R   0.561600 0.938390 0.574480 -0.604803
O12   O     O_R   0.438400 0.061610 0.425520 -0.604896
O13   O     O_R   0.938400 0.438390 0.425520 -0.604599
O14   O     O_R   0.061600 0.561610 0.574480 -0.604598
O15   O     O_R   0.061600 0.438390 0.574480 -0.604984
O16   O     O_R   0.938400 0.561610 0.425520 -0.604891
Zn1   Zn    Zn3+2 0.500000 0.000000 0.599450 1.038822
Zn2   Zn    Zn3+2 0.500000 1.000000 0.400550 1.038818
Zn3   Zn    Zn3+2 0.000000 0.500000 0.599450 1.038817
Zn4   Zn    Zn3+2 0.000000 0.500000 0.400550 1.038821
Cl1   Cl    Cl    0.631503 0.000919 0.931236 -0.520102
Cl2   Cl    Cl    0.368498 0.999080 0.068764 -0.520197
Cl3   Cl    Cl    0.131488 0.502178 0.931236 -0.520193
Cl4   Cl    Cl    0.868512 0.497822 0.068763 -0.520100
Cl5   Cl    Cl    0.716126 0.783408 0.304597 -0.526747
Cl6   Cl    Cl    0.283966 0.216684 0.695403 -0.527077
Cl7   Cl    Cl    0.285304 0.781983 0.695376 -0.526284
Cl8   Cl    Cl    0.718558 0.214152 0.304658 -0.526040
Cl9   Cl    Cl    0.216034 0.283316 0.304597 -0.527088
Cl10  Cl    Cl    0.783874 0.716592 0.695403 -0.526759
Cl11  Cl    Cl    0.781442 0.285848 0.695341 -0.526025
Cl12  Cl    Cl    0.214696 0.718016 0.304625 -0.526272

loop_
_geom_bond_atom_site_label_1
_geom_bond_atom_site_label_2
_ccdc_geom_bond_type
C9    C45   T    
O11   Zn1   S    
C26   C72   S    
C11   C47   T    
C42   H6    S    
O4    Zn1   S    
C72   C76   S    
C36   C67   S    
N4    Zn3   S    
C13   C65   S    
C4    O4    A    
O12   Zn2   S    
C9    C61   S    
O13   Zn4   S    
C24   H18   S    
C8    O8    A    
C42   C53   S    
C12   C64   S    
C32   H12   S    
C59   Cl12  S    
C43   H7    S    
C20   C76   S    
C18   N2    T    
C31   C59   S    
C17   N1    T    
O6    Zn4   S    
O10   Zn1   S    
C53   C61   S    
C58   C66   S    
O9    Zn2   S    
C55   C63   S    
C70   C74   S    
C56   C64   S    
C5    C52   S    
C69   C73   S    
C16   C68   S    
C15   C51   T    
C6    C51   S    
C30   H10   S    
N2    Zn1   S    
C29   H9    S    
C37   C58   S    
C12   C48   T    
C59   C67   S    
C36   H16   S    
C15   C67   S    
C18   C74   S    
C40   C59   S    
C17   C73   S    
C6    O6    A    
C23   C70   S    
C10   C62   S    
C1    O9    A    
C23   C73   S    
C27   C75   S    
N3    Zn4   S    
C34   C65   S    
C22   C70   S    
C25   H23   S    
C24   C69   S    
C4    C45   S    
C58   Cl9   S    
C33   C53   S    
C31   H11   S    
C72   Cl3   S    
C35   C55   S    
C7    O15   A    
C36   C40   S    
C7    C50   S    
O8    Zn3   S    
O5    Zn3   S    
C41   C65   S    
C38   H2    S    
C3    O3    A    
C37   H1    S    
C21   C74   S    
C2    O2    A    
C33   C37   S    
C23   H17   S    
C5    O13   A    
C39   H3    S    
C35   C39   S    
C34   H14   S    
C10   C46   T    
C36   C56   S    
C33   H13   S    
C38   C57   S    
C41   H5    S    
C33   C66   S    
O2    Zn2   S    
C40   H4    S    
C26   C75   S    
C14   C66   S    
O1    Zn1   S    
C60   Cl11  S    
C31   C43   S    
C25   C71   S    
C70   Cl1   S    
C29   C57   S    
C69   Cl2   S    
C34   C54   S    
C21   C23   S    
C13   C49   T    
C57   Cl10  S    
C44   C68   S    
C28   C71   S    
C32   C60   S    
C28   C76   S    
C39   C63   S    
C8    O16   A    
C32   C44   S    
C28   H22   S    
C54   Cl5   S    
C29   C62   S    
C27   H21   S    
C29   C41   S    
O7    Zn4   S    
C34   C38   S    
C22   H20   S    
C31   C64   S    
C4    O12   A    
C30   C42   S    
C16   C52   T    
C32   C63   S    
C57   C65   S    
O3    Zn2   S    
C44   H8    S    
C37   C61   S    
C1    C48   S    
C20   N4    T    
O15   Zn3   S    
C2    C47   S    
C25   C27   S    
C21   H19   S    
C3    C46   S    
C26   C28   S    
N1    Zn2   S    
C40   C64   S    
C1    O1    A    
C25   C76   S    
C19   C75   S    
C3    O11   A    
C71   C75   S    
C2    O10   A    
C44   C55   S    
C24   C74   S    
C14   C50   T    
C5    O5    A    
C35   C68   S    
C39   C60   S    
C30   C58   S    
C7    O7    A    
C22   C24   S    
O14   Zn3   S    
C71   Cl4   S    
C19   N3    T    
C41   C54   S    
C56   Cl7   S    
C43   C56   S    
C60   C68   S    
C43   C67   S    
C55   Cl8   S    
C30   C61   S    
C21   C69   S    
C42   C66   S    
C54   C62   S    
C53   Cl6   S    
C22   C73   S    
C11   C63   S    
C8    C49   S    
C6    O14   A    
C27   C72   S    
O16   Zn4   S    
C26   H24   S    
C38   C62   S    
C35   H15   S    
