data_mof_unit_62528.cif
_audit_creation_date              2013-03-05T15:49:46-0500
_audit_creation_method            fapswitch 2.2
_symmetry_space_group_name_H-M    P1
_symmetry_Int_Tables_number       1
_space_group_crystal_system       triclinic
_cell_length_a                    37.293486
_cell_length_b                    30.329334
_cell_length_c                    21.774802
_cell_angle_alpha                 89.915585
_cell_angle_beta                  54.422566
_cell_angle_gamma                 90.065621
_cell_volume                      20031.5730907

loop_
_atom_site_label
_atom_site_type_symbol
_atom_site_description
_atom_site_fract_x
_atom_site_fract_y
_atom_site_fract_z
_atom_type_partial_charge
O1    O     O_R   0.935120 0.537520 0.564840 -0.530434
O2    O     O_R   0.064880 0.537520 0.435160 -0.530769
O3    O     O_R   0.435120 0.037520 0.564840 -0.534805
O4    O     O_R   0.564880 0.037520 0.435160 -0.528685
O5    O     O_R   0.935080 0.462440 0.564870 -0.535650
O6    O     O_R   0.064920 0.462440 0.435130 -0.535488
O7    O     O_R   0.435080 0.962440 0.564870 -0.537952
O8    O     O_R   0.564920 0.962440 0.435130 -0.534110
C1    C     C_R   0.914152 0.499863 0.586047 0.864104
C2    C     C_R   0.085850 0.499947 0.413859 0.863752
C3    C     C_R   0.414173 0.999842 0.586087 0.876219
C4    C     C_R   0.585860 0.999952 0.413197 0.877667
O9    O     O_R   0.999990 0.537520 0.408860 -0.549251
O10   O     O_R   0.000010 0.537520 0.591140 -0.549373
O11   O     O_R   0.499990 0.037520 0.408860 -0.550718
O12   O     O_R   0.500010 0.037520 0.591140 -0.531954
O13   O     O_R   0.999950 0.462430 0.408890 -0.529570
O14   O     O_R   0.000050 0.462430 0.591110 -0.529549
O15   O     O_R   0.499950 0.962430 0.408890 -0.531275
O16   O     O_R   0.500050 0.962430 0.591110 -0.520720
C5    C     C_R   0.000579 0.499843 0.379598 0.913985
C6    C     C_R   0.999435 0.499793 0.620387 0.914269
C7    C     C_R   0.500721 0.999879 0.379443 0.908653
C8    C     C_R   0.501276 0.999813 0.618579 0.959427
Cu1   Cu    Cu3+1 0.000000 0.544430 0.500000 1.278891
Cu2   Cu    Cu3+1 0.500000 0.044430 0.500000 1.280471
Cu3   Cu    Cu3+1 0.000000 0.455520 0.500000 1.303329
Cu4   Cu    Cu3+1 0.500000 0.955520 0.500000 1.308705
C9    C     C_3   0.956903 0.520103 0.331475 0.074520
C10   C     C_3   0.043013 0.520437 0.668532 0.074612
C11   C     C_3   0.456041 0.018171 0.332431 0.074713
C12   C     C_3   0.500833 0.046779 0.716100 0.126629
H1    H     H_    0.954236 0.553877 0.351863 0.223304
H2    H     H_    0.045512 0.554239 0.648188 0.223198
H3    H     H_    0.451826 0.051713 0.354634 0.222778
H4    H     H_    0.468709 0.061826 0.736879 0.220538
C13   C     C_3   0.957329 0.523152 0.259733 0.053627
C14   C     C_3   0.042579 0.523484 0.740268 0.053367
C15   C     C_3   0.456370 0.021459 0.260795 0.055128
C16   C     C_3   0.504482 0.044962 0.783670 -0.027210
H5    H     H_    0.960338 0.558791 0.246613 0.214010
H6    H     H_    0.039415 0.559095 0.753395 0.213831
H7    H     H_    0.457876 0.057223 0.249567 0.211806
H8    H     H_    0.475552 0.062457 0.831131 0.175958
C17   C     C_3   0.040028 0.532939 0.248196 0.356854
C18   C     C_3   0.959822 0.532447 0.751814 0.356612
C19   C     C_3   0.538501 0.034974 0.249470 0.359736
C20   C     C_3   0.457328 0.973098 0.754547 0.359241
C21   C     C_3   0.006284 0.449844 0.277825 0.460394
C22   C     C_3   0.993993 0.449692 0.722086 0.460521
C23   C     C_3   0.508695 0.950354 0.275348 0.460134
C24   C     C_3   0.545576 0.974498 0.666620 0.425515
C25   C     C_3   0.001266 0.499770 0.310099 -0.448208
C26   C     C_3   0.998750 0.499663 0.689883 -0.448179
C27   C     C_3   0.501347 0.999944 0.309976 -0.446718
C28   C     C_3   0.501396 0.998386 0.687406 -0.453392
C29   C     C_3   0.001263 0.501077 0.187733 -0.466761
C30   C     C_3   0.998753 0.500986 0.812243 -0.466658
C31   C     C_3   0.501208 0.001334 0.187735 -0.466543
C32   C     C_3   0.500314 0.995560 0.810971 -0.455431
C33   C     C_3   0.043872 0.529559 0.170175 0.302376
C34   C     C_3   0.956004 0.529047 0.829815 0.302214
C35   C     C_3   0.542349 0.031838 0.171402 0.299457
C36   C     C_3   0.452723 0.977600 0.832550 0.304520
C37   C     C_3   0.004147 0.451159 0.206712 0.466984
C38   C     C_3   0.996134 0.451036 0.793204 0.467078
C39   C     C_3   0.506413 0.951606 0.204424 0.466433
C40   C     C_3   0.540301 0.965549 0.743823 0.520534
C41   C     C_R   0.655800 0.468137 0.881312 0.287578
C42   C     C_R   0.344048 0.468294 0.118737 0.288354
C43   C     C_R   0.155653 0.967325 0.880428 0.285897
C44   C     C_R   0.844270 0.967114 0.120217 0.285807
C45   C     C_R   0.633335 0.498985 0.866733 -0.238323
C46   C     C_R   0.366656 0.499056 0.133202 -0.238096
C47   C     C_R   0.133307 0.998752 0.866624 -0.237920
C48   C     C_R   0.866730 0.998907 0.133207 -0.238397
C49   C     C_R   0.656805 0.529169 0.806632 0.264268
C50   C     C_R   0.343318 0.529287 0.192960 0.264382
C51   C     C_R   0.156789 0.029191 0.807049 0.263993
C52   C     C_R   0.843351 0.030009 0.191407 0.263143
C53   C     C_R   0.702856 0.531058 0.765535 0.030408
C54   C     C_R   0.297287 0.531283 0.233823 0.030414
C55   C     C_R   0.202863 0.030757 0.765539 0.030355
C56   C     C_R   0.797354 0.031914 0.231865 0.030033
C57   C     C_R   0.725730 0.497907 0.775596 0.000966
C58   C     C_R   0.274257 0.498170 0.223978 0.000681
C59   C     C_R   0.225726 0.997454 0.775415 0.001083
C60   C     C_R   0.774358 0.998059 0.223403 0.001118
C61   C     C_R   0.702145 0.464484 0.830554 -0.128571
C62   C     C_R   0.297675 0.464722 0.169364 -0.128911
C63   C     C_R   0.202073 0.963872 0.830069 -0.129712
C64   C     C_R   0.797830 0.963827 0.170449 -0.129315
C65   C     C_R   0.726388 0.566126 0.715691 -0.080546
C66   C     C_R   0.273933 0.566412 0.283212 -0.080596
C67   C     C_R   0.226421 0.065696 0.715451 -0.082671
C68   C     C_R   0.774028 0.067747 0.279281 -0.078786
C69   C     C_R   0.771785 0.568504 0.676022 -0.075780
C70   C     C_R   0.228551 0.568849 0.322719 -0.075846
C71   C     C_R   0.271814 0.067867 0.675333 -0.077048
C72   C     C_R   0.728678 0.070076 0.318543 -0.075359
C73   C     C_R   0.795297 0.534738 0.681997 0.030480
C74   C     C_R   0.204869 0.535065 0.317097 0.030525
C75   C     C_R   0.295323 0.034185 0.681487 0.030509
C76   C     C_R   0.704950 0.035488 0.314899 0.026704
C77   C     C_R   0.772279 0.498434 0.730381 0.005241
C78   C     C_R   0.227716 0.498746 0.269091 0.005140
C79   C     C_R   0.272317 0.997983 0.730264 0.004371
C80   C     C_R   0.727804 0.998663 0.268326 0.005881
C81   C     C_R   0.795641 0.462770 0.733125 -0.127503
C82   C     C_R   0.204187 0.463085 0.266672 -0.127641
C83   C     C_R   0.295717 0.962473 0.733512 -0.129441
C84   C     C_R   0.704276 0.962546 0.267132 -0.128040
C85   C     C_R   0.771843 0.428602 0.786865 0.247258
C86   C     C_R   0.227791 0.428955 0.213166 0.247556
C87   C     C_R   0.271777 0.928118 0.786868 0.247480
C88   C     C_R   0.727914 0.927778 0.215106 0.247689
C89   C     C_R   0.725605 0.429061 0.834107 0.258844
C90   C     C_R   0.274028 0.429368 0.165983 0.259751
C91   C     C_R   0.225531 0.928410 0.833520 0.258269
C92   C     C_R   0.774159 0.928002 0.168334 0.258277
C93   C     C_R   0.841397 0.536740 0.639841 0.278841
C94   C     C_R   0.158768 0.537037 0.359261 0.278944
C95   C     C_R   0.341421 0.036188 0.638933 0.275496
C96   C     C_R   0.658837 0.037323 0.357176 0.281549
C97   C     C_R   0.865251 0.499443 0.636163 -0.232041
C98   C     C_R   0.134750 0.499666 0.363480 -0.232264
C99   C     C_R   0.365306 0.999313 0.636417 -0.228029
C100  C     C_R   0.634798 0.999702 0.362349 -0.223027
C101  C     C_R   0.841994 0.461508 0.680022 0.291715
C102  C     C_R   0.157858 0.461734 0.319951 0.292064
C103  C     C_R   0.342226 0.961651 0.681443 0.291288
C104  C     C_R   0.657905 0.961412 0.320128 0.287762
H9    H     H_    0.709816 0.592794 0.708610 0.212502
H10   H     H_    0.290641 0.593069 0.290062 0.212343
H11   H     H_    0.209896 0.092407 0.708358 0.212650
H12   H     H_    0.790750 0.095032 0.284666 0.212548
H13   H     H_    0.788361 0.596555 0.639039 0.215537
H14   H     H_    0.212112 0.596934 0.359355 0.215474
H15   H     H_    0.288366 0.095796 0.638020 0.215832
H16   H     H_    0.712364 0.098861 0.353222 0.216441
O17   O     O_R   0.962420 0.564820 0.037570 -0.537938
O18   O     O_R   0.037580 0.564820 0.962430 -0.538358
O19   O     O_R   0.462420 0.064820 0.037570 -0.549458
O20   O     O_R   0.537580 0.064820 0.962430 -0.528348
C105  C     C_R   0.000043 0.585704 0.999964 0.890087
C106  C     C_R   0.500183 0.085779 0.000832 0.840265
O21   O     O_R   0.962440 0.499950 0.128690 -0.530930
O22   O     O_R   0.037560 0.499950 0.871310 -0.530839
O23   O     O_R   0.462440 0.999950 0.128690 -0.529105
O24   O     O_R   0.537560 0.999950 0.871310 -0.512113
O25   O     O_R   0.037530 0.500000 0.053640 -0.529339
O26   O     O_R   0.962470 0.500000 0.946360 -0.529347
O27   O     O_R   0.537530 0.000000 0.053640 -0.528230
O28   O     O_R   0.462470 1.000000 0.946360 -0.544769
C107  C     C_R   0.000122 0.501393 0.119773 0.934075
C108  C     C_R   0.999886 0.501349 0.880210 0.934068
C109  C     C_R   0.500103 0.001481 0.119768 0.934667
C110  C     C_R   0.500109 0.997346 0.880116 0.891048
Cu5   Cu    Cu3+1 0.955510 0.499950 0.044460 1.300192
Cu6   Cu    Cu3+1 0.044490 0.499950 0.955540 1.300074
Cu7   Cu    Cu3+1 0.455510 0.999950 0.044460 1.285857
Cu8   Cu    Cu3+1 0.544490 0.999950 0.955540 1.309069
O29   O     O_R   0.962440 0.435080 0.037530 -0.531439
O30   O     O_R   0.037560 0.435080 0.962470 -0.531119
O31   O     O_R   0.462440 0.935080 0.037530 -0.523117
O32   O     O_R   0.537560 0.935080 0.962470 -0.534550
C111  C     C_R   0.999960 0.414068 0.000090 0.858508
C112  C     C_R   0.499952 0.914056 0.000958 0.864068
O33   O     O_R   0.499930 0.435080 0.947280 -0.539135
O34   O     O_R   0.500070 0.435080 0.052720 -0.539436
O35   O     O_R   0.999930 0.935080 0.947280 -0.537862
O36   O     O_R   0.000070 0.935080 0.052720 -0.537957
C113  C     C_R   0.499735 0.414759 0.000315 0.905459
C114  C     C_R   0.000023 0.914690 0.000025 0.905211
O37   O     O_R   0.564810 0.499970 0.882380 -0.541116
O38   O     O_R   0.435190 0.499970 0.117620 -0.541186
O39   O     O_R   0.064810 0.999970 0.882380 -0.541457
O40   O     O_R   0.935190 0.999970 0.117620 -0.541730
O41   O     O_R   0.564880 0.499960 0.987830 -0.541142
O42   O     O_R   0.435120 0.499960 0.012170 -0.541627
O43   O     O_R   0.064880 0.999960 0.987830 -0.541681
O44   O     O_R   0.935120 0.999960 0.012170 -0.541925
C115  C     C_R   0.585234 0.499802 0.914759 0.891453
C116  C     C_R   0.414763 0.499820 0.085236 0.890505
C117  C     C_R   0.085222 0.999752 0.914750 0.889515
C118  C     C_R   0.914791 0.999793 0.085230 0.890845
Cu9   Cu    Cu3+1 0.499930 0.499950 0.937580 1.242016
Cu10  Cu    Cu3+1 0.500070 0.499950 0.062420 1.242182
Cu11  Cu    Cu3+1 0.999930 0.999950 0.937580 1.244453
Cu12  Cu    Cu3+1 0.000070 0.999950 0.062420 1.244240
O45   O     O_R   0.499950 0.564810 0.947310 -0.539859
O46   O     O_R   0.500050 0.564810 0.052690 -0.540034
O47   O     O_R   0.999950 0.064810 0.947310 -0.539856
O48   O     O_R   0.000050 0.064810 0.052690 -0.539304
C119  C     C_R   0.500034 0.585125 0.999930 0.922396
C120  C     C_R   0.000003 0.085129 0.999948 0.923222
C121  C     C_R   0.532316 0.343995 0.935833 0.355365
C122  C     C_R   0.466720 0.344125 0.066274 0.354887
C123  C     C_R   0.030623 0.843879 0.933078 0.359504
C124  C     C_R   0.969847 0.843593 0.067048 0.360074
C125  C     C_R   0.499498 0.366705 0.000737 -0.192662
C126  C     C_R   0.000146 0.866538 0.000041 -0.191671
C127  C     C_R   0.468814 0.297731 0.069610 -0.091775
C128  C     C_R   0.530568 0.297529 0.934007 -0.090962
C129  C     C_R   0.972951 0.797293 0.069174 -0.092576
C130  C     C_R   0.027697 0.797553 0.930882 -0.092160
C131  C     C_R   0.499745 0.274387 0.002180 -0.052483
C132  C     C_R   0.000328 0.774138 0.000006 -0.050730
C133  C     C_R   0.441502 0.273975 0.138170 0.276910
C134  C     C_R   0.558752 0.273437 0.866446 0.277537
C135  C     C_R   0.949873 0.773504 0.138094 0.276720
C136  C     C_R   0.050898 0.773999 0.861934 0.276740
C137  C     C_R   0.949262 0.727324 0.137659 0.341591
C138  C     C_R   0.051463 0.727812 0.862295 0.341144
C139  C     C_R   0.440836 0.227775 0.137883 0.340193
C140  C     C_R   0.560777 0.227461 0.868759 0.334633
C141  C     C_R   0.971890 0.704111 0.068397 -0.090131
C142  C     C_R   0.028698 0.704330 0.931528 -0.090091
C143  C     C_R   0.468055 0.204344 0.069297 -0.090243
C144  C     C_R   0.533097 0.204562 0.937811 -0.092134
C145  C     C_R   0.000319 0.727540 0.999974 -0.051206
C146  C     C_R   0.500074 0.227787 0.002977 -0.051986
C147  C     C_R   0.968004 0.657954 0.065564 0.306559
C148  C     C_R   0.032358 0.658126 0.934347 0.305799
C149  C     C_R   0.465315 0.158013 0.065137 0.311208
C150  C     C_R   0.537097 0.158791 0.943119 0.292571
C151  C     C_R   0.000137 0.634547 0.999958 -0.240129
C152  C     C_R   0.500800 0.134720 0.002885 -0.257571
C153  C     C_R   0.534852 0.655803 0.994101 0.325443
C154  C     C_R   0.465456 0.655951 0.005989 0.326024
C155  C     C_R   0.034044 0.155937 0.996122 0.325779
C156  C     C_R   0.966043 0.155848 0.003420 0.327518
C157  C     C_R   0.500168 0.633071 0.999800 -0.182601
C158  C     C_R   0.000033 0.133081 0.999807 -0.182493
C159  C     C_R   0.464281 0.702194 0.010355 -0.014723
C160  C     C_R   0.535852 0.702088 0.991166 -0.014894
C161  C     C_R   0.964951 0.202111 0.006902 -0.015594
C162  C     C_R   0.035006 0.202217 0.993081 -0.015236
C163  C     C_R   0.500043 0.725397 0.001054 0.008896
C164  C     C_R   0.999944 0.225423 0.000108 0.008771
C165  C     C_R   0.428378 0.725760 0.022700 -0.122595
C166  C     C_R   0.571495 0.725572 0.980189 -0.124211
C167  C     C_R   0.929958 0.225578 0.015653 -0.124160
C168  C     C_R   0.069918 0.225798 0.984613 -0.124370
C169  C     C_R   0.928638 0.271390 0.018837 0.317422
C170  C     C_R   0.071127 0.271622 0.981809 0.317646
C171  C     C_R   0.426944 0.771552 0.027060 0.317556
C172  C     C_R   0.572671 0.771414 0.977691 0.318104
C173  C     C_R   0.963000 0.295179 0.013880 -0.071866
C174  C     C_R   0.036763 0.295302 0.986775 -0.071963
C175  C     C_R   0.462262 0.795195 0.019031 -0.073915
C176  C     C_R   0.537464 0.795214 0.985687 -0.070841
C177  C     C_R   0.999897 0.272026 0.000269 -0.023803
C178  C     C_R   0.499957 0.771992 0.001784 -0.023535
C179  C     C_R   0.960918 0.341218 0.024371 0.281320
C180  C     C_R   0.038866 0.341354 0.976251 0.281516
C181  C     C_R   0.460343 0.841128 0.030240 0.290153
C182  C     C_R   0.539244 0.841327 0.975708 0.277902
C183  C     C_R   0.999903 0.365054 0.000256 -0.242778
C184  C     C_R   0.499846 0.865019 0.002380 -0.242304
H17   H     H_    0.401063 0.709039 0.028018 0.235291
H18   H     H_    0.598747 0.708726 0.974768 0.235732
H19   H     H_    0.903370 0.208762 0.018719 0.235725
H20   H     H_    0.096510 0.209057 0.981525 0.235677
Cl1   Cl    Cl    0.047778 0.420795 0.126262 -0.323500
Cl2   Cl    Cl    0.952677 0.420258 0.873673 -0.324951
Cl3   Cl    Cl    0.551327 0.923039 0.122789 -0.318948
Cl4   Cl    Cl    0.530228 0.908044 0.770225 -0.347057
Cl5   Cl    Cl    0.091720 0.520084 0.235968 -0.389263
Cl6   Cl    Cl    0.908196 0.519049 0.764047 -0.389020
Cl7   Cl    Cl    0.590850 0.024557 0.236308 -0.388917
Cl8   Cl    Cl    0.459688 0.915523 0.729321 -0.284707
N1    N     N_R   0.086753 0.509885 0.106776 0.196244
O49   O     O_R   0.108368 0.527880 0.039863 -0.200897
O50   O     O_R   0.106788 0.478268 0.115702 -0.156117
N2    N     N_R   0.913211 0.508959 0.893196 0.196288
O51   O     O_R   0.891437 0.526812 0.960074 -0.200387
O52   O     O_R   0.893381 0.477087 0.884258 -0.155579
N3    N     N_R   0.586078 0.014306 0.106935 0.195869
O53   O     O_R   0.606623 0.033294 0.040907 -0.197545
O54   O     O_R   0.607618 0.983576 0.114108 -0.158415
N4    N     N_R   0.439273 0.934163 0.872564 0.216916
O55   O     O_R   0.403149 0.915639 0.888835 -0.124276
O56   O     O_R   0.453778 0.920801 0.911115 -0.288814
N5    N     N_R   0.631853 0.443183 0.950386 0.164973
O57   O     O_R   0.601453 0.415271 0.964309 -0.281840
O58   O     O_R   0.638675 0.450529 0.001671 -0.231845
N6    N     N_R   0.367897 0.443371 0.049852 0.164973
O59   O     O_R   0.398083 0.415375 0.036253 -0.283138
O60   O     O_R   0.361238 0.450854 0.998379 -0.232916
N7    N     N_R   0.131297 0.941154 0.948087 0.163964
O61   O     O_R   0.101427 0.913384 0.959255 -0.288896
O62   O     O_R   0.136643 0.947728 0.001319 -0.231211
N8    N     N_R   0.868528 0.940445 0.053388 0.163782
O63   O     O_R   0.898375 0.913023 0.042977 -0.289926
O64   O     O_R   0.863148 0.946256 0.000018 -0.230461
N9    N     N_R   0.633992 0.558518 0.788371 0.133561
O65   O     O_R   0.642515 0.557696 0.721330 -0.263045
O66   O     O_R   0.605223 0.586415 0.837950 -0.314893
N10   N     N_R   0.366247 0.558578 0.211092 0.133657
O67   O     O_R   0.357553 0.557798 0.278260 -0.263218
O68   O     O_R   0.395250 0.586425 0.161296 -0.316442
N11   N     N_R   0.133908 0.059147 0.789803 0.132317
O69   O     O_R   0.141610 0.058547 0.723354 -0.263456
O70   O     O_R   0.105663 0.087159 0.839927 -0.316757
N12   N     N_R   0.866198 0.060114 0.208565 0.133273
O71   O     O_R   0.857048 0.060828 0.276050 -0.261453
O72   O     O_R   0.895686 0.087119 0.157487 -0.319565
N13   N     N_R   0.863724 0.576450 0.599478 0.137896
O73   O     O_R   0.879986 0.580179 0.528266 -0.261999
O74   O     O_R   0.862636 0.610778 0.636264 -0.241667
N14   N     N_R   0.136609 0.576756 0.399165 0.137831
O75   O     O_R   0.120648 0.580683 0.470195 -0.261449
O76   O     O_R   0.137645 0.610946 0.362022 -0.241284
N15   N     N_R   0.363780 0.075468 0.596827 0.136222
O77   O     O_R   0.380473 0.077779 0.525288 -0.266562
O78   O     O_R   0.362675 0.110626 0.632033 -0.256086
N16   N     N_R   0.636605 0.077051 0.396885 0.137281
O79   O     O_R   0.627907 0.084600 0.463058 -0.212316
O80   O     O_R   0.631138 0.108321 0.362124 -0.238055
N17   N     N_R   0.864676 0.420446 0.664946 0.162863
O81   O     O_R   0.888597 0.413155 0.689550 -0.190179
O82   O     O_R   0.861170 0.390108 0.626540 -0.220734
N18   N     N_R   0.135122 0.420535 0.335762 0.162969
O83   O     O_R   0.111053 0.412893 0.311547 -0.190106
O84   O     O_R   0.138957 0.390313 0.374046 -0.221911
N19   N     N_R   0.365564 0.921376 0.669374 0.163456
O85   O     O_R   0.389303 0.916600 0.694971 -0.200573
O86   O     O_R   0.364588 0.890081 0.629571 -0.220513
N20   N     N_R   0.635157 0.920089 0.337488 0.163666
O87   O     O_R   0.611164 0.911452 0.313439 -0.191943
O88   O     O_R   0.638765 0.890814 0.377315 -0.217232
N21   N     N_R   0.794069 0.394387 0.797894 0.184202
O89   O     O_R   0.791148 0.353685 0.782406 -0.176572
O90   O     O_R   0.810388 0.402836 0.835615 -0.170286
N22   N     N_R   0.205362 0.394870 0.202259 0.184259
O91   O     O_R   0.208152 0.354080 0.217647 -0.178830
O92   O     O_R   0.188841 0.403584 0.164931 -0.171075
N23   N     N_R   0.293764 0.893461 0.797545 0.184161
O93   O     O_R   0.291445 0.853130 0.779793 -0.180066
O94   O     O_R   0.308587 0.900830 0.837879 -0.171197
N24   N     N_R   0.705523 0.893137 0.205237 0.183986
O95   O     O_R   0.708123 0.852690 0.222305 -0.178144
O96   O     O_R   0.689183 0.900897 0.167340 -0.171811
Cl9   Cl    Cl    0.906978 0.502689 0.419077 -0.395658
Cl10  Cl    Cl    0.093019 0.503538 0.580893 -0.395543
Cl11  Cl    Cl    0.406941 0.998357 0.419018 -0.395474
Cl12  Cl    Cl    0.537873 0.087087 0.645382 -0.288808
N25   N     N_R   0.702999 0.391303 0.881107 0.184418
O97   O     O_R   0.682148 0.364779 0.864962 -0.208434
O98   O     O_R   0.707991 0.380279 0.933485 -0.176954
N26   N     N_R   0.296422 0.391639 0.119221 0.183971
O99   O     O_R   0.317021 0.364970 0.135654 -0.211421
O100  O     O_R   0.291436 0.380776 0.066812 -0.180195
N27   N     N_R   0.202965 0.890426 0.879854 0.184389
O101  O     O_R   0.183006 0.863657 0.862220 -0.211715
O102  O     O_R   0.207433 0.879339 0.932815 -0.177761
N28   N     N_R   0.796486 0.889744 0.123184 0.184353
O103  O     O_R   0.816387 0.863413 0.141508 -0.211030
O104  O     O_R   0.791874 0.878009 0.070676 -0.177634
Cl13  Cl    Cl    0.577897 0.374883 0.861816 -0.416953
Cl14  Cl    Cl    0.421078 0.375020 0.139449 -0.418927
Cl15  Cl    Cl    0.075379 0.874100 0.856327 -0.412017
Cl16  Cl    Cl    0.925089 0.873391 0.144036 -0.409273
N29   N     N_R   0.418232 0.296001 0.209718 0.197962
O105  O     O_R   0.440121 0.315664 0.231408 -0.215828
O106  O     O_R   0.375484 0.293192 0.255883 -0.176266
N30   N     N_R   0.581786 0.294616 0.793990 0.197028
O107  O     O_R   0.559693 0.312948 0.771598 -0.219940
O108  O     O_R   0.624603 0.292932 0.748264 -0.171197
N31   N     N_R   0.931555 0.795540 0.208713 0.197038
O109  O     O_R   0.957245 0.817123 0.220390 -0.216703
O110  O     O_R   0.889800 0.791690 0.263065 -0.174952
N32   N     N_R   0.069391 0.796279 0.791296 0.197094
O111  O     O_R   0.043805 0.817695 0.779246 -0.216812
O112  O     O_R   0.111208 0.792745 0.737234 -0.175450
Cl17  Cl    Cl    0.927051 0.700050 0.225064 -0.295661
Cl18  Cl    Cl    0.073837 0.700909 0.774734 -0.295875
Cl19  Cl    Cl    0.411841 0.200946 0.227063 -0.295594
Cl20  Cl    Cl    0.592569 0.199336 0.781192 -0.278377
N33   N     N_R   0.930167 0.635370 0.127285 0.177463
O113  O     O_R   0.934495 0.607008 0.167302 -0.240825
O114  O     O_R   0.890899 0.646141 0.147702 -0.218572
N34   N     N_R   0.069941 0.635591 0.872487 0.177398
O115  O     O_R   0.065241 0.607522 0.832641 -0.241503
O116  O     O_R   0.109342 0.646014 0.851946 -0.218091
N35   N     N_R   0.426168 0.134961 0.122654 0.175377
O117  O     O_R   0.427210 0.107775 0.167832 -0.223680
O118  O     O_R   0.388663 0.144002 0.133947 -0.232432
N36   N     N_R   0.579850 0.138823 0.895567 0.179616
O119  O     O_R   0.588665 0.111468 0.842633 -0.193069
O120  O     O_R   0.611846 0.153009 0.898254 -0.215016
Cl21  Cl    Cl    0.577248 0.625816 0.989584 -0.492315
Cl22  Cl    Cl    0.423178 0.626198 0.009615 -0.491561
Cl23  Cl    Cl    0.075862 0.126110 0.993683 -0.490017
Cl24  Cl    Cl    0.924508 0.125957 0.004917 -0.489174
N37   N     N_R   0.894755 0.292975 0.018063 0.169797
O121  O     O_R   0.853724 0.281880 0.067285 -0.218933
O122  O     O_R   0.905471 0.315249 0.958482 -0.186457
N38   N     N_R   0.104893 0.293292 0.982942 0.169642
O123  O     O_R   0.145953 0.282416 0.933983 -0.220449
O124  O     O_R   0.094004 0.315451 0.042585 -0.187422
N39   N     N_R   0.391785 0.793385 0.030510 0.167851
O125  O     O_R   0.351121 0.782332 0.082463 -0.220775
O126  O     O_R   0.400582 0.816021 0.972402 -0.188380
N40   N     N_R   0.607433 0.792934 0.976061 0.169784
O127  O     O_R   0.648226 0.782195 0.924782 -0.218973
O128  O     O_R   0.598014 0.814695 0.035176 -0.188223
N41   N     N_R   0.918530 0.362307 0.067458 0.164433
O129  O     O_R   0.890553 0.352417 0.138519 -0.227777
O130  O     O_R   0.905770 0.386980 0.034651 -0.185988
N42   N     N_R   0.081287 0.362593 0.933122 0.164510
O131  O     O_R   0.109252 0.352883 0.862079 -0.228461
O132  O     O_R   0.094080 0.387227 0.965882 -0.186193
N43   N     N_R   0.417961 0.861650 0.079571 0.163155
O133  O     O_R   0.394042 0.852071 0.151201 -0.227083
O134  O     O_R   0.400826 0.885083 0.052673 -0.178804
N44   N     N_R   0.581531 0.862755 0.931301 0.163806
O135  O     O_R   0.608645 0.853514 0.859867 -0.227176
O136  O     O_R   0.595076 0.887201 0.963098 -0.185421
N45   N     N_R   0.914551 0.510347 0.274733 0.226458
O137  O     O_R   0.892723 0.539428 0.264848 -0.203852
O138  O     O_R   0.893860 0.474446 0.310800 -0.142057
N46   N     N_R   0.085411 0.511072 0.725274 0.226446
O139  O     O_R   0.107076 0.540327 0.735294 -0.203874
O140  O     O_R   0.106296 0.475405 0.689078 -0.142205
N47   N     N_R   0.414177 0.007246 0.274915 0.225764
O141  O     O_R   0.391581 0.035624 0.265557 -0.207592
O142  O     O_R   0.394785 0.970518 0.309200 -0.140753
N48   N     N_R   0.540853 0.072275 0.771743 0.209821
O143  O     O_R   0.535498 0.114823 0.779581 -0.227318
O144  O     O_R   0.575977 0.055881 0.761620 -0.171833
N49   N     N_R   0.030898 0.579700 0.277197 0.157651
O145  O     O_R   0.002960 0.605268 0.276815 -0.289167
O146  O     O_R   0.053456 0.597731 0.299091 -0.180444
N50   N     N_R   0.968698 0.579297 0.722858 0.157650
O147  O     O_R   0.996525 0.605146 0.723204 -0.289491
O148  O     O_R   0.946017 0.597098 0.701041 -0.180887
N51   N     N_R   0.527269 0.081273 0.280577 0.158333
O149  O     O_R   0.497922 0.105410 0.281943 -0.293339
O150  O     O_R   0.549406 0.100542 0.302289 -0.176837
N52   N     N_R   0.416544 0.989178 0.764740 0.162344
O151  O     O_R   0.416238 0.022515 0.727369 -0.369426
O152  O     O_R   0.379118 0.969746 0.813607 -0.164545
N53   N     N_R   0.044314 0.575021 0.143628 0.164865
O153  O     O_R   0.017877 0.587424 0.126298 -0.362628
O154  O     O_R   0.076353 0.601689 0.126549 -0.166763
N54   N     N_R   0.955352 0.574512 0.856379 0.165045
O155  O     O_R   0.981772 0.587204 0.873613 -0.361531
O156  O     O_R   0.923185 0.600870 0.873481 -0.166463
N55   N     N_R   0.540395 0.077254 0.147156 0.162740
O157  O     O_R   0.512964 0.088377 0.131294 -0.365019
O158  O     O_R   0.571139 0.105500 0.131003 -0.163615
N56   N     N_R   0.416157 0.008707 0.885817 0.136302
O159  O     O_R   0.388052 0.997845 0.956567 -0.184023
O160  O     O_R   0.407496 0.044334 0.863301 -0.310485
Cl25  Cl    Cl    0.058856 0.427426 0.250066 -0.273275
Cl26  Cl    Cl    0.941543 0.426715 0.749862 -0.272138
Cl27  Cl    Cl    0.562330 0.930614 0.246582 -0.279617
Cl28  Cl    Cl    0.558513 0.922771 0.614815 -0.304626
N57   N     N_R   0.972726 0.418492 0.336799 0.186074
O161  O     O_R   0.984740 0.385014 0.358452 -0.184558
O162  O     O_R   0.931215 0.420631 0.364101 -0.177040
N58   N     N_R   0.027716 0.418707 0.663025 0.185668
O163  O     O_R   0.015890 0.385186 0.641162 -0.185071
O164  O     O_R   0.069208 0.421226 0.635790 -0.177492
N59   N     N_R   0.476733 0.917336 0.332640 0.187797
O165  O     O_R   0.490449 0.884252 0.352077 -0.183368
O166  O     O_R   0.435105 0.917606 0.360384 -0.176438
N60   N     N_R   0.584036 0.002485 0.611130 0.182888
O167  O     O_R   0.596986 0.003277 0.541261 -0.316632
O168  O     O_R   0.604761 0.028016 0.628657 -0.161470
Cl29  Cl    Cl    0.960811 0.418144 0.216604 -0.366692
Cl30  Cl    Cl    0.039636 0.418444 0.783257 -0.366277
Cl31  Cl    Cl    0.464361 0.916921 0.213093 -0.369721
Cl32  Cl    Cl    0.593200 0.967344 0.729187 -0.282674

loop_
_geom_bond_atom_site_label_1
_geom_bond_atom_site_label_2
_geom_bond_distance
_ccdc_geom_bond_type
O48   C120  1.303446 A    
N47   O141  1.301289 A    
C173  C177  1.415160 A    
C54   C66   1.402110 A    
C59   C63   1.415864 A    
O28   Cu7   1.996288 S    
C71   C75   1.403073 A    
N7    O61   1.300556 A    
C75   C95   1.401355 A    
C176  C182  1.410561 A    
N11   O70   1.299862 A    
C42   C62   1.413757 A    
N21   O89   1.301230 A    
N10   O67   1.301113 A    
N4    O55   1.303186 A    
C18   C34   1.622869 S    
O37   C115  1.304683 A    
N39   O126  1.301465 A    
O28   C110  1.304640 A    
C11   Cl11  1.801614 S    
N37   O122  1.301047 A    
C60   C80   1.412593 A    
C67   C71   1.382760 A    
C129  C135  1.416309 A    
C180  C183  1.421620 A    
C9    H1    1.098372 S    
C72   C76   1.403447 A    
C149  C152  1.416127 A    
C10   C14   1.555567 S    
C113  C125  1.457446 S    
O22   Cu6   1.995556 S    
O16   C8    1.295785 A    
O26   C108  1.297871 A    
N58   O163  1.303623 A    
C42   C46   1.410162 A    
C169  N37   1.432598 S    
O25   C107  1.297844 A    
O4    C4    1.306659 A    
O21   C107  1.302612 A    
O17   C105  1.303809 A    
C140  Cl20  1.773567 S    
C150  C152  1.415657 A    
C120  C158  1.454358 S    
C174  C177  1.414931 A    
C7    C27   1.499155 S    
C165  H17   1.081513 S    
C111  C183  1.486560 S    
C12   Cl12  1.813648 S    
N30   O107  1.301291 A    
O38   Cu10  1.978663 S    
C102  N18   1.433681 S    
C141  C145  1.416305 A    
C162  C164  1.413565 A    
N20   O87   1.299449 A    
O46   C119  1.303130 A    
O33   Cu9   1.978459 S    
C58   C62   1.415319 A    
C98   C102  1.421144 A    
N24   O95   1.301240 A    
N36   O120  1.300982 A    
O41   Cu10  1.977855 S    
O16   Cu4   1.996323 S    
O36   Cu12  1.979078 S    
C70   C74   1.403220 A    
O13   C5    1.294354 A    
O7    Cu4   1.980819 S    
C124  Cl16  1.779074 S    
N34   O116  1.301117 A    
O15   C7    1.295499 A    
O42   Cu9   1.977862 S    
O43   Cu12  1.977855 S    
C50   C54   1.401891 A    
C172  N40   1.432596 S    
N11   O69   1.301105 A    
C10   Cl10  1.801716 S    
N26   O99   1.301087 A    
C156  C158  1.405659 A    
N12   O71   1.301126 A    
O9    C5    1.303146 A    
C34   N2    1.501751 S    
C14   N46   1.481451 S    
N59   O166  1.297649 A    
C70   H14   1.082552 S    
C173  C179  1.410133 A    
C172  C176  1.418409 A    
C97   C101  1.420806 A    
N33   O113  1.298865 A    
O8    Cu4   1.979791 S    
N40   O128  1.301084 A    
N35   O117  1.300485 A    
C62   C90   1.416512 A    
N50   O147  1.303453 A    
C49   N9    1.438243 S    
O38   C116  1.304852 A    
C137  C141  1.416290 A    
C165  C171  1.391209 A    
O3    Cu2   1.978556 S    
C56   C60   1.416368 A    
N22   O91   1.301236 A    
C85   N21   1.433321 S    
C29   C33   1.645143 S    
C4    C100  1.485115 S    
C8    C28   1.501852 S    
C31   C35   1.642308 S    
C17   N49   1.509840 S    
C32   C36   1.641393 S    
N54   O155  1.299864 A    
C179  N41   1.437560 S    
C153  C160  1.404625 A    
C22   C26   1.634515 S    
N29   O105  1.301301 A    
C21   C25   1.634777 S    
N45   O138  1.299313 A    
C155  C158  1.405418 A    
C170  N38   1.432675 S    
N3    O54   1.298321 A    
N53   O153  1.299754 A    
N48   O144  1.295156 A    
O3    C3    1.306148 A    
O40   C118  1.304034 A    
C18   N50   1.509836 S    
Cu9   Cu10  2.721405 S    
C59   C79   1.413519 A    
N5    O58   1.301015 A    
N17   O81   1.299230 A    
C154  Cl22  1.777137 S    
C23   Cl27  1.815964 S    
C45   C49   1.406630 A    
C75   C79   1.415548 A    
N41   O129  1.300848 A    
C47   C51   1.405269 A    
O19   Cu7   1.978080 S    
C124  C126  1.402395 A    
Cu7   O31   1.979176 S    
O42   C116  1.304673 A    
C141  C147  1.412340 A    
N45   O137  1.300700 A    
C16   C32   1.584878 S    
C3    C99   1.482728 S    
N43   O133  1.300780 A    
C6    C26   1.498516 S    
N57   O161  1.303631 A    
C139  Cl19  1.775460 S    
C105  C151  1.481391 S    
C133  C139  1.401504 A    
C12   H4    1.104274 S    
N42   O131  1.300854 A    
N7    O62   1.300994 A    
C21   N57   1.497695 S    
C65   H9    1.082388 S    
N51   O150  1.304019 A    
Cu5   Cu6   2.698936 S    
C45   C115  1.459253 S    
C35   N55   1.491389 S    
C46   C116  1.459325 S    
C53   C65   1.401966 A    
N14   O75   1.300037 A    
C149  N35   1.433962 S    
C88   N24   1.433439 S    
C92   N28   1.435029 S    
N32   O111  1.301339 A    
C159  C165  1.399929 A    
N16   O80   1.300704 A    
C31   C39   1.589218 S    
O5    Cu3   1.980819 S    
O17   Cu5   1.978080 S    
C156  Cl24  1.777698 S    
C123  C126  1.402335 A    
N43   O134  1.300716 A    
N56   O159  1.303559 A    
C155  Cl23  1.777720 S    
C82   C86   1.419896 A    
C89   N25   1.435239 S    
C50   N10   1.438193 S    
O26   Cu5   1.996288 S    
C17   C25   1.626038 S    
C18   Cl6   1.828676 S    
Cu8   O32   1.978145 S    
O32   C112  1.305648 A    
N9    O66   1.299803 A    
C71   H15   1.082513 S    
C58   C78   1.412077 A    
C167  H19   1.081444 S    
C163  C178  1.413288 A    
C153  C157  1.405300 A    
C41   C61   1.413904 A    
C69   H13   1.082550 S    
O36   C114  1.305163 A    
N44   O136  1.300713 A    
N13   O74   1.300766 A    
C174  C180  1.409750 A    
C43   C47   1.409170 A    
C10   H2    1.098343 S    
O13   Cu3   1.995716 S    
C23   N59   1.497710 S    
C148  N34   1.433207 S    
C138  C142  1.416614 A    
N19   O86   1.300951 A    
N60   O167  1.301296 A    
N18   O83   1.299266 A    
C175  C178  1.414670 A    
C166  C172  1.391003 A    
C88   C92   1.402792 A    
N6    O60   1.301019 A    
C138  Cl18  1.775437 S    
C101  N17   1.433453 S    
C93   C97   1.413179 A    
C36   N4    1.494312 S    
C95   C99   1.411713 A    
O8    C4    1.301814 A    
O47   C120  1.303164 A    
C166  H18   1.081485 S    
C144  C150  1.408090 A    
C23   C39   1.595774 S    
N28   O104  1.301304 A    
O15   Cu4   1.995716 S    
C30   C108  1.504993 S    
C85   C89   1.402836 A    
C83   C103  1.416500 A    
N46   O139  1.300661 A    
C40   Cl32  1.806817 S    
C61   C89   1.416460 A    
C87   C91   1.402826 A    
C95   N15   1.435330 S    
C156  C161  1.404643 A    
C63   C91   1.416397 A    
C135  N31   1.435169 S    
C84   C88   1.419874 A    
C142  C145  1.416442 A    
C122  Cl14  1.779415 S    
C169  C173  1.418129 A    
C135  C137  1.400900 A    
O14   C6    1.294706 A    
C79   C83   1.414290 A    
C48   C52   1.405596 A    
N38   O123  1.301097 A    
N35   O118  1.301101 A    
C52   N12   1.438363 S    
C103  N19   1.433850 S    
O1    Cu1   1.978556 S    
C76   C96   1.402222 A    
C171  C175  1.417407 A    
N4    O56   1.299780 A    
C160  C163  1.413350 A    
Cu10  O46   1.978271 S    
C181  C184  1.421187 A    
O10   C6    1.302776 A    
C64   C92   1.416763 A    
N37   O121  1.301088 A    
C143  C146  1.416106 A    
C81   C101  1.414646 A    
C35   N3    1.501066 S    
C106  C152  1.485627 S    
C68   C72   1.383548 A    
N1    O50   1.298302 A    
C133  N29   1.434485 S    
C41   N5    1.436924 S    
C22   Cl26  1.815639 S    
C13   H5    1.106396 S    
O45   C119  1.303360 A    
O37   Cu9   1.978660 S    
N55   O157  1.300472 A    
C1    C97   1.483589 S    
Cu11  O47   1.978890 S    
C16   H8    1.104151 S    
N2    O51   1.304058 A    
C20   Cl8   1.818174 S    
C93   N13   1.435039 S    
C161  C164  1.413414 A    
O34   Cu10  1.979078 S    
O33   C113  1.304468 A    
C127  C133  1.418121 A    
C34   N54   1.490851 S    
N52   O151  1.301162 A    
C2    C98   1.483715 S    
C53   C57   1.416126 A    
C30   C34   1.645205 S    
O19   C106  1.308782 A    
C55   C59   1.417068 A    
C20   N52   1.486491 S    
C124  C129  1.412052 A    
C65   C69   1.383998 A    
N8    O64   1.301000 A    
C52   C56   1.401419 A    
C37   Cl1   1.804414 S    
N30   O108  1.301564 A    
Cu7   Cu8   2.698936 S    
C68   H12   1.082443 S    
O5    C1    1.301856 A    
N25   O97   1.301094 A    
N20   O88   1.300904 A    
C155  C162  1.404560 A    
Cu6   O30   1.978145 S    
C86   N22   1.433389 S    
C19   C35   1.623575 S    
N8    O63   1.300453 A    
C44   C64   1.414502 A    
N24   O96   1.300986 A    
C20   C36   1.610705 S    
C66   C70   1.384265 A    
N31   O109  1.301343 A    
C114  C126  1.460446 S    
O39   C117  1.304091 A    
C121  C128  1.412375 A    
C136  N32   1.435128 S    
O44   C118  1.304687 A    
C153  Cl21  1.777421 S    
C77   C81   1.412523 A    
C14   C30   1.614567 S    
N50   O148  1.303998 A    
N49   O146  1.303994 A    
N26   O100  1.301301 A    
N12   O72   1.299699 A    
N3    O53   1.304060 A    
C41   C45   1.410110 A    
C168  H20   1.081434 S    
C96   C100  1.413539 A    
N15   O77   1.300084 A    
O18   C105  1.304259 A    
C24   N60   1.488397 S    
N10   O68   1.299790 A    
N21   O90   1.300994 A    
O12   Cu2   1.995500 S    
O24   Cu8   1.995556 S    
O35   C114  1.305386 A    
N27   O102  1.301290 A    
C161  C167  1.399674 A    
C140  C144  1.413491 A    
C181  N43   1.438077 S    
O1    C1    1.305889 A    
N22   O92   1.300998 A    
C57   C61   1.415239 A    
C23   C27   1.633915 S    
C54   C58   1.416030 A    
C123  C130  1.412179 A    
C73   C93   1.401893 A    
C80   C84   1.412415 A    
N54   O156  1.303844 A    
O7    C3    1.300987 A    
N51   O149  1.303323 A    
N5    O57   1.300384 A    
C36   N56   1.503555 S    
C10   C26   1.562631 S    
C150  N36   1.436695 S    
C104  N20   1.433999 S    
N23   O93   1.301224 A    
N31   O110  1.301489 A    
C128  C131  1.423774 A    
C49   C53   1.401756 A    
C15   C31   1.615348 S    
C18   C26   1.626044 S    
C94   N14   1.434909 S    
C154  C159  1.404893 A    
C84   C104  1.414620 A    
O40   Cu12  1.978663 S    
O20   C106  1.301927 A    
C136  C138  1.401107 A    
C42   N6    1.436956 S    
C11   H3    1.098522 S    
O23   Cu7   1.995556 S    
C180  N42   1.437626 S    
C90   N26   1.435198 S    
C148  C151  1.412028 A    
C51   N11   1.438138 S    
C76   C80   1.414937 A    
C39   Cl31  1.803577 S    
N47   O142  1.299470 A    
C176  C178  1.414909 A    
C15   N47   1.480385 S    
O24   C110  1.296847 A    
C159  C163  1.413550 A    
O30   C111  1.305096 A    
C29   C37   1.588935 S    
C134  N30   1.434729 S    
O6    C2    1.301363 A    
O4    Cu2   1.979578 S    
N18   O84   1.300889 A    
C142  C148  1.412832 A    
N36   O119  1.299032 A    
C147  N33   1.433493 S    
O27   Cu8   1.996291 S    
C99   C103  1.421023 A    
N42   O132  1.300576 A    
C112  C184  1.487483 S    
N19   O85   1.299862 A    
N6    O59   1.300376 A    
C51   C55   1.401505 A    
C31   C109  1.504335 S    
C134  C140  1.398988 A    
C17   C33   1.623093 S    
N14   O76   1.300750 A    
C82   C102  1.414237 A    
O2    Cu1   1.979578 S    
C147  C151  1.412019 A    
C130  C136  1.416329 A    
O27   C109  1.298195 A    
Cu11  Cu12  2.721405 S    
N32   O112  1.301487 A    
C40   Cl4   1.804921 S    
C43   C63   1.414989 A    
C32   C40   1.630969 S    
C19   N51   1.510027 S    
C46   C50   1.406732 A    
C9    C13   1.555576 S    
C122  C127  1.413443 A    
N33   O114  1.301120 A    
C33   N1    1.501663 S    
N40   O127  1.301096 A    
C119  C157  1.454169 S    
N56   O160  1.302230 A    
O22   C108  1.302579 A    
C11   C27   1.562407 S    
C74   C94   1.402150 A    
O23   C109  1.301942 A    
C12   C28   1.591428 S    
C22   N58   1.497675 S    
N55   O158  1.303792 A    
O34   C113  1.304152 A    
C33   N53   1.490658 S    
N9    O65   1.301117 A    
O12   C8    1.303090 A    
N39   O125  1.301297 A    
C44   C48   1.409279 A    
O21   Cu5   1.995556 S    
N34   O115  1.298867 A    
C182  N44   1.437311 S    
C144  C146  1.413472 A    
N13   O73   1.300037 A    
C17   Cl5   1.828651 S    
C29   C107  1.504970 S    
C164  C177  1.413436 A    
C21   C37   1.596592 S    
C32   C110  1.502230 S    
C14   H6    1.106386 S    
C139  C143  1.416525 A    
N29   O106  1.301520 A    
N60   O168  1.298222 A    
C162  C168  1.399574 A    
O35   Cu11  1.978459 S    
C154  C157  1.405281 A    
C56   C68   1.401511 A    
C160  C166  1.399627 A    
N53   O154  1.303841 A    
N48   O143  1.302257 A    
C72   H16   1.082177 S    
C30   C38   1.589064 S    
N27   O101  1.301079 A    
C168  C170  1.390599 A    
N17   O82   1.300885 A    
C121  C125  1.400644 A    
O44   Cu11  1.977862 S    
N41   O130  1.300580 A    
Cu9   O45   1.978890 S    
C24   C40   1.597531 S    
C81   C85   1.420120 A    
N46   O140  1.299313 A    
N25   O98   1.301295 A    
C37   Cl29  1.803236 S    
O9    Cu1   1.996114 S    
C47   C117  1.458905 S    
C43   N7    1.436428 S    
C57   C77   1.412180 A    
C100  C104  1.421272 A    
C9    Cl9   1.801746 S    
O41   C115  1.304791 A    
N57   O162  1.297573 A    
C73   C77   1.414660 A    
C179  C183  1.421367 A    
N15   O78   1.300807 A    
O39   Cu11  1.978660 S    
N59   O165  1.303637 A    
C60   C64   1.415943 A    
N38   O124  1.301058 A    
O43   C117  1.305041 A    
O11   Cu2   1.996114 S    
C15   H7    1.105698 S    
C167  C169  1.390760 A    
C132  C145  1.413293 A    
C127  C131  1.421919 A    
C94   C98   1.413166 A    
O29   C111  1.305700 A    
C137  Cl17  1.775394 S    
N16   O79   1.300429 A    
C19   Cl7   1.828666 S    
C39   Cl3   1.805380 S    
O6    Cu3   1.979791 S    
C87   N23   1.433312 S    
C55   C67   1.401356 A    
C122  C125  1.401823 A    
C67   H11   1.082346 S    
N1    O49   1.304063 A    
C143  C149  1.415659 A    
C22   C38   1.596952 S    
C86   C90   1.402699 A    
N58   O164  1.297580 A    
N23   O94   1.300825 A    
N2    O52   1.298294 A    
O31   C112  1.305782 A    
C123  Cl15  1.779090 S    
Cu5   O29   1.979176 S    
N52   O152  1.302229 A    
O2    C2    1.306465 A    
C182  C184  1.422355 A    
C48   C118  1.457980 S    
C19   C27   1.628724 S    
N44   O135  1.300863 A    
C78   C82   1.412203 A    
C129  C132  1.421075 A    
C20   C28   1.620029 S    
C121  Cl13  1.780111 S    
O20   Cu8   1.979106 S    
O14   Cu3   1.996323 S    
O18   Cu6   1.979106 S    
C38   Cl2   1.804312 S    
C83   C87   1.421246 A    
C13   C29   1.614719 S    
Cu1   Cu3   2.696584 S    
C16   N48   1.476633 S    
Cu2   Cu4   2.696584 S    
O25   Cu6   1.996291 S    
C96   N16   1.434582 S    
C91   N27   1.435174 S    
O10   Cu1   1.995500 S    
C5    C25   1.498560 S    
C9    C25   1.562475 S    
O11   C7    1.302412 A    
C66   H10   1.082390 S    
C11   C15   1.555789 S    
C175  C181  1.409407 A    
C12   C16   1.555328 S    
N28   O103  1.301069 A    
C21   Cl25  1.815747 S    
Cu12  O48   1.978271 S    
C171  N39   1.432093 S    
C131  C146  1.413586 A    
C38   Cl30  1.803162 S    
N49   O145  1.303452 A    
C74   C78   1.414649 A    
C128  C134  1.417247 A    
C13   N45   1.481422 S    
C130  C132  1.420988 A    
C44   N8    1.436507 S    
C69   C73   1.403216 A    
C24   C28   1.606353 S    
C24   Cl28  1.827624 S    
C170  C174  1.418085 A    
