data_mof_unit_49065.cif
_audit_creation_date              2012-12-11T16:51:28-0500
_audit_creation_method            fapswitch 2.2
_symmetry_space_group_name_H-M    P1
_symmetry_Int_Tables_number       1
_space_group_crystal_system       triclinic
_cell_length_a                    24.310562
_cell_length_b                    17.155698
_cell_length_c                    15.579607
_cell_angle_alpha                 89.999511
_cell_angle_beta                  129.094068
_cell_angle_gamma                 90.00051
_cell_volume                      5042.94369607

loop_
_atom_site_label
_atom_site_type_symbol
_atom_type_description
_atom_site_fract_x
_atom_site_fract_y
_atom_site_fract_z
_atom_type_partial_charge
Br1   Br    Br    0.744202 0.865107 0.149025 -0.648111
Br2   Br    Br    0.255798 0.865112 0.850979 -0.648096
Br3   Br    Br    0.244204 0.365102 0.149031 -0.648113
Br4   Br    Br    0.755798 0.365114 0.850981 -0.648100
C1    C     C_R   0.844350 0.864858 0.226931 0.309453
C2    C     C_R   0.140085 0.187739 0.502404 0.070943
C3    C     C_R   0.359911 0.687736 0.497587 0.070930
C4    C     C_R   0.640085 0.687740 0.502404 0.070946
C5    C     C_R   0.851743 0.123996 0.134590 0.139641
C6    C     C_R   0.148257 0.123997 0.865409 0.139632
C7    C     C_R   0.351743 0.623996 0.134589 0.139639
C8    C     C_R   0.648257 0.623998 0.865408 0.139631
C9    C     C_R   0.775991 0.841339 0.607057 0.167006
C10   C     C_R   0.223959 0.841271 0.392911 0.166993
C11   C     C_R   0.275996 0.341329 0.607057 0.167031
C12   C     C_R   0.155649 0.864856 0.773066 0.309443
C13   C     C_R   0.723978 0.341297 0.392921 0.166992
C14   C     C_R   0.760269 0.863297 0.507201 0.026799
C15   C     C_R   0.239711 0.863282 0.492768 0.026832
C16   C     C_R   0.260271 0.363296 0.507204 0.026803
C17   C     C_R   0.739719 0.363287 0.492780 0.026817
C18   C     C_R   0.690307 0.852356 0.409087 -0.188386
C19   C     C_R   0.309686 0.852380 0.590864 -0.188377
C20   C     C_R   0.190308 0.352361 0.409093 -0.188388
C21   C     C_R   0.809689 0.352372 0.590884 -0.188375
C22   C     C_R   0.144803 0.302386 0.409124 -0.186313
C23   C     C_R   0.344350 0.364858 0.226931 0.309458
C24   C     C_R   0.855193 0.302396 0.590852 -0.186308
C25   C     C_R   0.644801 0.802384 0.409118 -0.186306
C26   C     C_R   0.355190 0.802404 0.590833 -0.186315
C27   C     C_R   0.169654 0.263275 0.507014 0.028394
C28   C     C_R   0.830334 0.263269 0.492969 0.028400
C29   C     C_R   0.669651 0.763278 0.507011 0.028391
C30   C     C_R   0.330326 0.763264 0.492958 0.028413
C31   C     C_R   0.231417 0.291606 0.607061 0.166996
C32   C     C_R   0.768557 0.291576 0.392917 0.166962
C33   C     C_R   0.731411 0.791616 0.607061 0.166968
C34   C     C_R   0.655648 0.364856 0.773065 0.309442
C35   C     C_R   0.268538 0.791550 0.392907 0.166958
C36   C     C_3   0.792559 0.750304 0.708663 -0.515507
C37   C     C_3   0.207392 0.750175 0.291395 -0.515552
C38   C     C_3   0.292559 0.250294 0.708650 -0.515587
C39   C     C_3   0.707410 0.250231 0.291364 -0.515526
C40   C     C_R   0.113670 0.898127 0.406632 -0.145897
C41   C     C_R   0.886326 0.898129 0.593364 -0.145900
C42   C     C_R   0.613671 0.398128 0.406634 -0.145895
C43   C     C_R   0.386326 0.398129 0.593364 -0.145900
C44   C     C_3   0.841030 0.804940 0.708743 -0.518784
C45   C     C_R   0.910755 0.144148 0.591236 -0.121454
C46   C     C_3   0.158922 0.804808 0.291318 -0.518834
C47   C     C_3   0.341030 0.304929 0.708729 -0.518865
C48   C     C_3   0.658940 0.304864 0.291286 -0.518810
C49   C     C_2   0.148334 0.752645 0.872361 -0.170366
C50   C     C_2   0.851657 0.752656 0.127619 -0.170361
C51   C     C_2   0.648334 0.252645 0.872362 -0.170368
C52   C     C_2   0.351658 0.252655 0.127621 -0.170372
C53   C     C_2   0.190379 0.703545 0.870713 -0.077001
C54   C     C_2   0.809623 0.703547 0.129281 -0.076999
C55   C     C_2   0.690379 0.203546 0.870714 -0.077000
C56   C     C_R   0.089243 0.144148 0.408761 -0.121447
C57   C     C_2   0.309623 0.203546 0.129281 -0.077004
C58   C     C_2   0.803985 0.149364 0.018983 -0.174234
C59   C     C_2   0.196016 0.149366 0.981015 -0.174224
C60   C     C_2   0.303985 0.649364 0.018983 -0.174232
C61   C     C_2   0.696015 0.649368 0.981014 -0.174225
C62   C     C_2   0.733730 0.149442 0.962023 -0.119065
C63   C     C_2   0.266270 0.149442 0.037974 -0.119072
C64   C     C_2   0.233730 0.649440 0.962022 -0.119064
C65   C     C_2   0.766270 0.649444 0.037973 -0.119073
C66   C     C_R   0.188832 0.898817 0.589089 -0.083206
C67   C     C_R   0.410755 0.644149 0.591235 -0.121455
C68   C     C_R   0.811167 0.898819 0.410908 -0.083202
C69   C     C_R   0.688832 0.398816 0.589090 -0.083212
C70   C     C_R   0.311167 0.398821 0.410908 -0.083193
C71   C     C_R   0.060251 0.862376 0.765436 -0.197931
C72   C     C_R   0.939746 0.862381 0.234557 -0.197941
C73   C     C_R   0.560251 0.362377 0.765436 -0.197929
C74   C     C_R   0.439746 0.362381 0.234558 -0.197938
C75   C     C_R   0.877788 0.823415 0.194474 0.068306
C76   C     C_R   0.122208 0.823410 0.805517 0.068312
C77   C     C_R   0.377788 0.323415 0.194474 0.068307
C78   C     C_R   0.589243 0.644148 0.408761 -0.121447
C79   C     C_R   0.622208 0.323410 0.805517 0.068313
C80   C     C_R   0.182700 0.882558 0.496520 0.050350
C81   C     C_R   0.817294 0.882561 0.503472 0.050373
C82   C     C_R   0.682702 0.382558 0.496523 0.050362
C83   C     C_R   0.317294 0.382563 0.503473 0.050369
C84   C     C_R   0.838261 0.143846 0.406777 -0.139109
C85   C     C_R   0.161737 0.143848 0.593220 -0.139107
C86   C     C_R   0.338262 0.643845 0.406776 -0.139114
C87   C     C_R   0.661737 0.643849 0.593219 -0.139108
C88   C     C_R   0.922860 0.105728 0.196990 -0.148898
C89   C     C_R   0.859911 0.187737 0.497590 0.070938
C90   C     C_R   0.077140 0.105729 0.803009 -0.148895
C91   C     C_R   0.422860 0.605729 0.196990 -0.148898
C92   C     C_R   0.577139 0.605730 0.803008 -0.148894
C93   C     C_R   0.167658 0.105617 0.801678 -0.106714
C94   C     C_R   0.832342 0.105617 0.198321 -0.106714
C95   C     C_R   0.667658 0.605618 0.801678 -0.106715
C96   C     C_R   0.332342 0.605617 0.198320 -0.106712
H1    H     H_    0.094684 0.287062 0.330629 0.136845
H2    H     H_    0.201092 0.688815 0.306958 0.203639
H3    H     H_    0.298907 0.188925 0.693185 0.203622
H4    H     H_    0.701087 0.188864 0.306881 0.203619
H5    H     H_    0.869975 0.845517 0.780442 0.191591
H6    H     H_    0.129929 0.845334 0.219570 0.191595
H7    H     H_    0.369976 0.345501 0.780424 0.191613
H8    H     H_    0.629970 0.345414 0.219562 0.191595
H9    H     H_    0.874459 0.774145 0.693586 0.204280
H10   H     H_    0.125541 0.774028 0.306575 0.204329
H11   H     H_    0.374455 0.274139 0.693569 0.204305
H12   H     H_    0.905322 0.287087 0.669346 0.136844
H13   H     H_    0.625537 0.274077 0.306496 0.204306
H14   H     H_    0.709958 0.122940 0.994836 0.136639
H15   H     H_    0.290042 0.122940 0.005160 0.136645
H16   H     H_    0.209958 0.622938 0.994834 0.136638
H17   H     H_    0.790041 0.622941 0.005160 0.136644
H18   H     H_    0.201970 0.712382 0.814525 0.168003
H19   H     H_    0.798044 0.712372 0.185486 0.167996
H20   H     H_    0.701970 0.212382 0.814526 0.168001
H21   H     H_    0.298044 0.212372 0.185484 0.168005
H22   H     H_    0.826892 0.177245 0.985324 0.161349
H23   H     H_    0.594684 0.787056 0.330621 0.136841
H24   H     H_    0.173110 0.177247 0.014675 0.161358
H25   H     H_    0.326892 0.677246 0.985324 0.161351
H26   H     H_    0.673109 0.677250 0.014674 0.161357
H27   H     H_    0.136447 0.743174 0.928163 0.130193
H28   H     H_    0.863529 0.743200 0.071796 0.130199
H29   H     H_    0.636447 0.243175 0.928164 0.130195
H30   H     H_    0.363531 0.243198 0.071802 0.130206
H31   H     H_    0.093097 0.906529 0.322403 0.103453
H32   H     H_    0.906897 0.906535 0.677591 0.103452
H33   H     H_    0.593099 0.406531 0.322406 0.103451
H34   H     H_    0.405323 0.787107 0.669322 0.136849
H35   H     H_    0.406898 0.406533 0.677592 0.103451
H36   H     H_    0.238080 0.908617 0.670378 0.150845
H37   H     H_    0.761922 0.908627 0.329619 0.150837
H38   H     H_    0.738079 0.408618 0.670380 0.150844
H39   H     H_    0.261921 0.408629 0.329620 0.150836
H40   H     H_    0.023087 0.847551 0.779060 0.119859
H41   H     H_    0.976907 0.847559 0.220928 0.119863
H42   H     H_    0.523088 0.347552 0.779061 0.119860
H43   H     H_    0.476908 0.347558 0.220930 0.119863
H44   H     H_    0.801958 0.160557 0.321345 0.109250
H45   H     H_    0.793949 0.759115 0.780729 0.194910
H46   H     H_    0.198040 0.160561 0.678651 0.109245
H47   H     H_    0.301957 0.660556 0.321343 0.109254
H48   H     H_    0.698038 0.660562 0.678650 0.109247
H49   H     H_    0.952410 0.102410 0.166688 0.097745
H50   H     H_    0.047589 0.102411 0.833311 0.097746
H51   H     H_    0.452411 0.602410 0.166688 0.097744
H52   H     H_    0.547589 0.602413 0.833310 0.097746
H53   H     H_    0.220743 0.101735 0.828446 0.097065
H54   H     H_    0.779257 0.101733 0.171552 0.097062
H55   H     H_    0.720743 0.601735 0.828446 0.097066
H56   H     H_    0.205953 0.758938 0.219281 0.194903
H57   H     H_    0.279257 0.601733 0.171551 0.097059
H58   H     H_    0.939634 0.160460 0.676667 0.098741
H59   H     H_    0.060362 0.160458 0.323329 0.098737
H60   H     H_    0.439633 0.660462 0.676666 0.098745
H61   H     H_    0.560362 0.660458 0.323328 0.098735
H62   H     H_    0.673411 0.873373 0.330347 0.146208
H63   H     H_    0.326598 0.873436 0.669598 0.146186
H64   H     H_    0.173410 0.373384 0.330355 0.146206
H65   H     H_    0.826597 0.373415 0.669622 0.146190
H66   H     H_    0.293951 0.259100 0.780713 0.194929
H67   H     H_    0.705994 0.259016 0.219272 0.194906
H68   H     H_    0.798911 0.688931 0.693201 0.203598
N1    N     N_R   0.888400 0.921830 0.294620 -0.070111
N2    N     N_R   0.874350 0.922400 0.443380 -0.045045
N3    N     N_R   0.625650 0.422400 0.556620 -0.045045
N4    N     N_R   0.374350 0.422400 0.443380 -0.045045
N5    N     N_R   0.054230 0.922730 0.705400 -0.055526
N6    N     N_R   0.945770 0.922730 0.294600 -0.055526
N7    N     N_R   0.554230 0.422730 0.705400 -0.055526
N8    N     N_R   0.445770 0.422730 0.294600 -0.055527
N9    N     N_R   0.873790 0.077030 0.443380 -0.041438
N10   N     N_R   0.126210 0.077030 0.556620 -0.041437
N11   N     N_R   0.373790 0.577030 0.443380 -0.041438
N12   N     N_R   0.111600 0.921830 0.705380 -0.070109
N13   N     N_R   0.626210 0.577030 0.556620 -0.041437
N14   N     N_R   0.945200 0.076700 0.294600 -0.042187
N15   N     N_R   0.054800 0.076700 0.705400 -0.042187
N16   N     N_R   0.445200 0.576700 0.294600 -0.042187
N17   N     N_R   0.554800 0.576700 0.705400 -0.042187
N18   N     N_R   0.111030 0.077600 0.705380 -0.044517
N19   N     N_R   0.888970 0.077600 0.294620 -0.044517
N20   N     N_R   0.611030 0.577600 0.705380 -0.044517
N21   N     N_R   0.388970 0.577600 0.294620 -0.044517
N22   N     N_R   0.919490 0.077280 0.556590 -0.042467
N23   N     N_R   0.388400 0.421830 0.294620 -0.070112
N24   N     N_R   0.080510 0.077280 0.443410 -0.042467
N25   N     N_R   0.419490 0.577280 0.556590 -0.042466
N26   N     N_R   0.580510 0.577280 0.443410 -0.042467
N27   N     N_R   0.611600 0.421830 0.705380 -0.070108
N28   N     N_R   0.079940 0.922160 0.443410 -0.041489
N29   N     N_R   0.920060 0.922160 0.556590 -0.041491
N30   N     N_R   0.579940 0.422160 0.443410 -0.041490
N31   N     N_R   0.420060 0.422160 0.556590 -0.041490
N32   N     N_R   0.125650 0.922400 0.556620 -0.045045
Ni1   Ni    Ni4+2 0.882160 0.999430 0.370180 0.237891
Ni2   Ni    Ni4+2 0.117840 0.999430 0.629820 0.237897
Ni3   Ni    Ni4+2 0.382160 0.499430 0.370180 0.237889
Ni4   Ni    Ni4+2 0.617840 0.499430 0.629820 0.237897
Ni5   Ni    Ni4+2 0.012460 0.999430 0.370180 0.207412
Ni6   Ni    Ni4+2 0.987540 0.999430 0.629820 0.207412
Ni7   Ni    Ni4+2 0.512460 0.499430 0.370180 0.207412
Ni8   Ni    Ni4+2 0.487540 0.499430 0.629820 0.207413

loop_
_geom_bond_atom_site_label_1
_geom_bond_atom_site_label_2
_ccdc_geom_bond_type
C66   H36   S    
C94   H54   S    
C5    C94   A    
C18   C25   A    
C51   C55   D    
C34   C79   A    
C71   N5    A    
N24   Ni5   S    
C41   C81   A    
C96   N21   A    
C86   H47   S    
C56   H59   S    
N28   N32   A    
C38   H3    S    
C6    C59   S    
C59   H24   S    
C52   C77   S    
C35   C37   S    
C48   H13   S    
N21   Ni3   S    
C21   C24   A    
C67   H60   S    
C24   C28   A    
C55   H20   S    
N16   Ni7   S    
C23   N23   A    
C36   H45   S    
Br1   C1    S    
C28   C32   A    
N8    Ni7   S    
C20   C22   A    
N3    N30   A    
N12   Ni2   S    
C71   H40   S    
C7    C96   A    
C55   C62   S    
C50   C54   D    
C18   H62   S    
C91   N16   A    
C42   N30   A    
C69   H38   S    
C6    C90   A    
C41   N29   A    
C92   H52   S    
C16   C83   S    
C25   C29   A    
C46   H10   S    
C34   N27   A    
N18   Ni2   S    
N4    N31   A    
C57   H21   S    
N7    N27   A    
N28   Ni5   S    
C31   C38   S    
C63   H15   S    
C39   H4    S    
C87   H48   S    
C8    C95   A    
C2    C27   S    
C49   H27   S    
C10   C35   A    
C73   H42   S    
C91   H51   S    
C12   C76   A    
C96   H57   S    
N22   Ni6   S    
C16   C20   A    
C51   H29   S    
C95   H55   S    
N6    Ni5   S    
C66   N32   A    
N1    N6    A    
C72   C75   A    
N5    Ni6   S    
C13   C32   A    
C11   C47   S    
C70   C83   A    
C1    C75   A    
Br2   C12   S    
C71   C76   A    
C70   N4    A    
C38   C47   S    
N14   N19   A    
C37   H56   S    
C72   H41   S    
C44   H9    S    
C22   C27   A    
C73   N7    A    
N25   Ni8   S    
C84   C89   A    
C74   N8    A    
N17   Ni8   S    
C43   N31   A    
N29   Ni6   S    
C20   H64   S    
N23   Ni3   S    
N7    Ni8   S    
C10   C15   A    
C13   C48   S    
C11   C31   A    
C95   N20   A    
C68   C81   A    
C19   H63   S    
C85   H46   S    
C59   C63   D    
C40   N28   A    
C14   C81   S    
C78   N26   A    
C26   C30   A    
N9    Ni1   S    
C5    C58   S    
C19   C26   A    
C2    C56   A    
C84   N9    A    
C49   C76   S    
C93   N18   A    
C7    C60   S    
N15   N18   A    
C58   C62   D    
N17   N20   A    
C45   N22   A    
N5    N12   A    
C26   H34   S    
C3    C86   A    
C50   H28   S    
N20   Ni4   S    
C73   C79   A    
C24   H12   S    
C30   C35   A    
C11   C16   A    
C40   H31   S    
C68   N2    A    
C6    C93   A    
C15   C19   A    
C94   N19   A    
N26   Ni7   S    
N10   N24   A    
C57   C63   S    
C44   H5    S    
N10   Ni2   S    
C23   C77   A    
C56   N24   A    
C37   H2    S    
C70   H39   S    
C4    C87   A    
C85   N10   A    
N13   N26   A    
C64   H16   S    
C9    C14   A    
N32   Ni2   S    
C68   H37   S    
N11   Ni3   S    
C93   H53   S    
C87   N13   A    
N4    Ni3   S    
C4    C78   A    
C45   H58   S    
N13   Ni4   S    
C69   N3    A    
C90   N15   A    
C53   C64   S    
C51   C79   S    
C15   C80   S    
C60   C64   D    
C37   C46   S    
C58   H22   S    
C66   C80   A    
C29   C33   A    
C50   C75   S    
N11   N25   A    
C7    C91   A    
C36   C44   S    
C17   C21   A    
C86   N11   A    
C47   H11   S    
N9    N22   A    
C62   H14   S    
C43   H35   S    
N30   Ni7   S    
C14   C18   A    
C9    C33   A    
C92   N17   A    
Br4   C34   S    
N8    N23   A    
C49   C53   D    
C17   C82   S    
C9    C44   S    
C54   C65   S    
N27   Ni4   S    
C78   H61   S    
C39   H67   S    
C33   C36   S    
C2    C85   A    
C8    C61   S    
N19   Ni1   S    
C40   C80   A    
N14   Ni5   S    
C21   H65   S    
C61   H26   S    
Br3   C23   S    
C22   H1    S    
C88   N14   A    
C74   H43   S    
C5    C88   A    
C42   H33   S    
C3    C67   A    
C65   H17   S    
C74   C77   A    
C10   C46   S    
C61   C65   D    
C25   H23   S    
C72   N6    A    
N31   Ni8   S    
C3    C30   S    
C84   H44   S    
C28   C89   S    
C27   C31   A    
C4    C29   S    
C39   C48   S    
C13   C17   A    
C69   C82   A    
C36   H68   S    
C67   N25   A    
N3    Ni4   S    
N1    Ni1   S    
C12   N12   A    
C90   H50   S    
C54   H19   S    
C48   H8    S    
C41   H32   S    
C47   H7    S    
C60   H25   S    
N2    Ni1   S    
C88   H49   S    
C46   H6    S    
N15   Ni6   S    
C1    N1    A    
C52   C57   D    
C8    C92   A    
C32   C39   S    
C45   C89   A    
N16   N21   A    
N2    N29   A    
C52   H30   S    
C38   H66   S    
C43   C83   A    
C53   H18   S    
C42   C82   A    
