data_mof_unit_54543.cif
_audit_creation_date              2013-03-05T15:50:14-0500
_audit_creation_method            fapswitch 2.2
_symmetry_space_group_name_H-M    P1
_symmetry_Int_Tables_number       1
_space_group_crystal_system       triclinic
_cell_length_a                    14.993803
_cell_length_b                    15.112308
_cell_length_c                    34.892917
_cell_angle_alpha                 90.477393
_cell_angle_beta                  89.835749
_cell_angle_gamma                 59.800466
_cell_volume                      6832.88676682

loop_
_atom_site_label
_atom_site_type_symbol
_atom_site_description
_atom_site_fract_x
_atom_site_fract_y
_atom_site_fract_z
_atom_type_partial_charge
O1    O     O_R   0.502070 0.323090 0.541280 -0.518213
O2    O     O_R   0.338340 0.520690 0.539540 -0.499764
C1    C     C_R   0.302425 0.608459 0.555773 0.543731
O3    O     O_R   0.324760 0.674070 0.543580 -0.519751
O4    O     O_R   0.522400 0.640310 0.540110 -0.496375
C2    C     C_R   0.610720 0.588259 0.555323 0.556170
O5    O     O_R   0.675940 0.500630 0.542210 -0.514270
O6    O     O_R   0.641790 0.337020 0.538150 -0.500564
C3    C     C_R   0.590506 0.300449 0.553582 0.545554
O7    O     O_R   0.500260 0.324550 0.456580 -0.515326
O8    O     O_R   0.336660 0.522040 0.461020 -0.501761
C4    C     C_R   0.301165 0.609925 0.445818 0.534288
O9    O     O_R   0.322940 0.675540 0.458880 -0.529766
O10   O     O_R   0.520720 0.641670 0.461580 -0.502470
C5    C     C_R   0.587272 0.564474 0.441088 0.560352
O11   O     O_R   0.674120 0.502090 0.457500 -0.512831
O12   O     O_R   0.640110 0.338380 0.459630 -0.522587
C6    C     C_R   0.589185 0.300897 0.444235 0.536153
Cr1   Cr    Cr6+3 0.421670 0.426920 0.499620 1.005988
Cr2   Cr    Cr6+3 0.427030 0.651190 0.500980 1.007955
Cr3   Cr    Cr6+3 0.651280 0.421870 0.499380 1.006340
O13   O     O_3   0.499990 0.499990 0.499990 -0.254140
N1    N     N_R   0.743600 0.590480 0.769400 -0.244366
N2    N     N_R   0.739884 0.587642 0.731394 -0.251940
C7    C     C_R   0.630711 0.621749 0.592430 0.021692
C8    C     C_R   0.725217 0.561129 0.610879 -0.130992
C9    C     C_R   0.736133 0.577999 0.649421 -0.128232
C10   C     C_R   0.652733 0.655730 0.670213 0.032879
C11   C     C_R   0.561199 0.721874 0.650923 -0.124759
C12   C     C_R   0.550282 0.705055 0.612316 -0.133666
N3    N     N_R   0.580743 0.739573 0.732566 -0.239407
N4    N     N_R   0.584606 0.742602 0.770623 -0.241121
C13   C     C_R   0.665967 0.667824 0.789799 0.343883
C14   C     C_R   0.658694 0.662319 0.712189 0.343404
C15   C     C_R   0.757186 0.594458 0.851158 -0.125867
C16   C     C_R   0.775786 0.607241 0.889294 -0.134040
C17   C     C_R   0.624040 0.776676 0.890124 -0.136109
C18   C     C_R   0.605276 0.763764 0.851957 -0.127972
C19   C     C_R   0.674333 0.674311 0.831665 0.033458
C20   C     C_R   0.712000 0.700225 0.908587 0.021813
H1    H     H_    0.788916 0.496928 0.596183 0.129570
H2    H     H_    0.476581 0.753334 0.598809 0.127540
H3    H     H_    0.843668 0.546521 0.902878 0.127287
H4    H     H_    0.808488 0.527118 0.663282 0.123273
H5    H     H_    0.495968 0.783261 0.666066 0.130427
H6    H     H_    0.810747 0.523822 0.836484 0.127289
H7    H     H_    0.573007 0.848897 0.904390 0.125044
H8    H     H_    0.539981 0.826188 0.837840 0.128633
C21   C     C_R   0.721760 0.075488 0.905959 0.021180
C22   C     C_R   0.634960 0.097490 0.883846 -0.124667
C23   C     C_R   0.631672 0.121822 0.845342 -0.120448
C24   C     C_R   0.714249 0.126062 0.828437 0.028498
C25   C     C_R   0.797282 0.112428 0.851018 -0.121208
C26   C     C_R   0.801338 0.086714 0.889593 -0.126475
C27   C     C_R   0.725199 0.217219 0.771031 -0.100599
C28   C     C_R   0.716594 0.233863 0.731323 0.029423
C29   C     C_R   0.701579 0.166188 0.707245 0.032025
C30   C     C_R   0.696979 0.083870 0.723281 -0.132358
C31   C     C_R   0.703719 0.069746 0.762658 -0.124030
C32   C     C_R   0.716117 0.137212 0.786749 0.008112
C33   C     C_R   0.583543 0.207291 0.652271 -0.125235
C34   C     C_R   0.557028 0.237236 0.614440 -0.125226
C35   C     C_R   0.726711 0.215415 0.603138 -0.129202
C36   C     C_R   0.753568 0.184191 0.640933 -0.123575
C37   C     C_R   0.680373 0.184593 0.666075 0.022673
C38   C     C_R   0.626900 0.245640 0.589988 0.022318
H9    H     H_    0.572197 0.089970 0.895604 0.129418
H10   H     H_    0.869131 0.070292 0.905961 0.124453
H11   H     H_    0.829558 0.164215 0.651023 0.110279
H12   H     H_    0.733804 0.269740 0.789912 0.110376
H13   H     H_    0.566290 0.133704 0.828319 0.109396
H14   H     H_    0.685172 0.031988 0.705236 0.120094
H15   H     H_    0.697568 0.006928 0.774477 0.123861
H16   H     H_    0.526678 0.206694 0.671333 0.109071
H17   H     H_    0.479588 0.260088 0.605152 0.127988
H18   H     H_    0.861421 0.115911 0.838298 0.104347
H19   H     H_    0.782325 0.220422 0.584771 0.122053
C39   C     C_R   0.098249 0.691987 0.912336 0.023886
C40   C     C_R   0.156165 0.732083 0.894888 0.017919
C41   C     C_R   0.173801 0.719075 0.855099 -0.096576
C42   C     C_R   0.144835 0.658845 0.833744 0.010585
C43   C     C_R   0.102350 0.607030 0.852247 -0.128560
C44   C     C_R   0.078363 0.624131 0.891058 -0.138721
C45   C     C_R   0.208053 0.561278 0.772323 -0.111139
C46   C     C_R   0.215177 0.558685 0.732430 -0.109133
C47   C     C_R   0.165331 0.649951 0.711418 0.033773
C48   C     C_R   0.106836 0.743553 0.731165 -0.110523
C49   C     C_R   0.101472 0.746155 0.771049 -0.109356
C50   C     C_R   0.152733 0.655171 0.791797 0.028099
C51   C     C_R   0.196171 0.724228 0.652686 -0.118729
C52   C     C_R   0.227602 0.715086 0.614611 -0.124746
C53   C     C_R   0.226047 0.556074 0.608560 -0.129210
C54   C     C_R   0.193306 0.565894 0.646649 -0.120173
C55   C     C_R   0.181960 0.648057 0.669510 0.033767
C56   C     C_R   0.246982 0.628824 0.592641 0.021042
H20   H     H_    0.036762 0.589952 0.903595 0.136868
H21   H     H_    0.180543 0.507236 0.658584 0.102897
H22   H     H_    0.262494 0.485532 0.718200 0.101542
H23   H     H_    0.247640 0.490393 0.788066 0.106779
H24   H     H_    0.209671 0.756391 0.840534 0.111792
H25   H     H_    0.065920 0.814927 0.715823 0.103846
H26   H     H_    0.056582 0.819100 0.785769 0.110347
H27   H     H_    0.189358 0.787900 0.669496 0.103516
H28   H     H_    0.243048 0.772544 0.603220 0.127548
H29   H     H_    0.080615 0.559336 0.836089 0.117116
H30   H     H_    0.239589 0.489149 0.592205 0.121916
C57   C     C_R   0.690761 0.715121 0.090029 0.019111
C58   C     C_R   0.590673 0.784528 0.103506 -0.140703
C59   C     C_R   0.556537 0.768728 0.138870 -0.128089
C60   C     C_R   0.621862 0.683145 0.160974 0.022866
C61   C     C_R   0.721115 0.613823 0.147332 -0.125066
C62   C     C_R   0.754740 0.628795 0.112113 -0.123504
C63   C     C_R   0.592661 0.582048 0.212126 0.022636
C64   C     C_R   0.586669 0.566783 0.251704 -0.101900
C65   C     C_R   0.579057 0.639292 0.278847 0.005870
C66   C     C_R   0.572364 0.730313 0.266456 -0.122411
C67   C     C_R   0.579796 0.746042 0.227645 -0.128326
C68   C     C_R   0.593343 0.671498 0.200405 0.024729
C69   C     C_R   0.508581 0.694985 0.344989 -0.126884
C70   C     C_R   0.512082 0.677912 0.384260 -0.123837
C71   C     C_R   0.661128 0.508877 0.375031 -0.127936
C72   C     C_R   0.657003 0.525581 0.335533 -0.117543
C73   C     C_R   0.580944 0.619150 0.320278 0.027967
C74   C     C_R   0.589040 0.584964 0.399815 0.022410
H31   H     H_    0.539944 0.851958 0.087218 0.118239
H32   H     H_    0.832825 0.574490 0.102970 0.132158
H33   H     H_    0.713970 0.466063 0.316950 0.106119
H34   H     H_    0.588635 0.498545 0.261978 0.111279
H35   H     H_    0.480313 0.824213 0.149414 0.108205
H36   H     H_    0.566284 0.787293 0.286986 0.113370
H37   H     H_    0.580408 0.814430 0.218960 0.112076
H38   H     H_    0.448518 0.767165 0.333820 0.100729
H39   H     H_    0.453755 0.737684 0.402354 0.129524
H40   H     H_    0.774257 0.549795 0.164661 0.107619
H41   H     H_    0.719565 0.436248 0.386266 0.114001
C75   C     C_R   0.736953 0.004389 0.099002 0.023905
C76   C     C_R   0.803324 0.030336 0.117971 -0.120745
C77   C     C_R   0.795367 0.045937 0.157508 -0.113441
C78   C     C_R   0.722753 0.033625 0.178533 0.066402
C79   C     C_R   0.659646 0.003227 0.160037 -0.060647
C80   C     C_R   0.666200 0.989461 0.120413 -0.108519
C81   C     C_R   0.619183 0.145850 0.234148 0.216274
C82   C     C_R   0.613799 0.167575 0.273434 -0.111094
C83   C     C_R   0.694830 0.104942 0.297865 -0.024207
C84   C     C_R   0.781403 0.017219 0.283379 -0.135796
C85   C     C_R   0.788895 0.994858 0.244322 -0.168997
C86   C     C_R   0.709113 0.058718 0.219503 0.003363
C87   C     C_R   0.747090 0.173354 0.354410 0.030789
C88   C     C_R   0.717650 0.223157 0.390491 -0.110326
C89   C     C_R   0.576631 0.188630 0.394857 -0.131592
C90   C     C_R   0.604470 0.139309 0.359515 -0.134259
C91   C     C_R   0.686428 0.134559 0.338510 0.028375
C92   C     C_R   0.630192 0.234545 0.409950 0.002706
H42   H     H_    0.859951 0.040422 0.102289 0.129518
H43   H     H_    0.615965 0.967221 0.106453 0.122973
H44   H     H_    0.558144 0.109575 0.347420 0.118560
H45   H     H_    0.547099 0.235333 0.285099 0.150852
H46   H     H_    0.843986 0.070039 0.171635 0.101132
H47   H     H_    0.843203 0.966690 0.302187 0.116811
H48   H     H_    0.857033 0.927371 0.233343 0.113796
H49   H     H_    0.759097 0.257551 0.402895 0.124694
H50   H     H_    0.603708 0.992956 0.176164 0.117659
H51   H     H_    0.509923 0.194844 0.409531 0.135164
C93   C     C_R   0.086591 0.707549 0.093498 0.006822
C94   C     C_R   0.110347 0.612191 0.108168 -0.136485
C95   C     C_R   0.151044 0.584352 0.144730 -0.129060
C96   C     C_R   0.168494 0.651234 0.167299 0.039474
C97   C     C_R   0.150166 0.745634 0.152033 0.024390
C98   C     C_R   0.110404 0.771812 0.114945 -0.116777
C99   C     C_R   0.280921 0.616231 0.224362 -0.099071
C100  C     C_R   0.291450 0.612389 0.264043 -0.107500
C101  C     C_R   0.212724 0.617474 0.287520 0.029456
C102  C     C_R   0.126228 0.620648 0.271014 -0.116483
C103  C     C_R   0.115041 0.626065 0.231392 -0.116266
C104  C     C_R   0.190553 0.627708 0.208050 0.041671
C105  C     C_R   0.211424 0.554814 0.353099 -0.116875
C106  C     C_R   0.229526 0.555183 0.392256 -0.125045
C107  C     C_R   0.251742 0.702292 0.384135 -0.125044
C108  C     C_R   0.235552 0.700644 0.345007 -0.124990
C109  C     C_R   0.218762 0.624878 0.329174 0.027550
C110  C     C_R   0.253762 0.626567 0.407818 0.024013
H52   H     H_    0.093302 0.560922 0.092093 0.131806
H53   H     H_    0.092020 0.845699 0.103725 0.125263
H54   H     H_    0.239448 0.756457 0.326852 0.103941
H55   H     H_    0.359714 0.607878 0.276512 0.114234
H56   H     H_    0.340889 0.614759 0.206525 0.107338
H57   H     H_    0.164344 0.512365 0.156257 0.133831
H58   H     H_    0.065215 0.624169 0.288833 0.107301
H59   H     H_    0.045003 0.634494 0.219030 0.108462
H60   H     H_    0.197485 0.496483 0.341179 0.115422
H61   H     H_    0.230475 0.496081 0.409894 0.124196
H62   H     H_    0.269975 0.758398 0.395252 0.123619
O14   O     O_R   0.017640 0.822070 0.960410 -0.522595
O15   O     O_R   0.822000 0.989470 0.960340 -0.493417
C111  C     C_R   0.735682 0.025984 0.943396 0.556422
O16   O     O_R   0.666920 0.007430 0.955290 -0.515462
O17   O     O_R   0.694410 0.812480 0.959650 -0.501396
C112  C     C_R   0.745406 0.722757 0.945198 0.547752
O18   O     O_R   0.831550 0.656950 0.958960 -0.519250
O19   O     O_R   0.998590 0.685540 0.963930 -0.499756
C113  C     C_R   0.040719 0.732613 0.948893 0.534519
O20   O     O_R   0.008220 0.831200 0.045060 -0.533530
O21   O     O_R   0.813270 0.997930 0.038810 -0.501322
C114  C     C_R   0.744070 0.986996 0.057387 0.566021
O22   O     O_R   0.657500 0.016560 0.039940 -0.503906
O23   O     O_R   0.685680 0.820940 0.038120 -0.524510
C115  C     C_R   0.733407 0.734569 0.054923 0.531224
O24   O     O_R   0.822130 0.666070 0.043610 -0.516982
O25   O     O_R   0.989860 0.694000 0.042400 -0.502672
C116  C     C_R   0.027568 0.744847 0.057873 0.532220
Cr4   Cr    Cr6+3 0.910810 0.908010 0.001130 1.003632
Cr5   Cr    Cr6+3 0.682800 0.909890 0.998370 1.008954
Cr6   Cr    Cr6+3 0.908370 0.682300 0.002180 1.004704
O26   O     O_3   0.833990 0.833400 0.000560 -0.257275
C117  C     C_3   0.716316 0.328023 0.716543 -0.275762
C118  C     C_3   0.824377 0.314151 0.717638 -0.428891
H63   H     H_    0.851739 0.305974 0.747645 0.155846
H64   H     H_    0.879377 0.245296 0.700791 0.139844
H65   H     H_    0.822858 0.382089 0.705087 0.162567
H66   H     H_    0.686504 0.347065 0.686936 0.160437
H67   H     H_    0.663501 0.395473 0.734575 0.156745
C119  C     C_3   0.198984 0.789111 0.917162 -0.273370
C120  C     C_3   0.315852 0.739754 0.911890 -0.448603
H68   H     H_    0.354880 0.657279 0.919269 0.163701
H69   H     H_    0.335965 0.747779 0.881976 0.150750
H70   H     H_    0.345130 0.778268 0.931107 0.139424
H71   H     H_    0.160647 0.869882 0.907550 0.142968
H72   H     H_    0.185723 0.789112 0.948383 0.173507
C121  C     C_3   0.597757 0.505928 0.182036 -0.297269
C122  C     C_3   0.583381 0.418975 0.196847 -0.413004
H73   H     H_    0.648055 0.367997 0.215847 0.145146
H74   H     H_    0.508670 0.449583 0.212346 0.177567
H75   H     H_    0.583391 0.372694 0.172025 0.207479
H76   H     H_    0.536609 0.548605 0.160541 0.155070
H77   H     H_    0.673377 0.470388 0.166993 0.148090
N5    N     N_R   0.534009 0.213587 0.210110 0.061547
O27   O     O_R   0.442982 0.272285 0.225132 -0.360532
O28   O     O_R   0.547496 0.223583 0.173911 -0.356427
C123  C     C_3   0.837689 0.165371 0.331468 -0.272993
C124  C     C_3   0.899267 0.208682 0.350732 -0.456812
H78   H     H_    0.850504 0.292541 0.354998 0.139912
H79   H     H_    0.930572 0.170633 0.378554 0.151503
H80   H     H_    0.965257 0.194306 0.331952 0.141028
H81   H     H_    0.892829 0.083347 0.325226 0.144159
H82   H     H_    0.808710 0.205076 0.303723 0.149415
C125  C     C_3   0.164270 0.823494 0.174965 -0.272427
C126  C     C_3   0.077349 0.880727 0.204219 -0.437984
H83   H     H_    0.001425 0.913227 0.189954 0.147446
H84   H     H_    0.081301 0.829502 0.227503 0.163550
H85   H     H_    0.084001 0.944366 0.217300 0.133576
H86   H     H_    0.240120 0.786945 0.189343 0.141805
H87   H     H_    0.164633 0.881250 0.155522 0.131014

loop_
_geom_bond_atom_site_label_1
_geom_bond_atom_site_label_2
_geom_bond_distance
_ccdc_geom_bond_type
C97   C125  1.518264 S    
O21   C114  1.301707 A    
C102  H58   1.083294 S    
C94   C95   1.390003 A    
C106  H61   1.083108 S    
C41   C42   1.400195 A    
C87   C123  1.525758 S    
C57   C62   1.406396 A    
C61   C62   1.389756 A    
C39   C113  1.481887 S    
O20   Cr4   2.041354 S    
C100  C101  1.404434 A    
C60   C68   1.477585 S    
C42   C43   1.394158 A    
C51   C52   1.390722 A    
C120  H70   1.110553 S    
O4    Cr2   1.927284 S    
C125  H87   1.112090 S    
C25   C26   1.397086 A    
C66   C67   1.390672 A    
C89   H51   1.083112 S    
O8    Cr1   1.924550 S    
C8    C9    1.392122 A    
C121  C122  1.528372 S    
C94   H52   1.083053 S    
C69   H38   1.083325 S    
C10   C11   1.404336 A    
C8    H1    1.083112 S    
C123  C124  1.528707 S    
C118  H64   1.110010 S    
C85   C86   1.403841 A    
C17   C20   1.404859 A    
C84   C85   1.391890 A    
C18   C19   1.404489 A    
C84   H47   1.082771 S    
O14   Cr4   2.033371 S    
C2    C7    1.471835 S    
C85   H48   1.083369 S    
C99   C100  1.392412 A    
C61   H40   1.083346 S    
C95   H57   1.083765 S    
C79   H50   1.083489 S    
C21   C26   1.407088 A    
C72   H33   1.083165 S    
O14   C113  1.276088 A    
C58   C59   1.402090 A    
C122  H75   1.108672 S    
C70   H39   1.082565 S    
C43   H29   1.083607 S    
C121  H76   1.111849 S    
C88   C92   1.405746 A    
C3    C38   1.471158 S    
C98   H53   1.083662 S    
C71   C74   1.402153 A    
C46   H22   1.082508 S    
C47   C55   1.480318 S    
O15   Cr4   1.924913 S    
C103  C104  1.403289 A    
C39   C44   1.409947 A    
C15   C16   1.392040 A    
C93   C116  1.470467 S    
O19   C113  1.279345 A    
C28   C117  1.515627 S    
C89   C92   1.400262 A    
O25   Cr6   1.927877 S    
N1    N2    1.328682 A    
C118  H65   1.109254 S    
C82   H45   1.083903 S    
C123  H81   1.109488 S    
C58   H31   1.082743 S    
C17   H7    1.083096 S    
C24   C32   1.467552 S    
C22   H9    1.083047 S    
C52   H28   1.083100 S    
C57   C115  1.478619 S    
C18   H8    1.082798 S    
C125  H86   1.107309 S    
C42   C50   1.466446 S    
C49   C50   1.400730 A    
C101  C109  1.463350 S    
C81   N5    1.444850 S    
O15   C111  1.272959 A    
C35   C38   1.406604 A    
C10   C14   1.473256 S    
C31   C32   1.399266 A    
C48   H25   1.082669 S    
Cr3   O13   1.960878 S    
C41   H24   1.083474 S    
O21   Cr4   1.916756 S    
C93   C98   1.403192 A    
O17   C112  1.273120 A    
C23   H13   1.083572 S    
C17   C18   1.394199 A    
O20   C116  1.271475 A    
C67   H37   1.083873 S    
C9    H4    1.082623 S    
C117  H67   1.111928 S    
C51   C55   1.404418 A    
C99   C104  1.399851 A    
C126  H84   1.107921 S    
C23   C24   1.400477 A    
O1    Cr1   2.042912 S    
C65   C73   1.477255 S    
C5    O11   1.300251 A    
C100  H55   1.083719 S    
C35   C36   1.395097 A    
C115  O24   1.265653 A    
C27   H12   1.084188 S    
O10   Cr2   1.914787 S    
C16   C20   1.403914 A    
Cr1   O13   1.975594 S    
O1    C3    1.268417 A    
C45   C46   1.394475 A    
C120  H68   1.111165 S    
O25   C116  1.278102 A    
N5    O27   1.301760 A    
C5    C74   1.478532 S    
C64   C65   1.402504 A    
C96   C97   1.418996 A    
C34   C38   1.404335 A    
O23   C115  1.278693 A    
O6    C3    1.271534 A    
C111  O16   1.266545 A    
C21   C111  1.473225 S    
O22   Cr5   2.046744 S    
N1    C13   1.356612 A    
C7    C8    1.403803 A    
Cr6   O26   1.975282 S    
C52   C56   1.404453 A    
C124  H80   1.110527 S    
N2    C14   1.356387 A    
C63   C68   1.420503 A    
C11   H5    1.082804 S    
O16   Cr5   2.043280 S    
C121  H77   1.108502 S    
C15   C19   1.404478 A    
C117  C118  1.526231 S    
C11   C12   1.394101 A    
O23   Cr5   1.924995 S    
C64   H34   1.080941 S    
C77   H46   1.083165 S    
C105  H60   1.083270 S    
C4    C110  1.468888 S    
C119  H72   1.106842 S    
O7    Cr1   2.038247 S    
C78   C79   1.399541 A    
C118  H63   1.110609 S    
C78   C86   1.463066 S    
C99   H56   1.082924 S    
C27   C28   1.404895 A    
C124  H79   1.110743 S    
O12   C6    1.274689 A    
C71   C72   1.399134 A    
N3    C14   1.357661 A    
C66   H36   1.083223 S    
C60   C61   1.399266 A    
C54   C55   1.406136 A    
C13   C19   1.473234 S    
C90   H44   1.083975 S    
C79   C80   1.392257 A    
C69   C70   1.392730 A    
C122  H74   1.110111 S    
C46   C47   1.407614 A    
C112  O18   1.267734 A    
C6    C92   1.473157 S    
C53   H30   1.083022 S    
C97   C98   1.400815 A    
Cr2   O13   1.975553 S    
C21   C22   1.405131 A    
C59   H35   1.083052 S    
C95   C96   1.401487 A    
C33   H16   1.083537 S    
C34   H17   1.083099 S    
C25   H18   1.083256 S    
C88   H49   1.080016 S    
C28   C29   1.421602 A    
C57   C58   1.406262 A    
C1    O3    1.271443 A    
C54   H21   1.082682 S    
C75   C114  1.467475 S    
C101  C102  1.399311 A    
C40   C119  1.518994 S    
C96   C104  1.466434 S    
C63   C64   1.412049 A    
C35   H19   1.083053 S    
C126  H85   1.110243 S    
C7    C12   1.404989 A    
C31   H15   1.083601 S    
C125  C126  1.527137 S    
C93   C94   1.400895 A    
O9    Cr2   2.042924 S    
O2    Cr1   1.919726 S    
C47   C48   1.406099 A    
C45   H23   1.083337 S    
C62   H32   1.082998 S    
C81   C86   1.418380 A    
N3    N4    1.330762 A    
C80   H43   1.082414 S    
C87   C91   1.418710 A    
C29   C37   1.470518 S    
C83   C84   1.397058 A    
O6    Cr3   1.925076 S    
C49   H26   1.083594 S    
C126  H83   1.108941 S    
C120  H69   1.110054 S    
O11   Cr3   2.041255 S    
C63   C121  1.523974 S    
C2    O5    1.266447 A    
C69   C73   1.400459 A    
C108  C109  1.399952 A    
C36   H11   1.082272 S    
C76   C77   1.392246 A    
C67   C68   1.401630 A    
C89   C90   1.385374 A    
C65   C66   1.400141 A    
C123  H82   1.111708 S    
C36   C37   1.400623 A    
C105  C106  1.394270 A    
O2    C1    1.279575 A    
C30   C31   1.388377 A    
C122  H73   1.110854 S    
C83   C91   1.469440 S    
O17   Cr5   1.931426 S    
O5    Cr3   2.050144 S    
C117  H66   1.108167 S    
N4    C13   1.357688 A    
C124  H78   1.107630 S    
C39   C40   1.422806 A    
C30   H14   1.083778 S    
C29   C30   1.401106 A    
O4    C2    1.271706 A    
C20   C112  1.472004 S    
C119  H71   1.111258 S    
O7    C6    1.267185 A    
C106  C110  1.405867 A    
C44   H20   1.083302 S    
C53   C54   1.396070 A    
C75   C80   1.404798 A    
N5    O28   1.300600 A    
C76   H42   1.082805 S    
C107  H62   1.082791 S    
C87   C88   1.411788 A    
C53   C56   1.404340 A    
C33   C37   1.401174 A    
C33   C34   1.391883 A    
C119  C120  1.530269 S    
O12   Cr3   1.930933 S    
C51   H27   1.082460 S    
C107  C110  1.405143 A    
C77   C78   1.399897 A    
Cr5   O26   1.961426 S    
C103  H59   1.083516 S    
C102  C103  1.391279 A    
C40   C41   1.406094 A    
O3    Cr2   2.031102 S    
C108  H54   1.083677 S    
C70   C74   1.408829 A    
C105  C109  1.400564 A    
Cr4   O26   1.976035 S    
C26   H10   1.083006 S    
C114  O22   1.296430 A    
C71   H41   1.080626 S    
C48   C49   1.392844 A    
O24   Cr6   2.033774 S    
C43   C44   1.388488 A    
C45   C50   1.399923 A    
C59   C60   1.404817 A    
C9    C10   1.404533 A    
C81   C82   1.399510 A    
C22   C23   1.390330 A    
O10   C5    1.295708 A    
C12   H2    1.083144 S    
C16   H3    1.083085 S    
C1    C56   1.473285 S    
C4    O9    1.271451 A    
C72   C73   1.406076 A    
C27   C32   1.399105 A    
C15   H6    1.082913 S    
C90   C91   1.399184 A    
C75   C76   1.405059 A    
C82   C83   1.400413 A    
O8    C4    1.277043 A    
C24   C25   1.401254 A    
C107  C108  1.389620 A    
O18   Cr6   2.047436 S    
O19   Cr6   1.915980 S    
