data_mof_unit_49415.cif
_audit_creation_date              2012-12-11T16:58:18-0500
_audit_creation_method            fapswitch 2.2
_symmetry_space_group_name_H-M    P1
_symmetry_Int_Tables_number       1
_space_group_crystal_system       triclinic
_cell_length_a                    16.891511
_cell_length_b                    7.243113
_cell_length_c                    16.86892
_cell_angle_alpha                 91.818469
_cell_angle_beta                  100.514803
_cell_angle_gamma                 87.988588
_cell_volume                      2027.28289865

loop_
_atom_site_label
_atom_site_type_symbol
_atom_type_description
_atom_site_fract_x
_atom_site_fract_y
_atom_site_fract_z
_atom_type_partial_charge
O1    O     O_R   0.413450 0.494370 0.415710 -0.543835
O2    O     O_R   0.586550 0.994370 0.584290 -0.543705
O3    O     O_R   0.578420 0.819350 0.429360 -0.536580
O4    O     O_R   0.421580 0.319350 0.570640 -0.542321
C1    C     C_R   0.604194 0.650542 0.413112 0.703596
C2    C     C_R   0.395449 0.160184 0.586996 0.702682
O5    O     O_R   0.413570 0.823780 0.406240 -0.521931
O6    O     O_R   0.586430 0.323780 0.593760 -0.522717
O7    O     O_R   0.420530 0.998740 0.561000 -0.538786
O8    O     O_R   0.579470 0.498740 0.439000 -0.544514
C3    C     C_R   0.386377 0.655540 0.383549 0.706595
C4    C     C_R   0.613718 0.155270 0.616468 0.707086
O9    O     O_3   0.502480 0.662320 0.550800 -0.362351
O10   O     O_3   0.497520 0.162320 0.449200 -0.362584
V1    V     V_3+5 0.499540 0.935370 0.490580 1.459902
V2    V     V_3+5 0.500460 0.435370 0.509420 1.458399
C5    C     C_R   0.685839 0.021784 0.747302 0.082100
C6    C     C_R   0.314262 0.511852 0.253112 0.083350
C7    C     C_R   0.681677 0.148529 0.685631 -0.147874
C8    C     C_R   0.318512 0.648735 0.314176 -0.147748
C9    C     C_R   0.743720 0.276749 0.693505 -0.179527
C10   C     C_R   0.256186 0.785233 0.305905 -0.180942
H1    H     H_    0.741851 0.380276 0.648182 0.152008
H2    H     H_    0.257940 0.896030 0.350812 0.152994
C11   C     C_R   0.811930 0.263636 0.755851 0.243150
C12   C     C_R   0.187785 0.772110 0.243830 0.242906
C13   C     C_R   0.817994 0.124427 0.814424 -0.138847
C14   C     C_R   0.181783 0.624029 0.185782 -0.140091
C15   C     C_R   0.751675 0.011246 0.810088 0.049945
C16   C     C_R   0.248254 0.501058 0.190500 0.050962
C17   C     C_3   0.746957 0.806500 0.814812 -0.432225
C18   C     C_3   0.252969 0.294820 0.187008 -0.432853
C19   C     C_3   0.674793 0.817566 0.745527 -0.184373
C20   C     C_3   0.325325 0.306083 0.255972 -0.187198
H3    H     H_    0.732532 0.765202 0.873393 0.182010
H4    H     H_    0.267137 0.240513 0.128610 0.182739
H5    H     H_    0.800168 0.732667 0.797560 0.218278
H6    H     H_    0.199860 0.233232 0.204903 0.217754
H7    H     H_    0.686698 0.747967 0.688937 0.136237
H8    H     H_    0.313658 0.248416 0.312974 0.135555
C21   C     C_R   0.334449 0.171511 0.640984 -0.065557
C22   C     C_R   0.664411 0.622444 0.359082 -0.062093
C23   C     C_R   0.165448 0.098230 0.859596 -0.065667
C24   C     C_R   0.835640 0.646725 0.140280 -0.060607
C25   C     C_R   0.262621 0.907759 0.798964 -0.172656
C26   C     C_R   0.741423 0.855415 0.196090 -0.177930
C27   C     C_R   0.210243 0.931394 0.854022 -0.146255
C28   C     C_R   0.793638 0.818525 0.141831 -0.131842
C29   C     C_R   0.175901 0.243331 0.809370 -0.202379
C30   C     C_R   0.822595 0.510537 0.193638 -0.214105
C31   C     C_R   0.228382 0.219724 0.753207 0.150505
C32   C     C_R   0.770186 0.547354 0.248790 0.155339
C33   C     C_R   0.271813 0.050194 0.747588 0.156249
C34   C     C_R   0.729573 0.721558 0.250369 0.157197
C35   C     C_R   0.324139 0.026441 0.691273 -0.209926
C36   C     C_R   0.677377 0.758604 0.305700 -0.217527
C37   C     C_R   0.290002 0.338664 0.646850 -0.154363
C38   C     C_R   0.705974 0.450226 0.357215 -0.146276
C39   C     C_R   0.237703 0.362342 0.701965 -0.176087
C40   C     C_R   0.758152 0.413279 0.302923 -0.175894
H9    H     H_    0.358352 0.897719 0.688298 0.127300
H10   H     H_    0.645576 0.891225 0.305804 0.121741
H11   H     H_    0.296155 0.453356 0.608959 0.131747
H12   H     H_    0.697790 0.342091 0.397634 0.131968
H13   H     H_    0.295461 0.777141 0.796188 0.123596
H14   H     H_    0.710714 0.989372 0.195882 0.123560
H15   H     H_    0.205005 0.493110 0.704872 0.129556
H16   H     H_    0.788692 0.279135 0.302998 0.127909
H17   H     H_    0.204290 0.816808 0.892034 0.132065
H18   H     H_    0.801537 0.926564 0.101269 0.132800
H19   H     H_    0.141650 0.372015 0.812237 0.144725
H20   H     H_    0.854552 0.378083 0.193733 0.137890
O11   O     O_R   0.920630 0.775410 0.061150 -0.535425
O12   O     O_R   0.079370 0.275410 0.938850 -0.531134
O13   O     O_R   0.086500 0.441450 0.093690 -0.537688
O14   O     O_R   0.913500 0.941450 0.906310 -0.537713
C41   C     C_R   0.112942 0.610536 0.117207 0.734749
C42   C     C_R   0.886951 0.110582 0.882780 0.735975
O15   O     O_R   0.921670 0.445960 0.070740 -0.542006
O16   O     O_R   0.078330 0.945960 0.929260 -0.546242
O17   O     O_R   0.913380 0.271130 0.915780 -0.519093
O18   O     O_R   0.086620 0.771130 0.084220 -0.518328
C43   C     C_R   0.896263 0.618953 0.086566 0.699708
C44   C     C_R   0.104107 0.109588 0.913304 0.701929
O19   O     O_3   0.997500 0.603030 0.949220 -0.362475
O20   O     O_3   0.002500 0.103030 0.050780 -0.361386
V3    V     V_3+5 0.000470 0.329940 0.009420 1.498998
V4    V     V_3+5 0.999530 0.829940 0.990580 1.500341
Br1   Br    Br    0.899528 0.422129 0.750344 -0.573994
Br2   Br    Br    0.099844 0.944896 0.249158 -0.566848
C45   C     C_2   0.596433 0.765787 0.768462 0.802124
O21   O     O_2   0.571965 0.845424 0.824784 -0.553095
O22   O     O_R   0.552038 0.624706 0.724960 -0.648190
H21   H     H_    0.500393 0.601972 0.745256 0.285567
C46   C     C_2   0.403408 0.236641 0.232863 0.808289
O23   O     O_2   0.428088 0.303668 0.176607 -0.551824
O24   O     O_R   0.447164 0.093317 0.275961 -0.647836
H22   H     H_    0.498470 0.057642 0.255325 0.283367

loop_
_geom_bond_atom_site_label_1
_geom_bond_atom_site_label_2
_ccdc_geom_bond_type
O15   C43   A    
C1    C22   S    
O22   H21   S    
C13   C15   A    
C5    C15   A    
C46   O23   D    
O1    C3    A    
O16   C44   A    
C24   C43   S    
O2    C4    A    
C22   C38   A    
C2    O7    A    
O15   V3    S    
O24   H22   S    
O5    C3    A    
C19   H7    S    
C20   H8    S    
C18   H4    S    
C10   H2    S    
C7    C9    A    
O14   C42   A    
C26   H14   S    
C19   C45   S    
C37   C39   A    
C38   C40   A    
C4    C7    S    
C25   C27   A    
C30   H20   S    
C27   H17   S    
C32   C40   A    
C22   C36   A    
C21   C35   A    
C29   C31   A    
C2    C21   S    
C30   C32   A    
C17   C19   S    
C6    C16   A    
C18   H6    S    
O12   V3    S    
O14   V4    S    
C39   H15   S    
C13   C42   S    
O5    V1    S    
C25   C33   A    
O6    V2    S    
C23   C44   S    
C5    C19   S    
C32   C34   A    
C37   H11   S    
C26   C28   A    
C33   C35   A    
C38   H12   S    
C34   C36   A    
C3    C8    S    
C20   C46   S    
O4    C2    A    
O12   C44   A    
C45   O21   D    
O20   V3    S    
C23   C29   A    
C17   H5    S    
C31   C33   A    
C18   C20   S    
O4    V2    S    
O11   V4    S    
C14   C41   S    
C45   O22   S    
O13   C41   A    
O6    C4    A    
C26   C34   A    
O1    V2    S    
O2    V1    S    
C6    C20   S    
O17   V3    S    
O13   V3    S    
C8    C10   A    
C9    H1    S    
C25   H13   S    
C36   H10   S    
C11   C13   A    
O3    V1    S    
O19   V4    S    
C24   C30   A    
C9    C11   A    
C11   Br1   S    
C28   H18   S    
O3    C1    A    
C46   O24   S    
C12   Br2   S    
C12   C14   A    
C14   C16   A    
O7    V1    S    
C21   C37   A    
C1    O8    A    
O16   V4    S    
O8    V2    S    
C16   C18   S    
C42   O17   A    
C29   H19   S    
C41   O18   A    
O18   V4    S    
C35   H9    S    
C17   H3    S    
C5    C7    A    
C6    C8    A    
C31   C39   A    
C40   H16   S    
C15   C17   S    
C10   C12   A    
O9    V2    S    
O10   V1    S    
C23   C27   A    
O11   C43   A    
C24   C28   A    
