data_mof_unit_10879.cif
_audit_creation_date              2012-12-11T14:52:48-0500
_audit_creation_method            fapswitch 2.2
_symmetry_space_group_name_H-M    P1
_symmetry_Int_Tables_number       1
_space_group_crystal_system       triclinic
_cell_length_a                    18.821989
_cell_length_b                    10.872067
_cell_length_c                    18.811931
_cell_angle_alpha                 90.161859
_cell_angle_beta                  90.98593
_cell_angle_gamma                 89.948708
_cell_volume                      3848.97262394

loop_
_atom_site_label
_atom_site_type_symbol
_atom_type_description
_atom_site_fract_x
_atom_site_fract_y
_atom_site_fract_z
_atom_type_partial_charge
C1    C     C_R   0.290000 0.997293 0.860813 0.529656
C2    C     C_R   0.711138 0.000123 0.138829 0.530851
C3    C     C_R   0.790019 0.497246 0.860807 0.528294
C4    C     C_R   0.211071 0.499945 0.138841 0.530662
C5    C     C_3   0.532287 0.738032 0.960822 -0.093359
C6    C     C_3   0.490033 0.707516 0.027884 -0.098993
C7    C     C_3   0.031976 0.237376 0.960960 -0.093281
C8    C     C_3   0.989598 0.207797 0.028091 -0.098689
C9    C     C_R   0.296528 0.518164 0.959212 -0.178885
C10   C     C_R   0.705192 0.513723 0.041114 -0.175500
C11   C     C_R   0.796660 0.018519 0.959265 -0.179040
C12   C     C_R   0.205121 0.013896 0.041087 -0.175230
C13   C     C_R   0.286684 0.489390 0.030555 -0.141976
C14   C     C_R   0.715642 0.482669 0.970017 -0.143880
C15   C     C_R   0.786847 0.989878 0.030625 -0.141917
C16   C     C_R   0.215559 0.982903 0.969983 -0.143709
C17   C     C_R   0.224300 0.526306 0.064364 -0.032106
C18   C     C_R   0.778093 0.519092 0.936225 -0.028796
C19   C     C_R   0.724446 0.026740 0.064409 -0.031906
C20   C     C_R   0.278046 0.019208 0.936218 -0.029447
C21   C     C_R   0.170860 0.586326 0.025802 -0.114708
C22   C     C_R   0.831469 0.578719 0.974943 -0.107879
C23   C     C_R   0.670994 0.086715 0.025837 -0.114941
C24   C     C_R   0.331450 0.078714 0.974960 -0.107839
C25   C     C_R   0.179022 0.613471 0.955084 0.211885
C26   C     C_R   0.821805 0.612031 0.044736 0.201637
C27   C     C_R   0.679066 0.113483 0.955065 0.211887
C28   C     C_R   0.321827 0.111867 0.044785 0.201734
C29   C     C_R   0.243722 0.582732 0.921066 0.026694
C30   C     C_R   0.757024 0.581506 0.078828 0.025763
C31   C     C_R   0.743774 0.082796 0.921067 0.026728
C32   C     C_R   0.257014 0.081471 0.078845 0.026034
C33   C     C_R   0.472774 0.726280 0.529433 -0.181859
C34   C     C_R   0.478298 0.730681 0.456939 -0.186837
C35   C     C_R   0.978242 0.224244 0.530534 -0.188713
C36   C     C_R   0.982616 0.227761 0.458007 -0.192265
C37   C     C_R   0.500605 0.838307 0.424059 -0.006205
C38   C     C_R   0.488286 0.830057 0.571522 -0.003033
C39   C     C_R   0.000169 0.337040 0.423871 -0.005251
C40   C     C_R   0.988834 0.330896 0.571551 -0.004191
C41   C     C_R   0.511023 0.947185 0.464996 0.234453
C42   C     C_R   0.507879 0.941281 0.539231 0.226366
C43   C     C_R   0.006257 0.447928 0.463588 0.248213
C44   C     C_R   0.003103 0.443826 0.537913 0.244715
C45   C     C_R   0.442085 0.817349 0.863118 0.529413
C46   C     C_R   0.555659 0.816890 0.136752 0.529144
C47   C     C_R   0.942075 0.317345 0.863125 0.528929
C48   C     C_R   0.055732 0.316890 0.136743 0.529441
C49   C     C_R   0.213504 0.696663 0.524837 -0.080900
C50   C     C_R   0.795660 0.679519 0.472837 -0.102196
C51   C     C_R   0.709446 0.189642 0.525679 -0.074284
C52   C     C_R   0.317589 0.088749 0.455812 -0.133806
C53   C     C_R   0.212765 0.685839 0.452341 -0.103127
C54   C     C_R   0.795385 0.674390 0.545288 -0.114239
C55   C     C_R   0.709587 0.182140 0.453152 -0.100345
C56   C     C_R   0.323555 0.082413 0.528289 -0.124888
C57   C     C_R   0.252731 0.593204 0.421090 0.021363
C58   C     C_R   0.748899 0.594074 0.578574 0.027168
C59   C     C_R   0.752639 0.094999 0.420813 0.025422
C60   C     C_R   0.262947 0.062106 0.569206 0.025703
C61   C     C_R   0.301079 0.522685 0.461710 -0.137768
C62   C     C_R   0.695286 0.533223 0.539491 -0.136061
C63   C     C_R   0.803813 0.029294 0.460565 -0.141014
C64   C     C_R   0.196938 0.040575 0.536779 -0.146592
C65   C     C_R   0.302700 0.535013 0.534751 -0.145964
C66   C     C_R   0.693593 0.542451 0.466136 -0.141434
C67   C     C_R   0.805274 0.039708 0.533818 -0.147512
C68   C     C_R   0.190701 0.048916 0.463737 -0.136218
C69   C     C_R   0.256565 0.618328 0.566489 0.041342
C70   C     C_R   0.745421 0.612588 0.432574 0.033188
C71   C     C_R   0.755970 0.116310 0.566602 0.046085
C72   C     C_R   0.250624 0.079582 0.423828 0.021565
C73   C     C_R   0.259754 0.635538 0.851578 0.554133
C74   C     C_R   0.740233 0.635796 0.148134 0.549794
C75   C     C_R   0.759752 0.135510 0.851558 0.554150
C76   C     C_R   0.240239 0.135768 0.148148 0.546902
C77   C     C_R   0.273467 0.041079 0.643719 0.550157
C78   C     C_R   0.730061 0.048921 0.352538 0.559758
C79   C     C_R   0.770144 0.548653 0.647307 0.552897
C80   C     C_R   0.229965 0.548433 0.352700 0.557905
C81   C     C_R   0.468863 0.823321 0.645961 0.589694
C82   C     C_R   0.529161 0.825075 0.352816 0.577143
C83   C     C_R   0.968944 0.323524 0.645949 0.588973
C84   C     C_R   0.028897 0.324889 0.352648 0.578570
C85   C     C_R   0.261387 0.642390 0.641312 0.560512
C86   C     C_R   0.739129 0.640635 0.358146 0.554948
C87   C     C_R   0.761209 0.141629 0.641442 0.563266
C88   C     C_R   0.240488 0.133539 0.355052 0.552675
C89   C     C_3   0.463203 0.902296 0.040488 -0.109891
C90   C     C_3   0.505362 0.933510 0.972984 -0.092194
C91   C     C_3   0.963610 0.403003 0.040338 -0.109814
C92   C     C_3   0.005876 0.433266 0.972761 -0.093203
C93   C     C_3   0.428459 0.791063 0.002149 -0.154990
C94   C     C_3   0.567025 0.849290 0.998533 -0.137595
C95   C     C_3   0.928371 0.291996 0.002224 -0.154713
C96   C     C_3   0.067199 0.348419 0.998450 -0.138294
C97   C     C_3   0.471181 0.822291 0.935904 0.039931
C98   C     C_3   0.524501 0.819525 0.064840 0.042617
C99   C     C_3   0.971208 0.322273 0.935904 0.040193
C100  C     C_3   0.024561 0.319571 0.064830 0.042536
Cr1   Cr    Cr6+3 0.229630 0.835900 0.747350 1.086618
Cr2   Cr    Cr6+3 0.770370 0.835900 0.252650 1.077648
Cr3   Cr    Cr6+3 0.729630 0.335900 0.747350 1.087387
Cr4   Cr    Cr6+3 0.270370 0.335900 0.252650 1.075793
Cr5   Cr    Cr6+3 0.387410 0.989850 0.750850 1.097340
Cr6   Cr    Cr6+3 0.612590 0.989850 0.249150 1.100407
Cr7   Cr    Cr6+3 0.887410 0.489850 0.750850 1.101490
Cr8   Cr    Cr6+3 0.112590 0.489850 0.249150 1.103756
Cr9   Cr    Cr6+3 0.385800 0.677120 0.749340 1.036142
Cr10  Cr    Cr6+3 0.614200 0.677120 0.250660 1.034717
Cr11  Cr    Cr6+3 0.885800 0.177120 0.749340 1.034644
Cr12  Cr    Cr6+3 0.114200 0.177120 0.250660 1.031950
H1    H     H_    0.370998 0.767978 0.002161 0.118606
H2    H     H_    0.624968 0.865473 0.997034 0.118059
H3    H     H_    0.870808 0.269650 0.002298 0.118688
H4    H     H_    0.125201 0.364130 0.996931 0.118165
H5    H     H_    0.180133 0.766836 0.548020 0.167707
H6    H     H_    0.834895 0.738269 0.448761 0.163377
H7    H     H_    0.672797 0.253904 0.549390 0.169529
H8    H     H_    0.364327 0.110178 0.425390 0.184312
H9    H     H_    0.176541 0.742861 0.421410 0.163535
H10   H     H_    0.836054 0.724767 0.574648 0.161179
H11   H     H_    0.671293 0.236298 0.422997 0.167993
H12   H     H_    0.375979 0.092951 0.552063 0.194160
H13   H     H_    0.333317 0.451490 0.437935 0.153347
H14   H     H_    0.657803 0.472959 0.565021 0.140771
H15   H     H_    0.838915 0.963610 0.435765 0.136356
H16   H     H_    0.150532 0.019568 0.567800 0.138458
H17   H     H_    0.338516 0.478299 0.566287 0.139768
H18   H     H_    0.652563 0.494669 0.435901 0.138883
H19   H     H_    0.843737 0.987099 0.564625 0.129074
H20   H     H_    0.138324 0.040543 0.439411 0.150436
H21   H     H_    0.436355 0.964322 0.077924 0.193765
H22   H     H_    0.507853 0.026197 0.949442 0.204419
H23   H     H_    0.937105 0.465694 0.077655 0.194771
H24   H     H_    0.008686 0.525730 0.948987 0.204484
H25   H     H_    0.560914 0.670226 0.927567 0.152419
H26   H     H_    0.484049 0.614270 0.050940 0.153269
H27   H     H_    0.060304 0.168980 0.927838 0.152503
H28   H     H_    0.983202 0.114759 0.051318 0.153419
H29   H     H_    0.346461 0.494459 0.934863 0.161196
H30   H     H_    0.655299 0.489958 0.065402 0.156105
H31   H     H_    0.846609 0.994882 0.934929 0.161023
H32   H     H_    0.155197 0.990246 0.065349 0.156361
H33   H     H_    0.328405 0.441644 0.059549 0.203882
H34   H     H_    0.674068 0.434312 0.941043 0.199451
H35   H     H_    0.828592 0.942243 0.059642 0.203888
H36   H     H_    0.173946 0.934700 0.940980 0.199673
H37   H     H_    0.121282 0.611301 0.050623 0.185483
H38   H     H_    0.880821 0.603876 0.949957 0.175661
H39   H     H_    0.621403 0.111657 0.050642 0.185511
H40   H     H_    0.380805 0.103846 0.949981 0.175427
H41   H     H_    0.455101 0.640429 0.552236 0.163800
H42   H     H_    0.468266 0.647109 0.426855 0.158144
H43   H     H_    0.964912 0.136643 0.554126 0.162844
H44   H     H_    0.975852 0.142202 0.428955 0.158110
O1    O     O_R   0.214270 0.709000 0.827470 -0.441994
O2    O     O_R   0.785730 0.709000 0.172530 -0.444244
O3    O     O_R   0.714270 0.209000 0.827470 -0.441292
O4    O     O_R   0.285730 0.209000 0.172530 -0.447028
O5    O     O_R   0.445950 0.919440 0.676520 -0.442852
O6    O     O_R   0.554050 0.919440 0.323480 -0.432593
O7    O     O_R   0.945950 0.419440 0.676520 -0.432481
O8    O     O_R   0.054050 0.419440 0.323480 -0.431739
O9    O     O_R   0.456730 0.717630 0.669840 -0.524238
O10   O     O_R   0.543270 0.717630 0.330160 -0.521657
O11   O     O_R   0.956730 0.217630 0.669840 -0.526936
O12   O     O_R   0.043270 0.217630 0.330160 -0.526065
O13   O     O_R   0.320620 0.625640 0.672920 -0.511792
O14   O     O_R   0.679380 0.625640 0.327080 -0.503564
O15   O     O_R   0.820620 0.125640 0.672920 -0.511903
O16   O     O_R   0.179380 0.125640 0.327080 -0.507449
O17   O     O_3   0.334280 0.834290 0.749180 -0.315541
O18   O     O_3   0.665720 0.834290 0.250820 -0.302594
O19   O     O_3   0.834280 0.334290 0.749180 -0.312651
O20   O     O_3   0.165720 0.334290 0.250820 -0.301122
O21   O     O_R   0.236160 0.958490 0.823130 -0.484433
O22   O     O_R   0.763840 0.958490 0.176870 -0.486728
O23   O     O_R   0.736160 0.458490 0.823130 -0.486908
O24   O     O_R   0.263840 0.458490 0.176870 -0.486953
O25   O     O_R   0.332080 0.075470 0.831280 -0.505271
O26   O     O_R   0.667920 0.075470 0.168720 -0.512570
O27   O     O_R   0.832080 0.575470 0.831280 -0.509230
O28   O     O_R   0.167920 0.575470 0.168720 -0.512717
O29   O     O_R   0.446300 0.918110 0.826620 -0.490849
O30   O     O_R   0.553700 0.918110 0.173380 -0.497349
O31   O     O_R   0.946300 0.418110 0.826620 -0.492971
O32   O     O_R   0.053700 0.418110 0.173380 -0.496316
O33   O     O_R   0.457110 0.716200 0.831760 -0.502170
O34   O     O_R   0.542890 0.716200 0.168240 -0.510169
O35   O     O_R   0.957110 0.216200 0.831760 -0.502996
O36   O     O_R   0.042890 0.216200 0.168240 -0.509162
O37   O     O_R   0.320980 0.624310 0.823030 -0.528305
O38   O     O_R   0.679020 0.624310 0.176970 -0.528222
O39   O     O_R   0.820980 0.124310 0.823030 -0.529308
O40   O     O_R   0.179020 0.124310 0.176970 -0.529193
O41   O     O_R   0.213890 0.710430 0.665540 -0.491412
O42   O     O_R   0.786110 0.710430 0.334460 -0.507676
O43   O     O_R   0.713890 0.210430 0.665540 -0.490068
O44   O     O_R   0.286110 0.210430 0.334460 -0.506702
O45   O     O_R   0.235810 0.959820 0.673020 -0.506038
O46   O     O_R   0.764190 0.959820 0.326980 -0.510810
O47   O     O_R   0.735810 0.459820 0.673020 -0.509420
O48   O     O_R   0.264190 0.459820 0.326980 -0.506938
O49   O     O_R   0.331700 0.076900 0.669350 -0.501548
O50   O     O_R   0.668300 0.076900 0.330650 -0.470068
O51   O     O_R   0.831700 0.576900 0.669350 -0.492932
O52   O     O_R   0.168300 0.576900 0.330650 -0.473464
Cl1   Cl    Cl    0.105933 0.691793 0.915336 -0.619233
Cl2   Cl    Cl    0.892964 0.699064 0.082300 -0.626198
Cl3   Cl    Cl    0.605788 0.191002 0.915140 -0.617544
Cl4   Cl    Cl    0.393122 0.198405 0.082476 -0.627801
Cl5   Cl    Cl    0.526972 0.092382 0.425881 -0.567400
Cl6   Cl    Cl    0.531899 0.071921 0.590788 -0.546801
Cl7   Cl    Cl    0.016750 0.593217 0.422563 -0.537580
Cl8   Cl    Cl    0.020203 0.579735 0.587542 -0.528326

loop_
_geom_bond_atom_site_label_1
_geom_bond_atom_site_label_2
_ccdc_geom_bond_type
C8    H28   S    
C58   C62   A    
C15   H35   S    
C74   O38   A    
Cr11  O35   S    
C88   O16   A    
C73   O37   A    
C34   C37   A    
C41   C42   A    
C14   C18   A    
Cr9   O17   S    
Cr1   O17   S    
C35   C36   A    
C40   C83   S    
C13   H33   S    
Cr8   O52   S    
C43   Cl7   S    
Cr2   O2    S    
C22   H38   S    
C5    C94   S    
C94   H2    S    
C7    C8    S    
Cr4   O20   S    
Cr12  O16   S    
C56   H12   S    
C15   C19   A    
C7    C96   S    
Cr8   O8    S    
C50   C54   A    
C7    C99   S    
Cr11  O19   S    
C64   C68   A    
Cr4   O4    S    
C39   C84   S    
C48   O32   A    
C55   C59   A    
Cr2   O42   S    
C2    O26   A    
C5    C6    S    
C30   C74   S    
C33   H41   S    
Cr3   O23   S    
C29   C73   S    
C94   C98   S    
C95   C99   S    
Cr12  O12   S    
C73   O1    A    
C92   C96   S    
C47   C99   S    
C46   O34   A    
C3    C18   S    
C50   H6    S    
C10   H30   S    
Cr1   O41   S    
Cr5   O29   S    
C57   C61   A    
C68   H20   S    
C9    C13   A    
Cr6   O26   S    
C3    O23   A    
C24   H40   S    
C11   C15   A    
C8    C100  S    
Cr12  O40   S    
C12   C16   A    
Cr9   O33   S    
C64   H16   S    
Cr10  O38   S    
C51   H7    S    
Cr9   O37   S    
C87   O43   A    
C91   C100  S    
Cr3   O47   S    
C76   O40   A    
C90   C97   S    
Cr7   O51   S    
C84   O8    A    
C9    C29   A    
Cr3   O3    S    
Cr2   O46   S    
C34   H42   S    
C46   C98   S    
C11   C31   A    
C49   C69   A    
C12   C32   A    
C89   C93   S    
Cr4   O44   S    
C57   C80   S    
C92   H24   S    
C8    C95   S    
C1    O21   A    
C4    O24   A    
C59   C78   S    
C27   Cl3   S    
C72   C88   S    
Cr9   O13   S    
C90   C94   S    
C55   H11   S    
Cr10  O18   S    
C25   C29   A    
C48   C100  S    
C63   C67   A    
C60   C77   S    
C59   C63   A    
C89   H21   S    
Cr8   O28   S    
C27   C31   A    
C24   C28   A    
C28   C32   A    
Cr10  O14   S    
Cr6   O30   S    
C10   C14   A    
C95   H3    S    
C91   C92   S    
C62   H14   S    
C62   C66   A    
C93   H1    S    
C82   O6    A    
C51   C55   A    
C39   C43   A    
C83   O11   A    
C1    O25   A    
Cr10  O34   S    
C17   C21   A    
C12   H32   S    
Cr7   O27   S    
C68   C72   A    
C53   H9    S    
C6    H26   S    
C19   C23   A    
C43   C44   A    
C78   O50   A    
Cr6   O50   S    
C84   O12   A    
C77   O49   A    
Cr12  O36   S    
C23   H39   S    
C41   Cl5   S    
C10   C30   A    
C93   C97   S    
C31   C75   S    
C45   C97   S    
C16   C20   A    
C6    C93   S    
C87   O15   A    
C52   C72   A    
Cr3   O19   S    
C33   C34   A    
Cr6   O18   S    
C21   H37   S    
C26   Cl2   S    
Cr3   O43   S    
C4    O28   A    
C74   O2    A    
C25   Cl1   S    
Cr9   O9    S    
C58   C79   S    
C86   O42   A    
C71   C87   S    
C4    C17   S    
C52   H8    S    
Cr4   O48   S    
C45   O33   A    
C80   O52   A    
C5    C97   S    
C3    O27   A    
C26   C30   A    
C83   O7    A    
C23   C27   A    
C38   C81   S    
C22   C26   A    
Cr2   O22   S    
Cr5   O5    S    
C37   C82   S    
Cr2   O18   S    
C47   O31   A    
C70   C86   S    
C6    C98   S    
C69   C85   S    
C36   H44   S    
C54   C58   A    
C75   O3    A    
C65   C69   A    
C21   C25   A    
C61   H13   S    
C76   O4    A    
C1    C20   S    
C53   C57   A    
Cr12  O20   S    
C2    C19   S    
C86   O14   A    
C81   O5    A    
Cr8   O32   S    
C36   C39   A    
C67   H19   S    
Cr4   O24   S    
C78   O46   A    
C35   H43   S    
C77   O45   A    
C32   C76   S    
C65   H17   S    
C51   C71   A    
C47   O35   A    
Cr5   O49   S    
Cr6   O6    S    
C28   Cl4   S    
C54   H10   S    
C14   H34   S    
C79   O47   A    
C33   C38   A    
C13   C17   A    
C89   C98   S    
C60   C64   A    
C82   O10   A    
C88   O44   A    
C18   C22   A    
C35   C40   A    
C50   C70   A    
C5    H25   S    
Cr1   O45   S    
C7    H27   S    
Cr10  O10   S    
C45   O29   A    
C16   H36   S    
C80   O48   A    
Cr7   O19   S    
C90   H22   S    
C96   C100  S    
C67   C71   A    
C79   O51   A    
C61   C65   A    
C37   C41   A    
C85   O13   A    
C42   Cl6   S    
C48   O36   A    
C49   C53   A    
C9    H29   S    
Cr11  O11   S    
Cr1   O1    S    
C38   C42   A    
C56   C60   A    
C40   C44   A    
C91   H23   S    
C66   C70   A    
C46   O30   A    
C91   C95   S    
Cr8   O20   S    
C49   H5    S    
C81   O9    A    
C85   O41   A    
C96   H4    S    
Cr7   O31   S    
Cr5   O17   S    
Cr7   O7    S    
C2    O22   A    
Cr5   O25   S    
C89   C90   S    
C11   H31   S    
C44   Cl8   S    
C20   C24   A    
Cr1   O21   S    
C63   H15   S    
C52   C56   A    
C92   C99   S    
Cr11  O39   S    
C66   H18   S    
Cr11  O15   S    
C75   O39   A    
