data_mof_unit_66088.cif
_audit_creation_date              2012-12-10T18:04:04-0500
_audit_creation_method            fapswitch 2.2
_symmetry_space_group_name_H-M    P1
_symmetry_Int_Tables_number       1
_space_group_crystal_system       triclinic
_cell_length_a                    18.369802
_cell_length_b                    30.695136
_cell_length_c                    30.80303
_cell_angle_alpha                 89.99967
_cell_angle_beta                  90.129064
_cell_angle_gamma                 90.141975
_cell_volume                      17368.6090948

loop_
_atom_site_label
_atom_site_type_symbol
_atom_type_description
_atom_site_fract_x
_atom_site_fract_y
_atom_site_fract_z
_atom_type_partial_charge
C1    C     C_R   0.501017 0.690591 0.309211 0.785774
C2    C     C_R   0.500852 0.690600 0.690799 0.786107
C3    C     C_R   0.001017 0.190591 0.309211 0.785774
C4    C     C_R   0.000852 0.190600 0.690799 0.786107
C5    C     C_R   0.000845 0.690597 0.809206 0.786007
C6    C     C_R   0.000863 0.690600 0.190799 0.786062
C7    C     C_R   0.500845 0.190597 0.809206 0.786007
C8    C     C_R   0.500863 0.190600 0.190799 0.786061
C9    C     C_R   0.438688 0.616168 0.396765 0.144050
C10   C     C_R   0.438030 0.614900 0.604363 0.139800
C11   C     C_R   0.938688 0.116168 0.396765 0.144050
C12   C     C_R   0.938029 0.114900 0.604364 0.139799
C13   C     C_R   0.938096 0.615323 0.895903 0.139999
C14   C     C_R   0.938084 0.614994 0.104265 0.139999
C15   C     C_R   0.438096 0.115322 0.895903 0.139998
C16   C     C_R   0.438084 0.114994 0.104265 0.139999
C17   C     C_3   0.394526 0.643097 0.427243 -0.450903
C18   C     C_3   0.390482 0.640894 0.574777 -0.445195
C19   C     C_3   0.894527 0.143097 0.427244 -0.450902
C20   C     C_3   0.890482 0.140894 0.574777 -0.445195
C21   C     C_3   0.891737 0.641647 0.925740 -0.447258
C22   C     C_3   0.890776 0.641056 0.074602 -0.445996
C23   C     C_3   0.391735 0.141646 0.925738 -0.447257
C24   C     C_3   0.390776 0.141056 0.074602 -0.445997
C25   C     C_3   0.396428 0.678865 0.393153 -0.454861
C26   C     C_3   0.392150 0.676611 0.608929 -0.458725
C27   C     C_3   0.896429 0.178865 0.393154 -0.454860
C28   C     C_3   0.892150 0.176611 0.608929 -0.458724
C29   C     C_3   0.893514 0.677401 0.891632 -0.457649
C30   C     C_3   0.892458 0.676777 0.108750 -0.458658
C31   C     C_3   0.393512 0.177400 0.891630 -0.457650
C32   C     C_3   0.392458 0.176777 0.108750 -0.458659
C33   C     C_R   0.458045 0.879003 0.159919 0.124137
C34   C     C_R   0.458089 0.879059 0.839921 0.123025
C35   C     C_R   0.958045 0.379003 0.159919 0.124137
C36   C     C_R   0.958091 0.379060 0.839920 0.123026
C37   C     C_R   0.957964 0.878970 0.659888 0.122825
C38   C     C_R   0.041559 0.879270 0.339965 0.123219
C39   C     C_R   0.457963 0.378970 0.659888 0.122824
C40   C     C_R   0.541580 0.379262 0.339972 0.123206
C41   C     C_R   0.501653 0.842317 0.157433 -0.084167
C42   C     C_R   0.501530 0.842303 0.842596 -0.084389
C43   C     C_R   0.001653 0.342317 0.157433 -0.084167
C44   C     C_R   0.001530 0.342303 0.842596 -0.084391
C45   C     C_R   0.001655 0.842318 0.657437 -0.084262
C46   C     C_R   0.998232 0.842340 0.342548 -0.085829
C47   C     C_R   0.501655 0.342318 0.657437 -0.084261
C48   C     C_R   0.498232 0.342340 0.342547 -0.085810
C49   C     C_R   0.546759 0.838027 0.120638 -0.202214
C50   C     C_R   0.546314 0.837897 0.879639 -0.202689
C51   C     C_R   0.046759 0.338027 0.120638 -0.202214
C52   C     C_R   0.046312 0.337897 0.879639 -0.202689
C53   C     C_R   0.046853 0.838063 0.620680 -0.203479
C54   C     C_R   0.953229 0.837865 0.379385 -0.202303
C55   C     C_R   0.546855 0.338063 0.620680 -0.203479
C56   C     C_R   0.453207 0.337873 0.379376 -0.202309
C57   C     C_R   0.547173 0.870621 0.088367 -0.206887
C58   C     C_R   0.546656 0.870467 0.911930 -0.207005
C59   C     C_R   0.047173 0.370621 0.088367 -0.206887
C60   C     C_R   0.046654 0.370466 0.911931 -0.207006
C61   C     C_R   0.047268 0.870657 0.588411 -0.207560
C62   C     C_R   0.952721 0.870485 0.411632 -0.207267
C63   C     C_R   0.547270 0.370658 0.588411 -0.207558
C64   C     C_R   0.452699 0.370493 0.411623 -0.207256
C65   C     C_R   0.500594 0.906928 0.091937 -0.084366
C66   C     C_R   0.500312 0.906870 0.908132 -0.083715
C67   C     C_R   0.000594 0.406928 0.091937 -0.084366
C68   C     C_R   0.000312 0.406870 0.908132 -0.083713
C69   C     C_R   0.000597 0.906927 0.591939 -0.086189
C70   C     C_R   0.999102 0.907010 0.407989 -0.086200
C71   C     C_R   0.500597 0.406927 0.591939 -0.086190
C72   C     C_R   0.499101 0.407009 0.407989 -0.086222
C73   C     C_R   0.456368 0.909318 0.128225 0.121657
C74   C     C_R   0.456326 0.909354 0.871631 0.120662
C75   C     C_R   0.956369 0.409318 0.128225 0.121657
C76   C     C_R   0.956328 0.409354 0.871631 0.120661
C77   C     C_R   0.956288 0.909282 0.628192 0.120957
C78   C     C_R   0.043139 0.909620 0.371628 0.119531
C79   C     C_R   0.456287 0.409282 0.628192 0.120957
C80   C     C_R   0.543160 0.409611 0.371636 0.119544
C81   C     C_3   0.400718 0.936349 0.150590 -0.468015
C82   C     C_3   0.401146 0.936572 0.848934 -0.468365
C83   C     C_3   0.900718 0.436349 0.150590 -0.468016
C84   C     C_3   0.901150 0.436573 0.848933 -0.468367
C85   C     C_3   0.900538 0.936273 0.650515 -0.467578
C86   C     C_3   0.098686 0.936875 0.349244 -0.467222
C87   C     C_3   0.400536 0.436272 0.650514 -0.467576
C88   C     C_3   0.598735 0.436855 0.349263 -0.467189
C89   C     C_R   0.360263 0.749950 0.249953 0.839490
C90   C     C_R   0.360264 0.750014 0.750034 0.839250
C91   C     C_R   0.639737 0.750026 0.250035 0.824847
C92   C     C_R   0.639737 0.749965 0.749980 0.824625
C93   C     C_R   0.860263 0.249950 0.249953 0.839491
C94   C     C_R   0.860264 0.250014 0.750034 0.839251
C95   C     C_R   0.139737 0.250026 0.250035 0.824848
C96   C     C_R   0.139737 0.249965 0.749980 0.824626
C97   C     C_R   0.860263 0.749946 0.749955 0.839101
C98   C     C_R   0.860263 0.750003 0.250024 0.839322
C99   C     C_R   0.139737 0.750031 0.750032 0.824910
C100  C     C_R   0.139736 0.749976 0.249989 0.824539
C101  C     C_R   0.360263 0.249946 0.749955 0.839101
C102  C     C_R   0.360263 0.250003 0.250024 0.839320
C103  C     C_R   0.639737 0.250031 0.750032 0.824910
C104  C     C_R   0.639737 0.249976 0.249989 0.824537
C105  C     C_3   0.402016 0.901450 0.186591 -0.465831
C106  C     C_3   0.402521 0.901695 0.812916 -0.462610
C107  C     C_3   0.902016 0.401450 0.186591 -0.465829
C108  C     C_3   0.902525 0.401697 0.812914 -0.462607
C109  C     C_3   0.901837 0.901377 0.686519 -0.463543
C110  C     C_3   0.097487 0.901947 0.313265 -0.463659
C111  C     C_3   0.401834 0.401376 0.686517 -0.463544
C112  C     C_3   0.597536 0.401928 0.313284 -0.463692
C113  C     C_R   0.499954 0.940565 0.940643 0.800930
C114  C     C_R   0.500050 0.940572 0.059367 0.801167
C115  C     C_R   0.999954 0.440565 0.940643 0.800930
C116  C     C_R   0.000050 0.440572 0.059367 0.801167
C117  C     C_R   0.999845 0.940590 0.440618 0.800842
C118  C     C_R   0.000050 0.940571 0.559366 0.800911
C119  C     C_R   0.499845 0.440590 0.440618 0.800845
C120  C     C_R   0.500050 0.440571 0.559366 0.800913
C121  C     C_R   0.500011 0.559268 0.440230 0.822787
C122  C     C_R   0.500113 0.559297 0.559760 0.822927
C123  C     C_R   0.000011 0.059268 0.440230 0.822785
C124  C     C_R   0.000113 0.059297 0.559760 0.822927
C125  C     C_R   0.000017 0.559279 0.940227 0.822922
C126  C     C_R   0.000112 0.559296 0.059759 0.823029
C127  C     C_R   0.500016 0.059279 0.940227 0.822922
C128  C     C_R   0.500112 0.059296 0.059759 0.823030
C129  C     C_R   0.500175 0.809325 0.190707 0.794243
C130  C     C_R   0.500157 0.809326 0.809296 0.794119
C131  C     C_R   0.000175 0.309325 0.190707 0.794243
C132  C     C_R   0.000157 0.309326 0.809296 0.794119
C133  C     C_R   0.000174 0.809325 0.690708 0.794057
C134  C     C_R   0.999816 0.809329 0.309292 0.794112
C135  C     C_R   0.500174 0.309325 0.690708 0.794057
C136  C     C_R   0.499816 0.309329 0.309292 0.794110
C137  C     C_1   0.282664 0.749881 0.249888 -0.169969
C138  C     C_1   0.282666 0.750062 0.750093 -0.169496
C139  C     C_1   0.717333 0.750073 0.250109 -0.164787
C140  C     C_1   0.717333 0.749892 0.749910 -0.165563
C141  C     C_1   0.782664 0.249881 0.249888 -0.169970
C142  C     C_1   0.782666 0.250062 0.750093 -0.169496
C143  C     C_1   0.217333 0.250073 0.250109 -0.164788
C144  C     C_1   0.217333 0.249892 0.749910 -0.165563
C145  C     C_1   0.782665 0.749871 0.749888 -0.169381
C146  C     C_1   0.782665 0.750048 0.250086 -0.167769
C147  C     C_1   0.217334 0.750083 0.750109 -0.165512
C148  C     C_1   0.217332 0.749906 0.249916 -0.167290
C149  C     C_1   0.282665 0.249871 0.749888 -0.169381
C150  C     C_1   0.282665 0.250048 0.250086 -0.167770
C151  C     C_1   0.717334 0.250083 0.750109 -0.165512
C152  C     C_1   0.717332 0.249906 0.249916 -0.167292
C153  C     C_R   0.440406 0.648631 0.365842 0.066315
C154  C     C_R   0.439535 0.647319 0.635331 0.065085
C155  C     C_R   0.940406 0.148631 0.365842 0.066315
C156  C     C_R   0.939535 0.147319 0.635331 0.065085
C157  C     C_R   0.939699 0.647776 0.864967 0.065399
C158  C     C_R   0.939599 0.647416 0.135231 0.064967
C159  C     C_R   0.439698 0.147776 0.864966 0.065399
C160  C     C_R   0.439599 0.147416 0.135231 0.064967
C161  C     C_R   0.503097 0.656650 0.341717 -0.180916
C162  C     C_R   0.503066 0.656685 0.658315 -0.179434
C163  C     C_R   0.003097 0.156650 0.341717 -0.180916
C164  C     C_R   0.003066 0.156685 0.658315 -0.179434
C165  C     C_R   0.002969 0.656671 0.841699 -0.179958
C166  C     C_R   0.003073 0.656685 0.158311 -0.179673
C167  C     C_R   0.502968 0.156671 0.841699 -0.179957
C168  C     C_R   0.503073 0.156685 0.158311 -0.179674
C169  C     C_R   0.562954 0.627603 0.345651 0.395369
C170  C     C_R   0.564376 0.628965 0.653296 0.393973
C171  C     C_R   0.062954 0.127603 0.345651 0.395369
C172  C     C_R   0.064376 0.128965 0.653296 0.393973
C173  C     C_R   0.063763 0.628469 0.846427 0.394348
C174  C     C_R   0.064293 0.628877 0.153376 0.394345
C175  C     C_R   0.563764 0.128469 0.846427 0.394348
C176  C     C_R   0.564293 0.128877 0.153376 0.394344
C177  C     C_R   0.560539 0.594916 0.377432 -0.199844
C178  C     C_R   0.562151 0.596301 0.621480 -0.193840
C179  C     C_R   0.060539 0.094916 0.377431 -0.199847
C180  C     C_R   0.062151 0.096301 0.621480 -0.193840
C181  C     C_R   0.061448 0.595783 0.878205 -0.193829
C182  C     C_R   0.062061 0.596214 0.121559 -0.193398
C183  C     C_R   0.561449 0.095784 0.878205 -0.193827
C184  C     C_R   0.562061 0.096214 0.121559 -0.193399
C185  C     C_R   0.499917 0.590691 0.404918 -0.189391
C186  C     C_R   0.500264 0.590767 0.595061 -0.193701
C187  C     C_R   0.999917 0.090691 0.404918 -0.189392
C188  C     C_R   0.000265 0.090767 0.595061 -0.193701
C189  C     C_R   0.999989 0.590705 0.904896 -0.193112
C190  C     C_R   0.000256 0.590768 0.095056 -0.193649
C191  C     C_R   0.499989 0.090705 0.904896 -0.193113
C192  C     C_R   0.500256 0.090768 0.095056 -0.193648
Cu1   Cu    Cu3+1 0.500000 0.780890 0.280900 0.957407
Cu2   Cu    Cu3+1 0.500000 0.780890 0.719100 0.957469
Cu3   Cu    Cu3+1 0.000000 0.280890 0.280900 0.957405
Cu4   Cu    Cu3+1 0.000000 0.280890 0.719100 0.957468
Cu5   Cu    Cu3+1 1.000000 0.780890 0.780900 0.957670
Cu6   Cu    Cu3+1 0.000000 0.780890 0.219100 0.958188
Cu7   Cu    Cu3+1 0.500000 0.280890 0.780900 0.957671
Cu8   Cu    Cu3+1 0.500000 0.280890 0.219100 0.958192
Cu9   Cu    Cu3+1 0.500000 0.719080 0.219090 0.979348
Cu10  Cu    Cu3+1 0.500000 0.719080 0.780910 0.978421
Cu11  Cu    Cu3+1 0.000000 0.219080 0.219090 0.979348
Cu12  Cu    Cu3+1 0.000000 0.219080 0.780910 0.978421
Cu13  Cu    Cu3+1 0.000000 0.719080 0.719090 0.978425
Cu14  Cu    Cu3+1 1.000000 0.719080 0.280910 0.977799
Cu15  Cu    Cu3+1 0.500000 0.219080 0.719090 0.978425
Cu16  Cu    Cu3+1 0.500000 0.219080 0.280910 0.977801
Cu17  Cu    Cu3+1 0.427490 0.999980 0.000000 0.948137
Cu18  Cu    Cu3+1 0.572510 0.999980 0.000000 0.960592
Cu19  Cu    Cu3+1 0.927490 0.499980 0.000000 0.948138
Cu20  Cu    Cu3+1 0.072510 0.499980 0.000000 0.960593
Cu21  Cu    Cu3+1 0.927490 0.999980 0.500000 0.951006
Cu22  Cu    Cu3+1 0.072510 0.999980 0.500000 0.956924
Cu23  Cu    Cu3+1 0.427490 0.499980 0.500000 0.951004
Cu24  Cu    Cu3+1 0.572510 0.499980 0.500000 0.956920
H1    H     H_    0.607291 0.573843 0.381541 0.184426
H2    H     H_    0.609918 0.576284 0.616525 0.188458
H3    H     H_    0.107291 0.073842 0.381541 0.184428
H4    H     H_    0.109918 0.076284 0.616525 0.188458
H5    H     H_    0.108879 0.575399 0.882939 0.188329
H6    H     H_    0.109764 0.576127 0.116669 0.188690
H7    H     H_    0.608880 0.075400 0.882940 0.188329
H8    H     H_    0.609764 0.076127 0.116669 0.188690
H9    H     H_    0.339213 0.629274 0.432321 0.203418
H10   H     H_    0.335788 0.625867 0.570653 0.202318
H11   H     H_    0.424629 0.651592 0.457459 0.185580
H12   H     H_    0.418268 0.650108 0.544065 0.186144
H13   H     H_    0.839214 0.129275 0.432321 0.203418
H14   H     H_    0.835787 0.125867 0.570653 0.202318
H15   H     H_    0.924631 0.151592 0.457459 0.185580
H16   H     H_    0.918268 0.150108 0.544065 0.186144
H17   H     H_    0.836800 0.627050 0.930089 0.202088
H18   H     H_    0.836033 0.626113 0.070400 0.202030
H19   H     H_    0.920343 0.650590 0.956342 0.186220
H20   H     H_    0.918728 0.650219 0.043927 0.186276
H21   H     H_    0.336799 0.127049 0.930087 0.202088
H22   H     H_    0.336033 0.126114 0.070400 0.202031
H23   H     H_    0.420339 0.150589 0.956341 0.186220
H24   H     H_    0.418729 0.150219 0.043926 0.186276
H25   H     H_    0.342218 0.685634 0.378570 0.200279
H26   H     H_    0.338432 0.682140 0.624502 0.199538
H27   H     H_    0.427603 0.708169 0.403584 0.211358
H28   H     H_    0.420876 0.706606 0.598046 0.211241
H29   H     H_    0.842219 0.185634 0.378570 0.200278
H30   H     H_    0.838432 0.182140 0.624503 0.199537
H31   H     H_    0.927605 0.208169 0.403584 0.211357
H32   H     H_    0.920875 0.206605 0.598046 0.211241
H33   H     H_    0.839611 0.683386 0.876313 0.199247
H34   H     H_    0.838697 0.682395 0.124240 0.199293
H35   H     H_    0.923125 0.707147 0.902428 0.211373
H36   H     H_    0.921362 0.706724 0.097905 0.211377
H37   H     H_    0.339609 0.183385 0.876311 0.199247
H38   H     H_    0.338698 0.182395 0.124240 0.199294
H39   H     H_    0.423122 0.207146 0.902427 0.211373
H40   H     H_    0.421362 0.206724 0.097905 0.211378
H41   H     H_    0.582084 0.810045 0.117163 0.156334
H42   H     H_    0.581480 0.809854 0.883284 0.156329
H43   H     H_    0.082084 0.310045 0.117163 0.156334
H44   H     H_    0.081476 0.309852 0.883285 0.156331
H45   H     H_    0.082248 0.810109 0.617235 0.156837
H46   H     H_    0.918084 0.809707 0.382923 0.159505
H47   H     H_    0.582250 0.310110 0.617236 0.156836
H48   H     H_    0.418046 0.309721 0.382908 0.159492
H49   H     H_    0.582712 0.867154 0.060571 0.151647
H50   H     H_    0.582008 0.866931 0.939898 0.151384
H51   H     H_    0.082712 0.367154 0.060571 0.151647
H52   H     H_    0.082005 0.366930 0.939899 0.151383
H53   H     H_    0.082887 0.867220 0.560648 0.155722
H54   H     H_    0.917320 0.866855 0.439482 0.156526
H55   H     H_    0.582889 0.367221 0.560650 0.155722
H56   H     H_    0.417282 0.366869 0.439466 0.156538
H57   H     H_    0.422850 0.968413 0.161082 0.199761
H58   H     H_    0.423664 0.968574 0.838606 0.199718
H59   H     H_    0.348501 0.937555 0.132336 0.208913
H60   H     H_    0.348756 0.937927 0.866858 0.209290
H61   H     H_    0.922850 0.468413 0.161082 0.199761
H62   H     H_    0.923670 0.468575 0.838605 0.199718
H63   H     H_    0.848501 0.437555 0.132336 0.208913
H64   H     H_    0.848759 0.437930 0.866855 0.209290
H65   H     H_    0.922585 0.968354 0.661020 0.199844
H66   H     H_    0.150906 0.938307 0.367490 0.208481
H67   H     H_    0.848356 0.937441 0.632223 0.208875
H68   H     H_    0.076447 0.968846 0.338747 0.201033
H69   H     H_    0.422581 0.468353 0.661019 0.199844
H70   H     H_    0.650946 0.438276 0.367518 0.208476
H71   H     H_    0.348354 0.437439 0.632222 0.208875
H72   H     H_    0.576520 0.468831 0.338761 0.201032
H73   H     H_    0.424385 0.913462 0.217951 0.210600
H74   H     H_    0.425309 0.913667 0.781709 0.210630
H75   H     H_    0.350715 0.882314 0.188901 0.197118
H76   H     H_    0.351091 0.882711 0.810266 0.198407
H77   H     H_    0.924385 0.413462 0.217951 0.210599
H78   H     H_    0.925315 0.413668 0.781708 0.210629
H79   H     H_    0.850715 0.382314 0.188901 0.197118
H80   H     H_    0.851095 0.382713 0.810263 0.198407
H81   H     H_    0.924119 0.913406 0.717893 0.210784
H82   H     H_    0.148861 0.883034 0.310956 0.195971
H83   H     H_    0.850572 0.882202 0.688792 0.198153
H84   H     H_    0.075054 0.913843 0.281903 0.211043
H85   H     H_    0.424115 0.413405 0.717892 0.210784
H86   H     H_    0.648901 0.383004 0.310984 0.195969
H87   H     H_    0.350569 0.382200 0.688790 0.198153
H88   H     H_    0.575128 0.413828 0.281917 0.211044
O1    O     O_R   0.500000 0.731000 0.321180 -0.584636
O2    O     O_R   0.500000 0.731000 0.678820 -0.584274
O3    O     O_R   0.000000 0.231000 0.321180 -0.584636
O4    O     O_R   0.000000 0.231000 0.678820 -0.584274
O5    O     O_R   0.000000 0.731000 0.821180 -0.584196
O6    O     O_R   1.000000 0.731000 0.178820 -0.584132
O7    O     O_R   0.500000 0.231000 0.821180 -0.584195
O8    O     O_R   0.500000 0.231000 0.178820 -0.584132
O9    O     O_R   0.500000 0.678810 0.268980 -0.576670
O10   O     O_R   0.500000 0.678810 0.731020 -0.577322
O11   O     O_R   0.000000 0.178810 0.268980 -0.576671
O12   O     O_R   0.000000 0.178810 0.731020 -0.577322
O13   O     O_R   0.000000 0.678810 0.768980 -0.577234
O14   O     O_R   0.000000 0.678810 0.231020 -0.577330
O15   O     O_R   0.500000 0.178810 0.768980 -0.577235
O16   O     O_R   0.500000 0.178810 0.231020 -0.577330
O17   O     O_R   0.394200 0.776090 0.276090 -0.587898
O18   O     O_R   0.394200 0.776090 0.723910 -0.586644
O19   O     O_R   0.605800 0.776090 0.276090 -0.579564
O20   O     O_R   0.605800 0.776090 0.723910 -0.580700
O21   O     O_R   0.894200 0.276090 0.276090 -0.587899
O22   O     O_R   0.894200 0.276090 0.723910 -0.586644
O23   O     O_R   0.105800 0.276090 0.276090 -0.579565
O24   O     O_R   0.105800 0.276090 0.723910 -0.580700
O25   O     O_R   0.894200 0.776090 0.776090 -0.586654
O26   O     O_R   0.894200 0.776090 0.223910 -0.583570
O27   O     O_R   0.105800 0.776090 0.776090 -0.580640
O28   O     O_R   0.105800 0.776090 0.223910 -0.583341
O29   O     O_R   0.394200 0.276090 0.776090 -0.586653
O30   O     O_R   0.394200 0.276090 0.223910 -0.583569
O31   O     O_R   0.605800 0.276090 0.776090 -0.580639
O32   O     O_R   0.605800 0.276090 0.223910 -0.583341
O33   O     O_R   0.394210 0.723900 0.223890 -0.571121
O34   O     O_R   0.394210 0.723900 0.776110 -0.571824
O35   O     O_R   0.605790 0.723900 0.223890 -0.585470
O36   O     O_R   0.605790 0.723900 0.776110 -0.584905
O37   O     O_R   0.894210 0.223900 0.223890 -0.571121
O38   O     O_R   0.894210 0.223900 0.776110 -0.571823
O39   O     O_R   0.105790 0.223900 0.223890 -0.585470
O40   O     O_R   0.105790 0.223900 0.776110 -0.584905
O41   O     O_R   0.894210 0.723900 0.723890 -0.571921
O42   O     O_R   0.894210 0.723900 0.276110 -0.575809
O43   O     O_R   0.105790 0.723900 0.723890 -0.584825
O44   O     O_R   0.105790 0.723900 0.276110 -0.581343
O45   O     O_R   0.394210 0.223900 0.723890 -0.571921
O46   O     O_R   0.394210 0.223900 0.276110 -0.575809
O47   O     O_R   0.605790 0.223900 0.723890 -0.584825
O48   O     O_R   0.605790 0.223900 0.276110 -0.581344
O49   O     O_R   0.500000 0.821170 0.231010 -0.585195
O50   O     O_R   0.500000 0.821170 0.768990 -0.585531
O51   O     O_R   0.000000 0.321170 0.231010 -0.585195
O52   O     O_R   0.000000 0.321170 0.768990 -0.585531
O53   O     O_R   0.000000 0.821170 0.731010 -0.585399
O54   O     O_R   0.000000 0.821170 0.268990 -0.584923
O55   O     O_R   0.500000 0.321170 0.731010 -0.585399
O56   O     O_R   0.500000 0.321170 0.268990 -0.584920
O57   O     O_R   0.500000 0.768980 0.178810 -0.586555
O58   O     O_R   0.500000 0.768980 0.821190 -0.586465
O59   O     O_R   0.000000 0.268980 0.178810 -0.586555
O60   O     O_R   0.000000 0.268980 0.821190 -0.586465
O61   O     O_R   0.000000 0.768980 0.678810 -0.586629
O62   O     O_R   1.000000 0.768980 0.321190 -0.587172
O63   O     O_R   0.500000 0.268980 0.678810 -0.586628
O64   O     O_R   0.500000 0.268980 0.321190 -0.587169
O65   O     O_R   0.438730 0.954890 0.954890 -0.584683
O66   O     O_R   0.438730 0.954890 0.045110 -0.584835
O67   O     O_R   0.561270 0.954890 0.954890 -0.587988
O68   O     O_R   0.561270 0.954890 0.045110 -0.587809
O69   O     O_R   0.938730 0.454890 0.954890 -0.584683
O70   O     O_R   0.938730 0.454890 0.045110 -0.584835
O71   O     O_R   0.061270 0.454890 0.954890 -0.587988
O72   O     O_R   0.061270 0.454890 0.045110 -0.587808
O73   O     O_R   0.938730 0.954890 0.454890 -0.584977
O74   O     O_R   0.938730 0.954890 0.545110 -0.587159
O75   O     O_R   0.061270 0.954890 0.454890 -0.587996
O76   O     O_R   0.061270 0.954890 0.545110 -0.585856
O77   O     O_R   0.438730 0.454890 0.454890 -0.584981
O78   O     O_R   0.438730 0.454890 0.545110 -0.587160
O79   O     O_R   0.561270 0.454890 0.454890 -0.587998
O80   O     O_R   0.561270 0.454890 0.545110 -0.585856
O81   O     O_R   0.438760 0.545060 0.454900 -0.581899
O82   O     O_R   0.438760 0.545060 0.545100 -0.584779
O83   O     O_R   0.561240 0.545060 0.454900 -0.588586
O84   O     O_R   0.561240 0.545060 0.545100 -0.586546
O85   O     O_R   0.938760 0.045060 0.454900 -0.581900
O86   O     O_R   0.938760 0.045060 0.545100 -0.584779
O87   O     O_R   0.061240 0.045060 0.454900 -0.588585
O88   O     O_R   0.061240 0.045060 0.545100 -0.586546
O89   O     O_R   0.938760 0.545060 0.954900 -0.584951
O90   O     O_R   0.938760 0.545060 0.045100 -0.585050
O91   O     O_R   0.061240 0.545060 0.954900 -0.586214
O92   O     O_R   0.061240 0.545060 0.045100 -0.586173
O93   O     O_R   0.438760 0.045060 0.954900 -0.584951
O94   O     O_R   0.438760 0.045060 0.045100 -0.585050
O95   O     O_R   0.561240 0.045060 0.954900 -0.586214
O96   O     O_R   0.561240 0.045060 0.045100 -0.586173
O97   O     O_3   0.625756 0.631038 0.321248 -0.720685
H89   H     H_    0.624247 0.657741 0.303327 0.321362
O98   O     O_3   0.628212 0.633678 0.676687 -0.719281
H90   H     H_    0.625619 0.659895 0.695256 0.320707
O99   O     O_3   0.125756 0.131038 0.321248 -0.720684
H91   H     H_    0.124247 0.157740 0.303327 0.321362
O100  O     O_3   0.128212 0.133678 0.676686 -0.719282
H92   H     H_    0.125619 0.159895 0.695256 0.320707
O101  O     O_3   0.127264 0.632733 0.822800 -0.719005
H93   H     H_    0.125081 0.659151 0.804490 0.321071
O102  O     O_3   0.128061 0.633504 0.176849 -0.718347
H94   H     H_    0.125532 0.659753 0.195377 0.320965
O103  O     O_3   0.627265 0.132734 0.822802 -0.719005
H95   H     H_    0.625081 0.159152 0.804491 0.321071
O104  O     O_3   0.628061 0.133504 0.176849 -0.718347
H96   H     H_    0.625532 0.159753 0.195377 0.320965

loop_
_geom_bond_atom_site_label_1
_geom_bond_atom_site_label_2
_ccdc_geom_bond_type
Cu5   O53   S    
Cu6   Cu14  S    
C34   C42   A    
C4    O12   A    
C6    C166  S    
C5    O13   A    
C7    O15   A    
C14   C158  A    
C119  O77   A    
C95   O23   A    
C86   C110  S    
C87   H71   S    
C119  O79   A    
C83   H63   S    
C88   H72   S    
C127  O93   A    
Cu3   Cu11  S    
C70   C117  S    
Cu1   Cu9   S    
C100  O44   A    
Cu18  O96   S    
C169  C177  A    
C15   C191  A    
C8    C168  S    
C22   H18   S    
C109  H83   S    
C94   O22   A    
C96   O40   A    
C112  H86   S    
C120  O80   A    
Cu11  O59   S    
Cu4   Cu12  S    
C37   C109  S    
C24   H24   S    
C124  O86   A    
Cu13  O13   S    
C39   C111  S    
Cu8   Cu16  S    
C85   H65   S    
C173  C181  A    
Cu16  O16   S    
C76   C84   S    
C79   C87   S    
C99   O43   A    
C98   O42   A    
C166  C174  A    
C173  O101  S    
Cu24  O84   S    
C181  H5    S    
C34   C106  S    
Cu7   O7    S    
Cu8   O8    S    
C175  O103  S    
Cu21  O85   S    
C118  O76   A    
C20   C28   S    
C83   H61   S    
C111  H85   S    
C21   C29   S    
Cu4   O4    S    
C153  C161  A    
C23   C31   S    
Cu17  O66   S    
Cu23  Cu24  S    
C24   C32   S    
C27   H31   S    
C46   C134  S    
C12   C20   S    
C13   C21   S    
C125  O91   A    
C19   H13   S    
C126  O92   A    
C62   H54   S    
C33   C73   A    
C63   C71   A    
C36   C44   A    
C37   C45   A    
C39   C47   A    
C176  C184  A    
C117  O73   A    
C89   O33   A    
Cu14  O44   S    
C97   C145  S    
Cu6   O6    S    
C87   H69   S    
C177  H1    S    
C115  O69   A    
C140  C145  T    
C44   C132  S    
C45   C133  S    
C59   H51   S    
Cu4   O24   S    
C17   C25   S    
C104  C152  S    
C43   C131  S    
C99   C147  S    
C80   C88   S    
O99   H91   S    
Cu13  O61   S    
C174  O102  S    
C136  O56   A    
C128  O94   A    
C10   C18   S    
C110  H82   S    
Cu23  O82   S    
C114  O66   A    
C159  C167  A    
C160  C168  A    
Cu22  O76   S    
C105  H73   S    
C35   C107  S    
C124  O88   A    
C178  C186  A    
Cu7   O29   S    
C87   C111  S    
C85   H67   S    
C101  O45   A    
C96   O24   A    
Cu7   O55   S    
C182  C190  A    
C103  O47   A    
O101  H93   S    
C97   O25   A    
C66   C113  S    
C16   C160  A    
C137  C148  T    
C69   C77   A    
C171  O99   S    
C43   C51   A    
C174  C182  A    
C71   C79   A    
O97   H89   S    
C40   C112  S    
C100  O28   A    
C62   C70   A    
Cu20  O71   S    
Cu4   O22   S    
C134  O54   A    
C94   O38   A    
C172  O100  S    
Cu17  O65   S    
C52   H44   S    
C131  O51   A    
C53   H45   S    
C126  C190  S    
C63   H55   S    
C126  O90   A    
C52   C60   A    
C59   C67   A    
C53   C61   A    
C104  O48   A    
Cu23  O78   S    
C121  O81   A    
C55   C63   A    
Cu9   O9    S    
C56   C64   A    
Cu11  O39   S    
C35   C43   A    
C81   H57   S    
Cu12  O12   S    
C11   C155  A    
C161  C169  A    
C6    O14   A    
C117  O75   A    
C77   C85   S    
Cu14  O42   S    
C132  O60   A    
C171  C179  A    
Cu1   O1    S    
C12   C156  A    
Cu22  O88   S    
C90   C138  S    
Cu18  O67   S    
Cu24  O79   S    
C81   C105  S    
C94   C142  S    
Cu19  O89   S    
C102  O46   A    
C65   C73   A    
C157  C165  A    
C124  C188  S    
C135  O55   A    
C50   H42   S    
C155  C163  A    
C1    O1    A    
C98   O26   A    
C127  C191  S    
C110  H84   S    
C128  C192  S    
C3    O11   A    
C67   C116  S    
C105  H75   S    
Cu5   O25   S    
C106  H76   S    
C114  O68   A    
Cu14  O14   S    
C8    O8    A    
C2    O10   A    
Cu17  Cu18  S    
C86   H66   S    
C28   H30   S    
C4    O4    A    
C5    O5    A    
C42   C50   A    
C164  C172  A    
C67   C75   A    
C17   H9    S    
C169  O97   S    
Cu20  O92   S    
C167  C175  A    
C168  C176  A    
C7    C167  S    
C86   H68   S    
C22   C30   S    
C47   C135  S    
C48   C136  S    
C109  H81   S    
C90   O18   A    
Cu4   O52   S    
Cu15  O47   S    
C25   H25   S    
C68   C76   A    
Cu9   O57   S    
C31   H39   S    
C14   C22   S    
Cu21  O74   S    
C72   C80   A    
C10   C154  A    
C82   H58   S    
C101  O29   A    
C121  O83   A    
C84   H64   S    
Cu7   O31   S    
C10   C186  A    
C103  O31   A    
C133  O53   A    
C82   C106  S    
C97   O41   A    
C38   C46   A    
C26   C154  S    
Cu16  O46   S    
Cu23  O81   S    
C14   C190  A    
C183  H7    S    
C32   H38   S    
Cu15  O15   S    
C92   O20   A    
C141  C152  T    
Cu10  O36   S    
Cu6   O54   S    
C139  C146  T    
C95   C143  S    
O103  H95   S    
Cu5   Cu13  S    
C18   C26   S    
Cu2   O50   S    
C127  O95   A    
Cu21  Cu22  S    
C128  O96   A    
C11   C19   S    
C133  O61   A    
C170  O98   S    
C29   H35   S    
C74   C82   S    
Cu5   O27   S    
C85   C109  S    
C106  H74   S    
C184  H8    S    
C176  O104  S    
C107  H79   S    
C179  C187  A    
Cu9   O35   S    
C61   C69   A    
Cu2   Cu10  S    
C69   C118  S    
C177  C185  A    
C30   C158  S    
C28   H32   S    
C73   C81   S    
C180  C188  A    
C181  C189  A    
C21   H17   S    
C184  C192  A    
C38   C110  S    
C163  C171  A    
C103  C151  S    
C172  C180  A    
C25   H27   S    
C1    C161  S    
Cu17  O93   S    
C102  O30   A    
C2    C162  S    
C60   H52   S    
C61   H53   S    
Cu17  O94   S    
C154  C162  A    
Cu15  O45   S    
C136  O64   A    
C27   C155  S    
C182  H6    S    
C20   H14   S    
C31   H37   S    
C25   C153  S    
C32   H40   S    
C50   C58   A    
C33   C105  S    
Cu8   O32   S    
Cu7   Cu15  S    
C108  H78   S    
C29   C157  S    
C54   C62   A    
C37   C77   A    
C122  O82   A    
Cu18  O95   S    
Cu1   O19   S    
C39   C79   A    
C15   C159  A    
Cu16  O48   S    
C23   H23   S    
Cu19  Cu20  S    
C162  C170  A    
C7    O7    A    
C46   C54   A    
Cu8   O56   S    
Cu12  O60   S    
Cu2   O2    S    
C18   H12   S    
C102  C150  S    
C91   C139  S    
C89   C137  S    
C11   C187  A    
Cu18  O68   S    
C92   C140  S    
C93   C141  S    
C158  C166  A    
C58   C66   A    
C118  O74   A    
C51   H43   S    
C2    O2    A    
Cu24  O83   S    
C131  O59   A    
C178  H2    S    
Cu9   O33   S    
C57   C65   A    
Cu8   O30   S    
C107  H77   S    
C38   C78   A    
C9    C185  A    
Cu20  O72   S    
C33   C41   A    
C27   H29   S    
Cu14  O62   S    
C75   C83   S    
C21   H19   S    
C6    O6    A    
C84   C108  S    
C30   H36   S    
C113  O65   A    
C132  O52   A    
Cu6   O28   S    
C122  C186  S    
C68   C115  S    
C88   C112  S    
Cu12  O38   S    
Cu23  O77   S    
C36   C108  S    
C60   C68   A    
O102  H94   S    
Cu10  O10   S    
C112  H88   S    
C170  C178  A    
C66   C74   A    
C142  C151  T    
C20   H16   S    
C1    O9    A    
C70   C78   A    
C17   H11   S    
C65   C114  S    
O98   H90   S    
Cu15  O63   S    
Cu21  O86   S    
Cu1   O49   S    
C49   C57   A    
Cu24  O80   S    
C35   C75   A    
C71   C120  S    
C8    O16   A    
C55   H47   S    
C56   H48   S    
C135  O63   A    
Cu3   O23   S    
C130  O58   A    
C23   H21   S    
C26   H28   S    
C96   C144  S    
C165  C173  A    
C12   C188  A    
C13   C189  A    
C130  O50   A    
C91   O35   A    
C122  O84   A    
Cu22  O75   S    
C40   C48   A    
C36   C76   A    
C90   O34   A    
C41   C49   A    
C143  C150  T    
C64   H56   S    
C83   C107  S    
C16   C192  A    
Cu2   O20   S    
O100  H92   S    
C40   C80   A    
Cu3   O51   S    
C18   H10   S    
C179  H3    S    
C78   C86   S    
C15   C23   S    
C57   H49   S    
C16   C24   S    
Cu13  O41   S    
C49   H41   S    
Cu5   O5    S    
Cu19  O70   S    
C19   C27   S    
C116  O70   A    
C54   H46   S    
C129  O57   A    
C98   C146  S    
C99   O27   A    
C121  C185  S    
C9    C153  A    
C30   H34   S    
C84   H62   S    
C81   H59   S    
C29   H33   S    
Cu6   O26   S    
C82   H60   S    
Cu21  O73   S    
C144  C149  T    
C88   H70   S    
Cu12  O40   S    
O104  H96   S    
C138  C147  T    
C58   H50   S    
C4    C164  S    
C42   C130  S    
C134  O62   A    
C22   H20   S    
C9    C17   S    
C123  O85   A    
C5    C165  S    
C120  O78   A    
C180  H4    S    
C51   C59   A    
Cu22  O87   S    
C24   H22   S    
C47   C55   A    
C129  O49   A    
C48   C56   A    
C175  C183  A    
Cu19  O90   S    
Cu11  O11   S    
Cu19  O69   S    
Cu3   O21   S    
Cu1   O17   S    
C183  C191  A    
C93   O21   A    
C26   H26   S    
Cu10  O58   S    
C95   O39   A    
C89   O17   A    
C3    C163  S    
Cu16  O64   S    
Cu11  O37   S    
Cu10  O34   S    
Cu3   O3    S    
C41   C129  S    
C44   C52   A    
C19   H15   S    
C100  C148  S    
C111  H87   S    
C72   C119  S    
C101  C149  S    
Cu2   O18   S    
C108  H80   S    
C64   C72   A    
C123  C187  S    
C92   O36   A    
C45   C53   A    
C34   C74   A    
C156  C164  A    
C115  O71   A    
C113  O67   A    
C28   C156  S    
C3    O3    A    
Cu13  O43   S    
C125  C189  S    
C91   O19   A    
C125  O89   A    
C13   C157  A    
C93   O37   A    
C31   C159  S    
C116  O72   A    
Cu20  O91   S    
C123  O87   A    
C32   C160  S    
C104  O32   A    
