data_mof_unit_11799.cif
_audit_creation_date              2012-12-10T18:45:07-0500
_audit_creation_method            fapswitch 2.2
_symmetry_space_group_name_H-M    P1
_symmetry_Int_Tables_number       1
_space_group_crystal_system       triclinic
_cell_length_a                    10.725346
_cell_length_b                    9.944809
_cell_length_c                    10.602935
_cell_angle_alpha                 94.330893
_cell_angle_beta                  93.50388
_cell_angle_gamma                 88.317636
_cell_volume                      1125.23991501

loop_
_atom_site_label
_atom_site_type_symbol
_atom_type_description
_atom_site_fract_x
_atom_site_fract_y
_atom_site_fract_z
_atom_type_partial_charge
C1    C     C_R   0.261837 0.502714 0.510903 0.811907
C2    C     C_R   0.740553 0.497393 0.500174 0.861666
C3    C     C_R   0.932835 0.605669 0.466880 -0.126674
C4    C     C_R   0.060131 0.611391 0.475093 -0.184439
C5    C     C_R   0.576818 0.075288 0.584352 0.042960
C6    C     C_R   0.417789 0.068710 0.421943 -0.009406
C7    C     C_R   0.584160 0.931022 0.576733 0.017928
C8    C     C_R   0.412159 0.925360 0.426714 0.012938
C9    C     C_R   0.494165 0.494890 0.259526 0.871975
C10   C     C_R   0.498132 0.506929 0.740367 0.806249
C11   C     C_R   0.264090 0.540215 0.101034 -0.178293
C12   C     C_R   0.315716 0.679546 0.891615 -0.158724
C13   C     C_R   0.170332 0.625011 0.047781 -0.013457
C14   C     C_R   0.196537 0.695551 0.941918 -0.102762
C15   C     C_R   0.404405 0.583318 0.939950 0.085864
C16   C     C_R   0.386094 0.533498 0.055894 0.047968
C17   C     C_R   0.492170 0.481853 0.124405 -0.117300
C18   C     C_R   0.508059 0.527534 0.875477 -0.126806
C19   C     C_R   0.607119 0.453621 0.068432 -0.053333
C20   C     C_R   0.613583 0.471945 0.939751 -0.065661
C21   C     C_R   0.074978 0.399420 0.578897 -0.039559
C22   C     C_R   0.946689 0.384240 0.554780 -0.043252
C23   C     C_R   0.875050 0.492540 0.504532 -0.089166
C24   C     C_R   0.130718 0.507344 0.527111 -0.124792
N1    N     N_R   0.500000 0.857200 0.500000 -0.182555
N2    N     N_R   0.500000 0.142810 0.500000 -0.171230
O1    O     O_R   0.316770 0.614620 0.499990 -0.661782
O2    O     O_R   0.683230 0.614620 0.500010 -0.649482
O3    O     O_R   0.316800 0.385290 0.500000 -0.595469
O4    O     O_R   0.683200 0.385290 0.500000 -0.593989
O5    O     O_R   0.500010 0.614690 0.316770 -0.647525
O6    O     O_R   0.499990 0.614690 0.683230 -0.632500
O7    O     O_R   0.500040 0.385360 0.316770 -0.579722
O8    O     O_R   0.499960 0.385360 0.683230 -0.646622
Zn1   Zn    Zn3+2 0.500000 0.653120 0.500000 0.933285
Zn2   Zn    Zn3+2 0.500000 0.346880 0.500000 1.004552
C25   C     C_2   0.721203 0.412699 0.144756 0.533374
H1    H     H_    0.808757 0.461388 0.134900 0.069041
O9    O     O_2   0.719306 0.321283 0.215117 -0.484721
C26   C     C_2   0.730248 0.441524 0.871307 0.401419
H2    H     H_    0.745461 0.491644 0.786310 0.038206
O10   O     O_2   0.808576 0.358574 0.906184 -0.547308
C27   C     C_2   0.225747 0.435490 0.180090 0.407654
H3    H     H_    0.183202 0.462109 0.268465 0.055962
O11   O     O_2   0.231034 0.317902 0.138873 -0.509144
C28   C     C_2   0.353714 0.783578 0.809666 0.469236
H4    H     H_    0.293245 0.812103 0.729726 0.063679
O12   O     O_2   0.451948 0.841715 0.834052 -0.532995
C29   C     C_2   0.048365 0.643259 0.108439 0.480353
H5    H     H_    0.009641 0.561115 0.153666 0.028411
O13   O     O_2   0.992819 0.752275 0.114242 -0.478699
C30   C     C_2   0.098779 0.781050 0.878802 0.531984
H6    H     H_    0.121302 0.879148 0.849359 0.090124
O14   O     O_2   0.993144 0.739998 0.854733 -0.510067
C31   C     C_2   0.152108 0.307022 0.659273 0.486051
H7    H     H_    0.229614 0.347496 0.719715 0.065069
O15   O     O_2   0.134067 0.186103 0.655399 -0.523196
C32   C     C_2   0.892764 0.254325 0.578337 0.521435
H8    H     H_    0.898722 0.220025 0.673298 0.109524
O16   O     O_2   0.849410 0.180624 0.490139 -0.469597
H9    H     H_    0.879745 0.688195 0.426674 0.201354
H10   H     H_    0.103270 0.695043 0.436640 0.207892
C33   C     C_2   0.643695 0.152116 0.690845 0.560558
H11   H     H_    0.680132 0.248958 0.678343 0.063031
O17   O     O_2   0.654791 0.109567 0.796144 -0.495573
C34   C     C_2   0.339080 0.138764 0.329176 0.613795
H12   H     H_    0.378743 0.163229 0.242546 0.091005
O18   O     O_2   0.230225 0.167958 0.348609 -0.446191
C35   C     C_2   0.684149 0.860049 0.650264 0.598537
H13   H     H_    0.665500 0.769401 0.694680 0.119085
O19   O     O_2   0.790511 0.901835 0.660155 -0.526818
C36   C     C_2   0.310420 0.850099 0.353459 0.411092
H14   H     H_    0.324673 0.749055 0.313385 0.108131
O20   O     O_2   0.205655 0.899892 0.339211 -0.504489

loop_
_geom_bond_atom_site_label_1
_geom_bond_atom_site_label_2
_ccdc_geom_bond_type
C7    C35   S    
C15   C18   A    
C34   O18   D    
C27   H3    S    
C33   O17   D    
C11   C27   S    
C25   H1    S    
C4    H10   S    
C36   O20   D    
C11   C13   A    
C11   C16   A    
C3    C23   A    
C19   C20   A    
C7    N1    A    
C12   C15   A    
O4    Zn2   S    
C2    O4    A    
C31   H7    S    
C1    O3    A    
C34   H12   S    
C3    C4    A    
C21   C31   S    
C25   O9    D    
C13   C14   A    
C2    O2    A    
C9    O7    A    
C8    N1    A    
C27   O11   D    
O3    Zn2   S    
C22   C32   S    
C6    N2    A    
N1    Zn1   S    
C4    C24   A    
C13   C29   S    
C26   O10   D    
C26   H2    S    
C17   C19   A    
C1    C24   S    
C30   O14   D    
O8    Zn2   S    
C31   O15   D    
C35   H13   S    
C10   C18   S    
O5    Zn1   S    
C8    C36   S    
C35   O19   D    
C15   C16   A    
C9    O5    A    
C3    H9    S    
C32   O16   D    
C5    N2    A    
C10   O8    A    
C28   O12   D    
C10   O6    A    
C6    C34   S    
O7    Zn2   S    
C30   H6    S    
C5    C33   S    
C18   C20   A    
C5    C7    A    
C29   H5    S    
C21   C24   A    
C9    C17   S    
C2    C23   S    
C1    O1    A    
N2    Zn2   S    
C28   H4    S    
C16   C17   A    
C6    C8    A    
C19   C25   S    
O1    Zn1   S    
C32   H8    S    
C21   C22   A    
C20   C26   S    
C22   C23   A    
C14   C30   S    
O6    Zn1   S    
C33   H11   S    
O2    Zn1   S    
C12   C14   A    
C36   H14   S    
C29   O13   D    
C12   C28   S    
