data_mof_unit_55275.cif
_audit_creation_date              2013-03-05T16:30:49-0500
_audit_creation_method            fapswitch 2.2
_symmetry_space_group_name_H-M    P1
_symmetry_Int_Tables_number       1
_space_group_crystal_system       triclinic
_cell_length_a                    18.323287
_cell_length_b                    18.346173
_cell_length_c                    18.407893
_cell_angle_alpha                 119.938079
_cell_angle_beta                  120.278003
_cell_angle_gamma                 89.843473
_cell_volume                      4367.2336548

loop_
_atom_site_label
_atom_site_type_symbol
_atom_site_description
_atom_site_fract_x
_atom_site_fract_y
_atom_site_fract_z
_atom_type_partial_charge
Zn1   Zn    Zn3+2 0.869870 0.956630 0.413250 0.956638
Zn2   Zn    Zn3+2 0.043380 0.130130 0.586750 0.979993
Zn3   Zn    Zn3+2 0.043390 0.956630 0.413260 0.999877
Zn4   Zn    Zn3+2 0.043360 0.956610 0.586740 1.043112
O1    O     O_3   0.000000 0.000000 0.500000 -0.498999
O2    O     O_R   0.115780 0.055050 0.731580 -0.630470
O3    O     O_R   0.823490 0.884220 0.268410 -0.656445
O4    O     O_R   0.944920 0.176520 0.560720 -0.649647
O5    O     O_R   0.115810 0.884200 0.439290 -0.649642
O6    O     O_R   0.115820 0.176530 0.560730 -0.625485
O7    O     O_R   0.944890 0.884180 0.560700 -0.603965
O8    O     O_R   0.115830 0.055100 0.439300 -0.626555
O9    O     O_R   0.823460 0.884190 0.439270 -0.671882
O10   O     O_R   0.823480 0.055090 0.439280 -0.624286
O11   O     O_R   0.115790 0.884180 0.560710 -0.599468
O12   O     O_R   0.115790 0.176500 0.731590 -0.655300
O13   O     O_R   0.944940 0.884220 0.268420 -0.634936
C1    C     C_R   0.137097 0.139995 0.779722 0.823850
C2    C     C_R   0.859572 0.858382 0.220041 0.830936
C3    C     C_R   0.859743 0.139816 0.498370 0.816798
C4    C     C_R   0.142440 0.862533 0.502602 0.816478
C5    C     C_R   0.138211 0.139626 0.497970 0.837970
C6    C     C_R   0.859748 0.858907 0.498452 0.894704
H1    H     H_    0.710337 0.142416 0.563084 0.141717
C7    C     C_R   0.784424 0.079110 0.634444 -0.220636
H2    H     H_    0.833486 0.141807 0.706615 0.127502
C8    C     C_R   0.790991 0.998099 0.622727 0.213510
C9    C     C_R   0.726623 0.916753 0.527565 0.136950
C10   C     C_R   0.658497 0.918357 0.445718 -0.056086
H3    H     H_    0.610440 0.856559 0.371518 0.145097
C11   C     C_R   0.652470 0.999455 0.458865 -0.097169
H4    H     H_    0.599687 0.000107 0.395529 0.135380
C12   C     C_R   0.715000 0.079682 0.553242 -0.139783
C13   C     C_R   0.681505 0.776316 0.510975 -0.063125
C14   C     C_R   0.698573 0.698647 0.504126 -0.140305
C15   C     C_R   0.771377 0.676644 0.500926 -0.054748
C16   C     C_R   0.818151 0.723479 0.487326 -0.076097
C17   C     C_R   0.802401 0.801826 0.496127 -0.094170
C18   C     C_R   0.735291 0.829262 0.509067 -0.039606
C19   C     C_R   0.875576 0.633933 0.616016 0.174516
C20   C     C_R   0.918189 0.572091 0.627005 -0.081660
C21   C     C_R   0.884496 0.482772 0.539552 -0.081342
C22   C     C_R   0.805844 0.455727 0.443072 -0.013103
C23   C     C_R   0.768191 0.519617 0.432883 -0.202834
H5    H     H_    0.711053 0.500882 0.358536 0.198851
C24   C     C_R   0.803251 0.608089 0.517452 0.014109
C25   C     C_R   0.711561 0.752141 0.052023 0.097429
C26   C     C_R   0.804045 0.793046 0.109196 -0.155856
C27   C     C_R   0.845284 0.765035 0.057602 -0.173879
H6    H     H_    0.917729 0.788174 0.101171 0.216547
C28   C     C_R   0.794373 0.708854 0.949888 -0.052923
C29   C     C_R   0.698997 0.684588 0.892179 -0.200929
C30   C     C_R   0.660890 0.704696 0.946532 0.083582
C31   C     C_3   0.582055 0.734211 0.937908 -0.096984
C32   C     C_3   0.637179 0.784768 0.056309 -0.086255
H7    H     H_    0.655204 0.858524 0.100473 0.160147
C33   C     C_R   0.219612 0.772400 0.558728 -0.037643
C34   C     C_R   0.209736 0.818540 0.514880 -0.136068
C35   C     C_R   0.268960 0.824352 0.488207 -0.047494
C36   C     C_R   0.321005 0.766556 0.484426 -0.097155
C37   C     C_R   0.315629 0.707378 0.511483 -0.152745
C38   C     C_R   0.270798 0.718047 0.556906 -0.038357
C39   C     C_3   0.211024 0.653716 0.548589 0.119571
C40   C     C_3   0.154112 0.716325 0.551598 -0.292141
H8    H     H_    0.085973 0.686811 0.478829 0.198034
C41   C     C_R   0.240220 0.164957 0.947862 0.004737
C42   C     C_R   0.187734 0.196553 0.891157 -0.146769
C43   C     C_R   0.189473 0.286232 0.947305 -0.045200
C44   C     C_R   0.248562 0.340087 0.055915 -0.180753
H9    H     H_    0.250219 0.408102 0.098960 0.213598
C45   C     C_R   0.302063 0.305416 0.109341 -0.093500
C46   C     C_R   0.294662 0.216919 0.051788 0.071304
C47   C     C_3   0.329075 0.145193 0.060099 0.027967
C48   C     C_3   0.264990 0.083992 0.938934 -0.181415
C49   C     C_R   0.242653 0.281911 0.577322 0.024959
C50   C     C_R   0.192395 0.193361 0.494092 -0.149992
C51   C     C_R   0.197680 0.156416 0.409011 0.137894
C52   C     C_R   0.249874 0.211087 0.407469 -0.081436
C53   C     C_R   0.299598 0.301653 0.493028 -0.159956
C54   C     C_R   0.295681 0.335017 0.577186 0.072524
C55   C     C_3   0.270222 0.414179 0.625437 -0.431735
C56   C     C_3   0.210934 0.355235 0.624293 0.015532
H10   H     H_    0.328085 0.469284 0.703650 0.243256
H11   H     H_    0.231634 0.434583 0.573287 0.203258
H12   H     H_    0.137710 0.340793 0.572105 0.193775
C57   C     C_R   0.838486 0.284204 0.575485 0.026772
C58   C     C_R   0.804172 0.195909 0.491438 -0.073120
C59   C     C_R   0.717519 0.165257 0.401266 0.174485
C60   C     C_R   0.663554 0.219724 0.404684 -0.279034
H13   H     H_    0.596135 0.195380 0.336900 0.177171
C61   C     C_R   0.696487 0.304866 0.495256 -0.102002
C62   C     C_R   0.786260 0.338172 0.577341 -0.035687
C63   C     C_3   0.828312 0.382253 0.689497 -0.183792
C64   C     C_3   0.886463 0.322632 0.686992 -0.426213
H14   H     H_    0.780638 0.368662 0.705221 0.146885
H15   H     H_    0.958968 0.358143 0.731066 0.236490
H16   H     H_    0.871981 0.273363 0.700294 0.165191
Zn5   Zn    Zn3+2 0.630090 0.543330 0.586660 0.951876
Zn6   Zn    Zn3+2 0.456570 0.543320 0.586650 0.986211
Zn7   Zn    Zn3+2 0.456580 0.369830 0.413160 1.006783
Zn8   Zn    Zn3+2 0.456590 0.543350 0.413170 1.015332
O14   O     O_3   0.499960 0.499960 0.499910 -0.493869
O15   O     O_R   0.384170 0.615770 0.439200 -0.640424
O16   O     O_R   0.676480 0.444870 0.560630 -0.665145
O17   O     O_R   0.555020 0.615730 0.731490 -0.614901
O18   O     O_R   0.384160 0.323450 0.268320 -0.609971
O19   O     O_R   0.384130 0.444860 0.560610 -0.614648
O20   O     O_R   0.555060 0.615780 0.439210 -0.626623
O21   O     O_R   0.384140 0.323430 0.439180 -0.667983
O22   O     O_R   0.676490 0.615760 0.560640 -0.645428
O23   O     O_R   0.676470 0.615740 0.731500 -0.681838
O24   O     O_R   0.384180 0.444900 0.268330 -0.639057
O25   O     O_R   0.384150 0.615750 0.560620 -0.656117
O26   O     O_R   0.555030 0.323430 0.439190 -0.631887
C65   C     C_R   0.361445 0.641531 0.501323 0.783890
C66   C     C_R   0.640166 0.360068 0.500098 0.829182
C67   C     C_R   0.640821 0.638327 0.780287 0.794385
C68   C     C_R   0.360131 0.360203 0.220282 0.877694
C69   C     C_R   0.357806 0.359649 0.497318 0.835712
C70   C     C_R   0.640595 0.640322 0.500631 0.789473
C71   C     C_2   0.931099 0.418499 0.550024 0.419345
H17   H     H_    0.959801 0.419653 0.618607 0.106060
O27   O     O_2   0.940956 0.365939 0.483987 -0.598358
C72   C     C_2   0.759787 0.360622 0.353041 0.467377
H18   H     H_    0.776325 0.307725 0.362312 0.098542
O28   O     O_2   0.700972 0.339795 0.267040 -0.539014
C73   C     C_2   0.844066 0.678645 0.902780 0.491189
H19   H     H_    0.816948 0.612493 0.833449 0.090132
O29   O     O_2   0.917742 0.726700 0.943211 -0.560996
C74   C     C_2   0.566696 0.796341 0.904601 0.300827
H20   H     H_    0.599861 0.804204 0.872758 0.083718
O30   O     O_2   0.516444 0.838489 0.913090 -0.587769
C75   C     C_2   0.497191 0.658025 0.875380 0.495683
H21   H     H_    0.437421 0.672480 0.868514 0.070551
O31   O     O_2   0.494796 0.580486 0.833112 -0.569431
N1    N     N_2   0.598078 0.746216 0.086675 -0.290830
H22   H     H_    0.536040 0.752504 0.067331 0.227515
C76   C     C_3   0.654193 0.771128 0.190938 -0.616754
H23   H     H_    0.615723 0.737915 0.203635 0.212639
H24   H     H_    0.675537 0.844429 0.246585 0.250988
H25   H     H_    0.713004 0.748311 0.203997 0.262642
C77   C     C_2   0.280889 0.895087 0.473323 0.450716
H26   H     H_    0.275494 0.958979 0.517881 0.047290
O32   O     O_2   0.294787 0.882837 0.410560 -0.520263
C78   C     C_2   0.385688 0.772301 0.460637 0.608991
H27   H     H_    0.456133 0.792238 0.519014 0.021227
O33   O     O_2   0.360315 0.749542 0.374775 -0.456404
N2    N     N_2   0.164936 0.566856 0.449456 -0.314161
H28   H     H_    0.146367 0.569847 0.388161 0.235307
C79   C     C_3   0.093998 0.505010 0.425445 -0.654187
H29   H     H_    0.063002 0.442945 0.347297 0.226229
H30   H     H_    0.041309 0.534444 0.426957 0.245214
H31   H     H_    0.121067 0.486389 0.480506 0.271035
C80   C     C_2   0.261272 0.648081 0.640008 0.408332
H32   H     H_    0.333401 0.663439 0.682825 0.099921
O34   O     O_2   0.221353 0.624988 0.665758 -0.571838
C81   C     C_2   0.155828 0.767594 0.646940 0.608253
H33   H     H_    0.218988 0.803640 0.722792 0.086147
O35   O     O_2   0.086094 0.770080 0.639568 -0.566962
C82   C     C_2   0.126950 0.323631 0.896612 0.444687
H34   H     H_    0.063755 0.280186 0.821757 0.059562
O36   O     O_2   0.144439 0.404134 0.939298 -0.537995
C83   C     C_2   0.428943 0.166968 0.107987 0.485502
H35   H     H_    0.457432 0.113587 0.096184 0.037239
O37   O     O_2   0.478195 0.243441 0.160245 -0.541908
N3    N     N_2   0.303134 0.122378 0.111299 -0.281997
H36   H     H_    0.237915 0.116575 0.088488 0.247008
C84   C     C_3   0.333886 0.055713 0.127810 -0.742025
H37   H     H_    0.316514 0.994363 0.055007 0.266859
H38   H     H_    0.301932 0.038253 0.157243 0.241245
H39   H     H_    0.407549 0.082444 0.186276 0.222226
C85   C     C_2   0.311514 0.052544 0.885596 0.475904
H40   H     H_    0.341767 0.001811 0.886578 0.070096
O38   O     O_2   0.315832 0.083008 0.841581 -0.565109
N4    N     N_2   0.865307 0.998611 0.704114 -0.330148
H41   H     H_    0.922926 0.051361 0.748532 0.205924
C86   C     C_3   0.846545 0.988062 0.766403 -0.755981
H42   H     H_    0.907266 0.986209 0.825233 0.239961
H43   H     H_    0.791723 0.924697 0.718522 0.238787
H44   H     H_    0.827609 0.044922 0.806092 0.247867
C87   C     C_2   0.185069 0.009980 0.891524 0.428939
H45   H     H_    0.124329 0.023259 0.882700 0.067674
O39   O     O_2   0.188489 0.935130 0.865086 -0.584275
N5    N     N_2   0.146708 0.065725 0.322815 -0.294697
H46   H     H_    0.106008 0.056792 0.252879 0.259348
C88   C     C_3   0.197354 0.004914 0.320294 -0.598166
H47   H     H_    0.244324 0.016758 0.303090 0.202161
H48   H     H_    0.150607 0.935203 0.259482 0.258114
H49   H     H_    0.235978 0.013466 0.395351 0.255553
C89   C     C_2   0.247395 0.173420 0.313560 0.431987
H50   H     H_    0.304433 0.157134 0.313778 0.090884
O40   O     O_2   0.181577 0.160947 0.235796 -0.588216
N6    N     N_2   0.240977 0.382054 0.726317 -0.285376
H51   H     H_    0.308383 0.394457 0.775646 0.249102
C90   C     C_3   0.207333 0.448151 0.773477 -0.582876
H52   H     H_    0.229068 0.460025 0.847838 0.250679
H53   H     H_    0.132889 0.424172 0.722855 0.254495
H54   H     H_    0.233760 0.511936 0.788032 0.255686
N7    N     N_2   0.684196 0.080671 0.307722 -0.290945
H55   H     H_    0.615471 0.051612 0.261729 0.218737
C91   C     C_3   0.717062 0.080753 0.250907 -0.709677
H56   H     H_    0.689857 0.012745 0.180156 0.231782
H57   H     H_    0.791381 0.101330 0.297999 0.233147
H58   H     H_    0.695156 0.126932 0.228188 0.245080
C92   C     C_2   0.880253 0.479272 0.753152 0.424829
H59   H     H_    0.860546 0.516954 0.720083 0.058865
O41   O     O_2   0.942728 0.517192 0.843494 -0.513895
C93   C     C_2   0.615521 0.806837 0.533713 0.435882
H60   H     H_    0.601549 0.788239 0.573988 0.011304
O42   O     O_2   0.575911 0.852170 0.507889 -0.554287
C94   C     C_2   0.881977 0.688486 0.462095 0.465624
H61   H     H_    0.914852 0.647607 0.485842 0.107691
O43   O     O_2   0.895756 0.701641 0.410587 -0.588366
N8    N     N_2   0.904409 0.721585 0.704642 -0.342185
H62   H     H_    0.853656 0.747434 0.701419 0.245071
C95   C     C_3   0.981776 0.785514 0.741365 -0.647688
H63   H     H_    0.964433 0.803420 0.686695 0.260909
H64   H     H_    0.038010 0.758727 0.752159 0.286064
H65   H     H_    0.004449 0.847158 0.816770 0.239971
C96   C     C_2   0.998368 0.603467 0.730880 0.398529
H66   H     H_    0.002807 0.653930 0.799104 0.143432
O44   O     O_2   0.061861 0.576893 0.741901 -0.552463

loop_
_geom_bond_atom_site_label_1
_geom_bond_atom_site_label_2
_geom_bond_distance
_ccdc_geom_bond_type
C58   C59   1.417047 A    
C49   C50   1.391278 A    
C19   C20   1.415201 A    
C89   H50   1.084817 S    
Zn5   O22   1.941674 S    
C93   O42   1.219762 D    
C20   C21   1.424148 A    
O20   C70   1.283077 A    
C74   O30   1.220963 D    
C83   H35   1.085361 S    
C52   C89   1.482074 S    
C95   H65   1.110182 S    
C5    C50   1.452495 S    
C32   H7    1.111158 S    
C63   C92   1.499971 S    
C55   H11   1.111036 S    
C96   O44   1.220648 D    
C55   C56   1.520053 S    
C33   C38   1.366872 A    
N4    C86   1.445583 S    
C48   C87   1.513016 S    
C87   H45   1.086339 S    
C61   C66   1.447599 S    
Zn8   O24   1.941796 S    
C19   C24   1.411778 A    
O21   C69   1.276276 A    
O4    C3    1.278512 A    
Zn1   O1    1.941935 S    
C59   N7    1.422628 S    
C25   C32   1.509622 S    
C9    C10   1.405905 A    
C83   O37   1.221715 D    
C16   C17   1.409970 A    
C95   H64   1.109487 S    
C59   C60   1.405290 A    
C17   C18   1.412264 A    
N8    C95   1.446910 S    
C32   N1    1.458498 S    
C41   C48   1.505742 S    
C3    C58   1.451350 S    
O8    C5    1.274569 A    
C51   N5    1.427358 S    
C28   C29   1.428622 A    
N5    H46   1.030683 S    
O9    C6    1.271354 A    
C13   C14   1.414963 A    
C47   C48   1.575050 S    
C44   C45   1.407681 A    
C16   C94   1.497202 S    
C56   N6    1.452187 S    
Zn3   O8    1.939687 S    
C57   C64   1.490789 S    
C55   H10   1.110312 S    
O16   C66   1.277693 A    
C84   H37   1.109221 S    
N7    H55   1.031900 S    
C81   H33   1.085973 S    
C41   C46   1.350621 A    
C94   H61   1.084263 S    
C35   C77   1.491204 S    
C85   O38   1.221454 D    
C43   C44   1.413145 A    
C86   H43   1.108239 S    
C79   H31   1.108040 S    
C53   C69   1.453708 S    
C40   C81   1.504224 S    
C37   C65   1.458199 S    
C95   H63   1.108419 S    
C11   C12   1.395360 A    
C15   C24   1.488016 S    
C60   C61   1.405339 A    
Zn2   O12   1.941074 S    
C49   C54   1.379650 A    
C80   O34   1.221045 D    
N6    H51   1.032559 S    
C25   C30   1.374688 A    
C90   H54   1.111297 S    
C29   C67   1.464609 S    
Zn8   O20   1.938090 S    
C84   H38   1.110461 S    
C41   C42   1.392506 A    
Zn7   O21   1.941682 S    
C81   O35   1.218267 D    
O18   C68   1.277239 A    
N3    C84   1.449239 S    
C91   H57   1.110947 S    
O17   C67   1.287723 A    
C14   C70   1.465031 S    
C37   C38   1.393073 A    
C31   C74   1.508692 S    
O19   C69   1.285860 A    
C96   H66   1.085271 S    
C78   O33   1.220636 D    
C23   C24   1.394937 A    
C78   H27   1.079909 S    
C84   H39   1.110205 S    
O2    C1    1.281556 A    
C72   H18   1.083652 S    
C43   C82   1.486867 S    
C13   C18   1.410781 A    
Zn8   O14   1.949444 S    
O10   C3    1.276734 A    
Zn7   O26   1.932748 S    
C50   C51   1.419390 A    
C46   C47   1.500567 S    
N1    C76   1.444554 S    
C87   O39   1.220536 D    
O22   C70   1.272184 A    
C61   C62   1.392797 A    
N8    H62   1.031151 S    
C47   N3    1.461504 S    
C90   H52   1.110362 S    
C64   H16   1.111384 S    
C27   C28   1.401527 A    
C1    C42   1.451501 S    
C51   C52   1.408008 A    
C31   C75   1.515823 S    
O6    C5    1.287288 A    
C42   C43   1.430370 A    
C36   C37   1.423479 A    
C14   C15   1.413691 A    
C82   O36   1.221359 D    
O15   C65   1.282228 A    
C22   C23   1.403431 A    
C73   O29   1.221501 D    
C10   H3    1.083218 S    
Zn3   O5    1.934144 S    
C25   C26   1.400956 A    
O11   C4    1.281394 A    
C10   C11   1.396808 A    
C86   H44   1.111452 S    
C38   C39   1.507839 S    
N6    C90   1.445323 S    
C71   H17   1.083839 S    
C63   C64   1.525354 S    
C29   C30   1.399759 A    
N2    H28   1.032695 S    
Zn4   O7    1.938090 S    
C64   H15   1.112617 S    
C93   H60   1.084442 S    
C80   H32   1.085029 S    
C76   H24   1.111145 S    
Zn4   O2    1.941752 S    
C26   C27   1.404088 A    
C94   O43   1.221110 D    
C86   H42   1.110551 S    
O3    C2    1.274837 A    
C75   H21   1.085370 S    
C91   H58   1.111891 S    
C79   H30   1.110716 S    
C53   C54   1.394695 A    
Zn2   O1    1.951060 S    
Zn1   O9    1.941925 S    
C21   C22   1.421500 A    
C88   H48   1.110213 S    
C73   H19   1.080013 S    
Zn2   O6    1.941681 S    
C39   N2    1.460616 S    
C20   C96   1.489689 S    
C85   H40   1.085265 S    
C57   C58   1.391452 A    
C33   C40   1.493022 S    
C72   O28   1.221350 D    
Zn7   O14   1.951060 S    
Zn8   O15   1.936959 S    
C92   H59   1.084391 S    
C31   C32   1.548624 S    
C15   C16   1.403776 A    
C89   O40   1.220497 D    
Zn5   O23   1.944648 S    
C45   C68   1.441813 S    
C19   N8    1.429525 S    
Zn1   O3    1.944651 S    
C48   C85   1.516416 S    
C11   H4    1.082422 S    
Zn2   O4    1.932792 S    
C23   H5    1.083896 S    
C39   C80   1.516911 S    
N2    C79   1.449303 S    
C54   C55   1.497431 S    
Zn3   O1    1.955307 S    
C76   H25   1.109517 S    
Zn6   O25   1.934142 S    
O26   C66   1.277578 A    
C49   C56   1.495499 S    
C30   C31   1.501776 S    
C7    C8    1.405399 A    
C56   H12   1.114181 S    
Zn6   O19   1.939539 S    
Zn7   O18   1.941030 S    
H1    C12   1.082463 S    
C9    C18   1.491714 S    
C6    C17   1.455533 S    
O23   C67   1.274185 A    
C13   C93   1.491027 S    
C82   H34   1.083821 S    
Zn4   O11   1.937209 S    
C74   H20   1.085258 S    
C34   C35   1.421359 A    
C28   C73   1.483880 S    
C4    C34   1.455543 S    
C47   C83   1.520228 S    
N4    H41   1.032005 S    
Zn5   O14   1.941933 S    
C7    H2    1.082698 S    
O24   C68   1.276687 A    
C52   C53   1.421495 A    
O5    C4    1.281496 A    
C33   C34   1.390913 A    
C63   H14   1.112319 S    
N3    H36   1.032379 S    
C88   H49   1.110234 S    
Zn5   O16   1.937390 S    
Zn4   O1    1.949446 S    
C40   H8    1.113374 S    
O7    C6    1.277832 A    
C62   C63   1.497618 S    
O13   C2    1.281617 A    
N5    C88   1.447110 S    
Zn3   O13   1.937877 S    
C77   O32   1.219585 D    
C8    N4    1.423978 S    
C44   H9    1.083928 S    
Zn6   O17   1.937880 S    
C71   O27   1.220905 D    
C76   H23   1.110582 S    
C39   C40   1.548581 S    
C35   C36   1.423480 A    
Zn6   O14   1.955309 S    
C45   C46   1.384306 A    
C91   H56   1.108245 S    
O12   C1    1.275928 A    
C27   H6    1.084072 S    
C36   C78   1.475723 S    
C7    C12   1.396691 A    
C8    C9    1.415517 A    
N7    C91   1.446759 S    
C75   O31   1.221500 D    
C77   H26   1.085351 S    
N1    H22   1.031708 S    
C57   C62   1.375229 A    
Zn1   O10   1.937391 S    
C90   H53   1.111245 S    
C88   H47   1.110296 S    
C60   H13   1.083926 S    
C92   O41   1.220618 D    
C22   C72   1.488157 S    
C21   C71   1.487332 S    
C2    C26   1.451666 S    
C79   H29   1.110495 S    
O25   C65   1.282403 A    
