data_mof_unit_25128.cif
_audit_creation_date              2012-10-26T20:50:52-0400
_audit_creation_method            fapswitch 2.2
_symmetry_space_group_name_H-M    P1
_symmetry_Int_Tables_number       1
_space_group_crystal_system       triclinic
_cell_length_a                    11.01903
_cell_length_b                    10.845161
_cell_length_c                    9.604659
_cell_angle_alpha                 90.517776
_cell_angle_beta                  102.091371
_cell_angle_gamma                 91.536434
_cell_volume                      1121.79358268

loop_
_atom_site_label
_atom_site_type_symbol
_atom_type_description
_atom_site_fract_x
_atom_site_fract_y
_atom_site_fract_z
_atom_type_partial_charge
C1    C     C_R   0.497185 0.262600 0.498736 0.563792
C2    C     C_R   0.402606 0.449833 0.049867 0.377522
C3    C     C_R   0.402513 0.449987 0.902451 0.401535
C4    C     C_R   0.262885 0.497147 0.442549 0.550844
C5    C     C_R   0.606016 0.528204 0.952145 0.047160
C6    C     C_3   0.686863 0.640938 0.960996 -0.154486
C7    C     C_3   0.683409 0.647460 0.118726 0.441197
C8    C     C_R   0.496167 0.737580 0.499529 0.547841
C9    C     C_R   0.736846 0.496294 0.557104 0.585905
C10   C     C_2   0.127867 0.484596 0.410954 -0.118629
C11   C     C_2   0.067172 0.464730 0.516139 -0.154208
C12   C     C_R   0.484061 0.129441 0.494400 -0.014098
C13   C     C_2   0.871908 0.491414 0.586608 -0.042850
C14   C     C_2   0.931629 0.449129 0.488172 0.224869
C15   C     C_R   0.473449 0.064866 0.616281 0.082468
C16   C     C_R   0.473875 0.062890 0.366013 -0.139933
C17   C     C_R   0.472285 0.934078 0.366678 -0.117173
C18   C     C_R   0.480875 0.870512 0.495563 -0.027670
C19   C     C_R   0.468738 0.938002 0.616370 0.009054
C20   C     C_3   0.535785 0.934065 0.768759 0.143066
C21   C     C_3   0.542843 0.074915 0.767635 0.322724
C22   C     C_R   0.605750 0.529926 0.098822 0.180711
Cu1   Cu    Cu3+1 0.499990 0.499980 0.640670 0.984511
Cu2   Cu    Cu3+1 0.500010 0.500020 0.359330 1.033815
H1    H     H_    0.779633 0.620046 0.939815 0.158647
H2    H     H_    0.339449 0.340323 0.173740 0.349320
H3    H     H_    0.338522 0.341568 0.744986 0.376966
H4    H     H_    0.796263 0.659875 0.303165 0.369499
H5    H     H_    0.538246 0.751772 0.095853 0.319339
H6    H     H_    0.441424 0.800444 0.831893 0.331159
H7    H     H_    0.520909 0.127527 0.952724 0.352344
H8    H     H_    0.639698 0.716256 0.897444 0.116859
H9    H     H_    0.116695 0.466294 0.626496 0.191055
H10   H     H_    0.923547 0.527448 0.688533 0.071777
H11   H     H_    0.078439 0.489010 0.300735 0.160692
H12   H     H_    0.473374 0.109584 0.266681 0.160805
H13   H     H_    0.470124 0.885345 0.267570 0.190913
H14   H     H_    0.627541 0.890572 0.784162 0.108002
H15   H     H_    0.924878 0.349506 0.316926 0.339362
I1    I     I_    0.729805 0.150248 0.797905 -0.309917
N1    N     N_R   0.500780 0.500930 0.148120 -0.300518
N2    N     N_R   0.500790 0.500890 0.852210 -0.292409
O1    O     O_R   0.500000 0.319640 0.618810 -0.484117
O2    O     O_3   0.304350 0.390483 0.090571 -0.627849
O3    O     O_3   0.304139 0.390579 0.813745 -0.640294
O4    O     O_3   0.801424 0.633336 0.205574 -0.637449
O5    O     O_3   0.623072 0.751655 0.156612 -0.670037
O6    O     O_3   0.458608 0.888977 0.857137 -0.660332
O7    O     O_3   0.471421 0.130905 0.853975 -0.620320
O8    O     O_R   0.500010 0.319680 0.381230 -0.527967
O9    O     O_R   0.320680 0.500000 0.575130 -0.495562
O10   O     O_R   0.320690 0.500040 0.337550 -0.481222
O11   O     O_R   0.499990 0.680320 0.618770 -0.528944
O12   O     O_R   0.500000 0.680360 0.381190 -0.477234
O13   O     O_R   0.679310 0.499960 0.662450 -0.504181
O14   O     O_R   0.679320 0.500000 0.424870 -0.433337
O15   O     O_3   0.865986 0.392696 0.364036 -0.633013

loop_
_geom_bond_atom_site_label_1
_geom_bond_atom_site_label_2
_ccdc_geom_bond_type
C8    O11   A    
Cu2   O10   S    
C6    H8    S    
C5    N2    A    
C3    N2    A    
Cu1   O13   S    
C6    C7    S    
C9    O13   A    
Cu2   O14   S    
C7    C22   S    
C20   H14   S    
C1    O8    A    
Cu1   O9    S    
C19   C20   S    
C12   C15   A    
C11   H9    S    
Cu1   Cu2   S    
H3    O3    S    
C21   O7    S    
C2    C3    A    
H2    O2    S    
C13   H10   S    
C9    O14   A    
C17   H13   S    
C13   C14   D    
C16   H12   S    
C15   C19   A    
Cu2   N1    S    
C1    C12   S    
H4    O4    S    
C20   O6    S    
Cu1   N2    S    
H7    O7    S    
H6    O6    S    
H5    O5    S    
Cu1   O11   S    
C4    O10   A    
Cu2   O8    S    
C5    C6    S    
C11   C14   S    
C7    O5    S    
C22   N1    A    
C10   C11   D    
C4    O9    A    
Cu2   O12   S    
H15   O15   S    
C7    O4    S    
C15   C21   S    
Cu1   O1    S    
C20   C21   S    
C10   H11   S    
C1    O1    A    
C17   C18   A    
C18   C19   A    
C6    H1    S    
C8    O12   A    
C14   O15   S    
C9    C13   S    
C2    N1    A    
C4    C10   S    
C3    O3    S    
C8    C18   S    
C5    C22   A    
C12   C16   A    
C2    O2    S    
C16   C17   A    
C21   I1    S    
