data_mof_unit_12673.cif
_audit_creation_date              2013-03-05T16:19:47-0500
_audit_creation_method            fapswitch 2.2
_symmetry_space_group_name_H-M    P1
_symmetry_Int_Tables_number       1
_space_group_crystal_system       triclinic
_cell_length_a                    8.329714
_cell_length_b                    19.010379
_cell_length_c                    27.007034
_cell_angle_alpha                 101.619499
_cell_angle_beta                  91.998465
_cell_angle_gamma                 87.610668
_cell_volume                      4183.7764778

loop_
_atom_site_label
_atom_site_type_symbol
_atom_site_description
_atom_site_fract_x
_atom_site_fract_y
_atom_site_fract_z
_atom_type_partial_charge
P1    P     P_3+3 0.929380 0.335110 0.452880 0.511396
O1    O     O_2   0.106080 0.324280 0.466820 -0.344151
O2    O     O_3   0.859130 0.413620 0.470620 -0.395715
O3    O     O_3   0.376230 0.370290 0.556910 -0.393899
O4    O     O_2   0.232604 0.245370 0.525289 -0.416641
O5    O     O_3   0.902280 0.307626 0.386726 -0.549632
O6    O     O_3   0.400350 0.254674 0.610052 -0.497980
H1    H     H_    0.263635 0.335756 0.652018 0.099682
C1    C     C_3   0.452850 0.300976 0.698425 -0.802867
H2    H     H_    0.413483 0.345051 0.729643 0.213941
H3    H     H_    0.407384 0.249666 0.704874 0.258230
P2    P     P_3+3 0.398530 0.559060 0.613740 0.483092
P3    P     P_3+3 0.965055 0.422661 0.649642 0.484577
O7    O     O_2   0.227190 0.537650 0.620070 -0.379248
O8    O     O_3   0.971110 0.406970 0.583250 -0.369127
O9    O     O_2   0.126123 0.455251 0.670391 -0.432782
O10   O     O_3   0.403622 0.651153 0.638136 -0.533748
O11   O     O_3   0.967394 0.342832 0.673740 -0.558593
C2    C     C_3   0.963394 0.281039 0.634851 0.783508
H4    H     H_    0.035906 0.286524 0.602185 0.048860
C3    C     C_3   0.035534 0.216828 0.655423 -0.861337
H5    H     H_    0.038303 0.167875 0.624936 0.244048
H6    H     H_    0.159453 0.227020 0.669838 0.230360
C4    C     C_3   0.817100 0.633467 0.632948 0.371378
H7    H     H_    0.698545 0.620355 0.614614 0.133317
H8    H     H_    0.898244 0.584912 0.627298 0.080596
C5    C     C_3   0.794651 0.662022 0.689281 -0.820917
H9    H     H_    0.739786 0.717217 0.695573 0.328971
H10   H     H_    0.713860 0.627833 0.705057 0.216516
H11   H     H_    0.912725 0.663446 0.709788 0.222975
Ba1   Ba    Ba6+2 0.160810 0.465630 0.521640 1.577287
C6    C     C_3   0.963793 0.350902 0.356331 0.645872
H12   H     H_    0.988849 0.405703 0.377865 0.066628
C7    C     C_3   0.842906 0.353667 0.312460 -0.919404
H13   H     H_    0.818747 0.298562 0.291073 0.260197
H14   H     H_    0.888645 0.384556 0.285536 0.208254
H15   H     H_    0.727041 0.377458 0.326064 0.286437
C8    C     C_3   0.284621 0.690252 0.616674 0.375715
H16   H     H_    0.180502 0.657884 0.600853 0.103127
C9    C     C_3   0.222864 0.752081 0.658020 0.003029
H17   H     H_    0.146490 0.730644 0.684207 0.113668
H18   H     H_    0.147223 0.789218 0.639815 0.140292
P4    P     P_3+3 0.880940 0.664900 0.547160 0.483390
O12   O     O_2   0.704230 0.675760 0.533200 -0.350684
O13   O     O_3   0.951180 0.586390 0.529420 -0.401110
O14   O     O_3   0.434080 0.629720 0.443130 -0.362077
O15   O     O_3   0.886398 0.686802 0.613182 -0.559979
P5    P     P_3+3 0.842896 0.578327 0.350638 0.477681
O16   O     O_3   0.351080 0.462080 0.440130 -0.383460
O17   O     O_3   0.839200 0.593040 0.416790 -0.388078
O18   O     O_2   0.674099 0.553181 0.330843 -0.379930
O19   O     O_3   0.852422 0.660848 0.331464 -0.512769
Ba2   Ba    Ba6+2 0.649380 0.534380 0.478400 1.575025
P6    P     P_3+3 0.391430 0.276822 0.549787 0.505603
C10   C     C_3   0.389881 0.317217 0.648148 0.462794
H19   H     H_    0.459944 0.361828 0.640624 0.129744
H20   H     H_    0.586130 0.297081 0.699066 0.302907
O20   O     O_3   0.459240 0.537930 0.559910 -0.388228
C11   C     C_3   0.503003 0.314029 0.393443 0.364932
H21   H     H_    0.610117 0.342707 0.410851 0.116170
H22   H     H_    0.413256 0.314899 0.423067 0.120210
C12   C     C_3   0.553019 0.236415 0.370960 -0.817807
H23   H     H_    0.654739 0.234829 0.345304 0.271814
H24   H     H_    0.589917 0.207104 0.401285 0.205829
H25   H     H_    0.451584 0.208523 0.348635 0.283441
P7    P     P_3+3 0.405824 0.437775 0.376487 0.433627
O21   O     O_2   0.583120 0.462390 0.379940 -0.360979
O22   O     O_3   0.436179 0.345549 0.354496 -0.575388
H26   H     H_    0.963685 0.206976 0.687103 0.280410
C13   C     C_3   0.869102 0.715905 0.374335 0.488048
H27   H     H_    0.769405 0.716699 0.400757 0.166856
H28   H     H_    0.985839 0.708652 0.393825 0.010319
C14   C     C_3   0.864974 0.788047 0.358088 -0.963878
H29   H     H_    0.879577 0.831933 0.391744 0.222136
H30   H     H_    0.963761 0.789637 0.331809 0.261709
H31   H     H_    0.748003 0.796693 0.338774 0.281715
P8    P     P_3+3 0.409595 0.721484 0.445796 0.428029
C15   C     C_3   0.343308 0.704284 0.350907 0.394011
H32   H     H_    0.226354 0.734576 0.356989 0.051173
O23   O     O_2   0.544413 0.757354 0.481902 -0.383418
O24   O     O_3   0.458596 0.736666 0.386508 -0.526913
H33   H     H_    0.328233 0.647052 0.352993 0.101445
H34   H     H_    0.306839 0.681630 0.269672 0.252140
C16   C     C_3   0.398180 0.706152 0.298123 -0.883424
H35   H     H_    0.514237 0.675346 0.290803 0.283286
H36   H     H_    0.413955 0.762612 0.294387 0.250508
C17   C     C_R   0.988532 0.044663 0.474456 -0.015200
C18   C     C_R   0.070092 0.089893 0.449578 -0.302322
C19   C     C_R   0.197760 0.946778 0.455976 -0.211141
C20   C     C_R   0.046941 0.973188 0.475468 0.135885
C21   C     C_R   0.249327 0.876228 0.453967 -0.154699
C22   C     C_R   0.156725 0.828663 0.473069 0.050618
C23   C     C_R   0.011979 0.854670 0.497666 -0.000283
C24   C     C_R   0.955240 0.927088 0.497947 0.021560
C25   C     C_R   0.207889 0.756293 0.469242 0.130486
C26   C     C_R   0.110105 0.709287 0.487318 -0.501825
C27   C     C_R   0.979121 0.734493 0.517898 0.276029
C28   C     C_R   0.930944 0.810006 0.524616 -0.228001
C29   C     C_R   0.837850 0.069662 0.494635 0.059791
C30   C     C_R   0.779549 0.141748 0.493243 -0.021113
C31   C     C_R   0.874216 0.189699 0.472719 -0.224584
C32   C     C_R   0.012747 0.158780 0.446495 0.479712
H37   H     H_    0.146394 0.652994 0.481806 0.177241
H38   H     H_    0.364281 0.860026 0.437236 0.176509
C33   C     C_R   0.814858 0.845019 0.559360 0.287499
C34   C     C_R   0.745879 0.913190 0.555075 0.220900
C35   C     C_R   0.809589 0.953492 0.521589 -0.164792
C36   C     C_R   0.743594 0.022538 0.515291 0.115606
C37   C     C_R   0.582918 0.044765 0.526323 -0.130712
C38   C     C_R   0.624358 0.164833 0.511182 0.031126
C39   C     C_R   0.525922 0.114531 0.525464 -0.076942
C40   C     C_R   0.571724 0.237357 0.514324 0.309637
C41   C     C_R   0.672606 0.285703 0.499053 -0.445364
C42   C     C_R   0.822927 0.264602 0.478601 0.262038
H39   H     H_    0.402561 0.128176 0.535703 0.165149
H40   H     H_    0.632944 0.341504 0.503397 0.164529
H41   H     H_    0.281742 0.979242 0.442136 0.130591
H42   H     H_    0.174277 0.071183 0.427619 0.164275
H43   H     H_    0.496914 0.007981 0.534387 0.163993
C43   C     C_R   0.314490 0.442709 0.171440 0.525974
O25   O     O_2   0.354096 0.391627 0.190927 -0.587343
N1    N     N_R   0.228131 0.500709 0.198736 -0.164828
C44   C     C_R   0.178325 0.557419 0.176012 0.516651
C45   C     C_2   0.039569 0.514736 0.268314 -0.170311
C46   C     C_3   0.003385 0.512026 0.322686 0.157345
C47   C     C_1   0.287827 0.486632 0.335322 0.268112
C48   C     C_2   0.323581 0.488013 0.288190 -0.197434
C49   C     C_2   0.192202 0.502085 0.251411 0.122418
C50   C     C_R   0.305109 0.498606 0.097388 -0.066040
C51   C     C_R   0.355685 0.441429 0.120943 -0.058691
C52   C     C_R   0.446661 0.383952 0.093613 -0.081188
C53   C     C_R   0.214669 0.556690 0.125147 -0.053737
C54   C     C_2   0.155251 0.518852 0.355205 -0.454147
H44   H     H_    0.446998 0.479305 0.276202 0.179437
H45   H     H_    0.488569 0.339409 0.110788 0.171182
C55   C     C_2   0.655698 0.480030 0.638343 -0.395670
C56   C     C_R   0.475454 0.437437 0.967359 0.040356
C57   C     C_R   0.335322 0.555532 0.971936 0.040931
C58   C     C_R   0.425817 0.496177 0.944396 0.085481
C59   C     C_R   0.562728 0.379211 0.937858 -0.197598
C60   C     C_R   0.601877 0.379172 0.888227 -0.071076
C61   C     C_R   0.556058 0.437029 0.865415 -0.056486
C62   C     C_R   0.467575 0.495618 0.893308 -0.064460
C63   C     C_R   0.421588 0.553779 0.870181 -0.067013
C64   C     C_R   0.466065 0.553040 0.820005 0.534785
N2    N     N_R   0.552123 0.494882 0.792787 -0.166358
C65   C     C_R   0.597007 0.437194 0.815129 0.513878
C66   C     C_2   0.752802 0.482704 0.727281 -0.133854
C67   C     C_3   0.799585 0.487055 0.674383 0.162140
C68   C     C_1   0.518304 0.510656 0.655289 0.260878
C69   C     C_2   0.474643 0.510093 0.702113 -0.215167
C70   C     C_2   0.597603 0.494941 0.741120 0.099083
O26   O     O_2   0.672142 0.385636 0.791107 -0.583744
C71   C     C_R   0.436548 0.438598 0.018653 0.042835
C72   C     C_R   0.344998 0.497687 0.046086 0.084147
C73   C     C_R   0.293083 0.555904 0.022872 0.042510
C74   C     C_R   0.486770 0.382571 0.043878 -0.197271
H46   H     H_    0.846264 0.475030 0.754937 0.162639
H47   H     H_    0.669225 0.333095 0.867672 0.176560
H48   H     H_    0.602774 0.332000 0.951652 0.133097
H49   H     H_    0.558768 0.336435 0.026534 0.131130
O27   O     O_2   0.103734 0.609020 0.200209 -0.591767
C75   C     C_R   0.162701 0.613137 0.101638 -0.081358
H50   H     H_    0.940660 0.521841 0.242307 0.164158
H51   H     H_    0.091755 0.658332 0.121824 0.170342
C76   C     C_R   0.291013 0.612900 0.947349 -0.198671
C77   C     C_R   0.333333 0.611938 0.897815 -0.071912
O28   O     O_2   0.430368 0.604832 0.800863 -0.565344
C78   C     C_R   0.200211 0.612770 0.051776 -0.198410
H52   H     H_    0.224177 0.660258 0.965316 0.132348
H53   H     H_    0.296218 0.657546 0.881149 0.177500
H54   H     H_    0.352205 0.524472 0.713327 0.199562
H55   H     H_    0.153209 0.658333 0.037144 0.130415
H56   H     H_    0.155062 0.548697 0.394014 0.161988
H57   H     H_    0.670681 0.459685 0.598163 0.188999
C79   C     C_3   0.113748 0.312706 0.332575 -0.722068
H58   H     H_    0.085859 0.261371 0.306419 0.263759
H59   H     H_    0.173080 0.346909 0.310449 0.205022
H60   H     H_    0.191278 0.298788 0.363153 0.276222
C80   C     C_3   0.358921 0.718537 0.574524 -0.754442
H61   H     H_    0.367573 0.674462 0.540869 0.241719
H62   H     H_    0.290532 0.766130 0.566073 0.198793
H63   H     H_    0.481292 0.734690 0.585417 0.315608
N3    N     N_R   0.354597 0.791295 0.686889 0.295374
O29   O     O_R   0.434476 0.763905 0.721299 -0.316100
O30   O     O_R   0.376989 0.857614 0.683622 -0.250615
N4    N     N_R   0.082095 0.188449 0.408302 0.243749
O31   O     O_R   0.015978 0.173170 0.363258 -0.409594
O32   O     O_R   0.235516 0.199145 0.412115 -0.457669
N5    N     N_R   0.810928 0.827358 0.608446 0.257162
O33   O     O_R   0.910353 0.860053 0.643142 -0.357244
O34   O     O_R   0.678266 0.806171 0.623517 -0.317222
N6    N     N_R   0.635727 0.946863 0.593150 0.257542
O35   O     O_R   0.675406 0.004333 0.625583 -0.296577
O36   O     O_R   0.498015 0.918480 0.596639 -0.327556
N7    N     N_R   0.797577 0.268214 0.617893 0.205522
O37   O     O_R   0.728920 0.208722 0.620322 -0.383132
O38   O     O_R   0.713134 0.320016 0.604114 -0.484199

loop_
_geom_bond_atom_site_label_1
_geom_bond_atom_site_label_2
_geom_bond_distance
_ccdc_geom_bond_type
P7    O22   1.744868 S    
C10   H19   1.104565 S    
C30   C38   1.417433 A    
N5    O33   1.305541 A    
C44   C53   1.414190 A    
C5    H10   1.106727 S    
C7    H15   1.091964 S    
C14   H29   1.110096 S    
O5    C6    1.396343 S    
C25   C26   1.401575 A    
C4    C5    1.524138 S    
O6    C10   1.408791 S    
C21   H38   1.079554 S    
C17   C18   1.401976 A    
C64   N2    1.385596 Am   
N3    O29   1.303984 A    
C29   C36   1.421505 A    
C56   C58   1.423075 A    
C47   C48   1.322941 D    
C28   C33   1.420052 A    
P3    O11   1.766775 S    
C43   C51   1.413065 A    
Ba1   O20   2.944517 S    
C75   H51   1.084470 S    
C4    H8    1.109310 S    
C7    H13   1.112323 S    
C52   H45   1.084598 S    
C37   C39   1.394297 A    
C8    H16   1.107307 S    
N7    O37   1.302628 A    
C34   C35   1.425817 A    
C46   C54   1.509519 S    
C62   C63   1.409098 A    
C27   C28   1.451488 A    
C73   C78   1.417363 A    
P1    Ba1   3.407970 S    
C36   C37   1.410155 A    
P1    O1    1.522433 D    
C52   C74   1.390260 A    
Ba2   O21   2.782651 S    
C38   C39   1.404112 A    
C30   C31   1.433167 A    
C12   H24   1.108029 S    
C9    N3    1.463574 S    
P5    C46   1.868761 S    
C58   C62   1.432481 A    
O12   Ba2   2.841771 S    
P4    Ba2   3.408595 S    
P5    O18   1.546580 D    
C29   C30   1.441940 A    
C47   C54   1.317390 D    
C43   N1    1.385672 Am   
N6    O36   1.302104 A    
P2    O10   1.743701 S    
C35   C36   1.441260 A    
C48   H44   1.084668 S    
C13   H27   1.111296 S    
C1    C10   1.523108 S    
C19   C21   1.382210 A    
C54   H56   1.086706 S    
O7    Ba1   2.782320 S    
C7    H14   1.108450 S    
N6    O35   1.301747 A    
C80   H63   1.090254 S    
C45   C49   1.361404 D    
C41   H40   1.082372 S    
P2    O20   1.526331 S    
C79   H59   1.108161 S    
P7    O21   1.561769 D    
C55   H57   1.085830 S    
O13   Ba2   2.934754 S    
C11   H21   1.105608 S    
C3    H5    1.111474 S    
C5    H11   1.110389 S    
C9    H18   1.103752 S    
C31   C42   1.448514 A    
C14   H30   1.110486 S    
C1    H3    1.108619 S    
Ba1   O16   2.745350 S    
C65   O26   1.222404 D    
C33   N5    1.433334 S    
H1    C10   1.096764 S    
C40   C41   1.400788 A    
C60   H47   1.083988 S    
C20   C24   1.422154 A    
C34   N6    1.435521 S    
C17   C29   1.411340 A    
C79   H60   1.098006 S    
C39   H39   1.080899 S    
C56   C59   1.416526 A    
C24   C35   1.416227 A    
C11   H22   1.111108 S    
O17   Ba2   2.755017 S    
C8    C80   1.513761 S    
O16   P7    1.758667 S    
N2    C65   1.386768 Am   
C63   C77   1.399259 A    
P1    O5    1.766816 S    
C31   C32   1.418227 A    
P2    C68   1.833719 S    
O4    P6    1.546295 D    
C16   H35   1.111789 S    
C4    H7    1.104173 S    
C71   C74   1.417321 A    
N7    O38   1.294087 A    
C21   C22   1.397334 A    
C50   C72   1.432566 A    
C44   O27   1.222552 D    
C15   H32   1.110819 S    
O11   C2    1.409959 S    
C77   H53   1.083998 S    
P8    C25   1.863986 S    
C22   C25   1.407843 A    
Ba1   Ba2   4.585157 S    
C69   H54   1.082372 S    
P7    C47   1.824369 S    
C3    H26   1.111261 S    
O1    Ba1   2.841285 S    
P1    O2    1.567868 S    
C6    C7    1.535576 S    
P4    O12   1.522727 D    
C12   H23   1.108736 S    
C11   O22   1.400176 S    
C6    C79   1.513831 S    
C15   H33   1.113220 S    
C55   C68   1.315986 D    
H34   C16   1.109564 S    
P8    O24   1.747918 S    
C69   C70   1.504697 S    
C26   C27   1.400688 A    
C13   C14   1.520528 S    
P6    C40   1.858075 S    
C23   C24   1.435454 A    
C66   H46   1.085863 S    
C59   C60   1.390332 A    
O2    Ba1   2.933902 S    
P4    O13   1.567840 S    
C71   C72   1.423019 A    
N2    C70   1.458826 S    
C79   H58   1.111356 S    
C19   H41   1.075687 S    
C76   H52   1.075638 S    
C3    H6    1.101278 S    
P2    Ba1   3.381218 S    
C76   C77   1.391641 A    
C14   H31   1.110925 S    
C17   C20   1.429206 A    
P1    C42   1.892776 S    
C18   H42   1.075436 S    
C48   C49   1.504200 S    
C19   C20   1.412262 A    
C74   H49   1.076364 S    
C5    H9    1.110098 S    
C43   O25   1.223059 D    
C37   H43   1.078726 S    
C41   C42   1.396755 A    
C1    H2    1.110042 S    
P8    O23   1.548084 D    
C57   C73   1.430341 A    
C55   C67   1.510420 S    
C9    H17   1.113589 S    
C11   C12   1.524725 S    
N5    O34   1.297505 A    
C80   H62   1.107391 S    
C12   H25   1.109779 S    
O3    P6    1.748012 S    
C61   C62   1.408382 A    
C4    O15   1.390876 S    
C61   C65   1.412401 A    
C66   C70   1.355958 D    
P2    O7    1.524893 D    
C63   C64   1.414435 A    
O14   P8    1.735151 S    
C18   C32   1.392509 A    
Ba2   O20   2.744693 S    
O8    Ba1   2.754401 S    
C33   C34   1.420111 A    
C2    N7    1.454607 S    
C32   N4    1.420849 S    
C57   C76   1.416903 A    
C6    H12   1.110271 S    
C50   C53   1.409023 A    
C2    H4    1.110608 S    
P3    O8    1.759593 S    
C51   C52   1.399302 A    
C50   C51   1.409024 A    
C53   C75   1.399482 A    
P3    C67   1.854417 S    
N4    O31   1.300710 A    
C60   C61   1.398758 A    
C59   H48   1.075468 S    
C8    C9    1.534271 S    
O2    Ba2   2.804244 S    
C15   O24   1.404309 S    
O16   Ba2   2.943595 S    
O14   Ba2   2.777379 S    
P5    O17   1.752954 S    
C22   C23   1.418899 A    
N3    O30   1.302919 A    
C56   C71   1.429324 A    
C1    H20   1.109334 S    
C66   C67   1.512862 S    
N1    C49   1.458792 S    
C75   C78   1.391559 A    
C38   C40   1.416097 A    
N4    O32   1.299677 A    
O3    Ba1   2.777983 S    
O19   C13   1.402891 S    
C57   C58   1.422921 A    
C15   C16   1.519709 S    
P5    O19   1.753823 S    
O10   C8    1.393932 S    
P4    C27   1.897398 S    
Ba1   O13   2.803653 S    
P3    O9    1.541071 D    
C72   C73   1.423223 A    
C78   H55   1.076340 S    
C68   C69   1.330210 D    
C16   H36   1.111678 S    
C13   H28   1.106326 S    
O6    P6    1.759768 S    
C45   H50   1.085780 S    
N1    C44   1.386540 Am   
C26   H37   1.082013 S    
P4    O15   1.746881 S    
C23   C28   1.427349 A    
C80   H61   1.107293 S    
C45   C46   1.520664 S    
C2    C3    1.532516 S    
C64   O28   1.222702 D    
