data_mof_unit_19969.cif
_audit_creation_date              2013-03-05T16:10:28-0500
_audit_creation_method            fapswitch 2.2
_symmetry_space_group_name_H-M    P1
_symmetry_Int_Tables_number       1
_space_group_crystal_system       triclinic
_cell_length_a                    10.699498
_cell_length_b                    9.843233
_cell_length_c                    14.948163
_cell_angle_alpha                 89.689267
_cell_angle_beta                  90.012363
_cell_angle_gamma                 89.924329
_cell_volume                      1574.28086179

loop_
_atom_site_label
_atom_site_type_symbol
_atom_site_description
_atom_site_fract_x
_atom_site_fract_y
_atom_site_fract_z
_atom_type_partial_charge
O1    O     O_R   0.316770 0.614620 0.499990 -0.626369
O2    O     O_R   0.683230 0.385380 0.500010 -0.626365
O3    O     O_R   0.683230 0.614620 0.500010 -0.632348
O4    O     O_R   0.316770 0.385380 0.499990 -0.632361
C1    C     C_R   0.259916 0.500066 0.499935 0.853410
C2    C     C_R   0.740084 0.499934 0.500065 0.853424
O5    O     O_R   0.499980 0.614680 0.367850 -0.620390
O6    O     O_R   0.500020 0.385320 0.632150 -0.620393
O7    O     O_R   0.500020 0.614680 0.632150 -0.612622
O8    O     O_R   0.499980 0.385320 0.367850 -0.612630
C3    C     C_R   0.495966 0.500379 0.327093 0.901462
C4    C     C_R   0.504021 0.499621 0.672906 0.901474
Zn1   Zn    Zn3+2 0.500000 0.653120 0.500000 0.947306
Zn2   Zn    Zn3+2 0.500000 0.346880 0.500000 0.947301
C5    C     C_R   0.605243 0.569170 0.814371 0.139535
C6    C     C_R   0.394719 0.430841 0.185630 0.139526
C7    C     C_R   0.510727 0.498366 0.768259 -0.067933
C8    C     C_R   0.489243 0.501642 0.231741 -0.067946
C9    C     C_R   0.418087 0.425802 0.812672 -0.313775
C10   C     C_R   0.581853 0.574241 0.187323 -0.313760
C11   C     C_R   0.413661 0.425490 0.904759 0.123480
C12   C     C_R   0.586260 0.574577 0.095236 0.123476
C13   C     C_R   0.503251 0.499603 0.953238 0.023992
C14   C     C_R   0.496670 0.500464 0.046758 0.023994
C15   C     C_R   0.599409 0.572415 0.908372 0.108883
C16   C     C_R   0.400522 0.427638 0.091628 0.108880
C17   C     C_R   0.319613 0.353140 0.948639 -0.209524
C18   C     C_R   0.680294 0.646946 0.051358 -0.209531
C19   C     C_R   0.312978 0.353861 0.041143 -0.213411
C20   C     C_R   0.686937 0.646215 0.958854 -0.213414
H1    H     H_    0.347531 0.371403 0.774829 0.157887
H2    H     H_    0.652409 0.628645 0.225164 0.157897
H3    H     H_    0.250806 0.295883 0.911267 0.147466
H4    H     H_    0.749095 0.704213 0.088727 0.147468
H5    H     H_    0.239027 0.295464 0.072121 0.161851
H6    H     H_    0.760883 0.704616 0.927876 0.161856
C21   C     C_R   0.064186 0.383078 0.473268 -0.200101
C22   C     C_R   0.935814 0.616922 0.526732 -0.200101
C23   C     C_R   0.936112 0.382900 0.473539 -0.191410
C24   C     C_R   0.063888 0.617100 0.526461 -0.191409
H7    H     H_    0.113347 0.292649 0.451700 0.152170
H8    H     H_    0.886653 0.707350 0.548300 0.152172
H9    H     H_    0.887185 0.292339 0.452188 0.156915
H10   H     H_    0.112815 0.707661 0.547811 0.156915
C25   C     C_R   0.872505 0.499857 0.500199 -0.008347
C26   C     C_R   0.127495 0.500143 0.499801 -0.008337
C27   C     C_R   0.578980 0.071374 0.554630 -0.071690
C28   C     C_R   0.421020 0.928626 0.445370 -0.071690
C29   C     C_R   0.421018 0.072520 0.445363 -0.068714
C30   C     C_R   0.578982 0.927480 0.554637 -0.068714
H11   H     H_    0.642122 0.125449 0.598302 0.130396
H12   H     H_    0.357878 0.874551 0.401697 0.130396
H13   H     H_    0.357879 0.127508 0.401681 0.126736
H14   H     H_    0.642121 0.872492 0.598319 0.126738
N1    N     N_R   0.500000 0.857200 0.500000 -0.080979
N2    N     N_R   0.500000 0.142800 0.500000 -0.080979
C31   C     C_3   0.713376 0.635801 0.764893 -0.932382
H15   H     H_    0.803440 0.597867 0.792333 0.236191
H16   H     H_    0.716012 0.612770 0.692545 0.242942
H17   H     H_    0.708268 0.747797 0.772645 0.239354
C32   C     C_3   0.286618 0.364164 0.235114 -0.932351
H18   H     H_    0.196532 0.402113 0.207705 0.236177
H19   H     H_    0.291730 0.252168 0.227323 0.239350
H20   H     H_    0.284018 0.387140 0.307473 0.242959

loop_
_geom_bond_atom_site_label_1
_geom_bond_atom_site_label_2
_geom_bond_distance
_ccdc_geom_bond_type
C4    C7    1.427124 S    
Zn1   N1    2.008807 S    
C32   H20   1.106577 S    
Zn2   N2    2.008807 S    
C13   C14   1.399810 A    
C3    C8    1.427120 S    
C5    C7    1.410779 A    
C23   C25   1.396548 A    
C2    C25   1.416843 S    
C17   C19   1.384656 A    
C29   N2    1.366423 A    
C1    C26   1.416843 S    
C19   H5    1.081378 S    
O5    C3    1.283121 A    
C30   N1    1.366421 A    
O3    Zn1   1.996268 S    
C10   H2    1.086636 S    
C20   H6    1.081364 S    
O6    C4    1.283114 A    
O3    C2    1.281636 A    
C9    H1    1.086640 S    
O5    Zn1   2.013325 S    
C11   C17   1.395381 A    
C28   N1    1.366444 A    
C18   H4    1.084446 S    
C21   C23   1.370329 A    
C12   C18   1.395363 A    
C17   H3    1.084456 S    
C22   C24   1.370329 A    
C5    C31   1.520804 S    
C31   H15   1.110628 S    
C30   H14   1.081991 S    
C21   H7    1.083913 S    
C29   H13   1.081991 S    
C6    C32   1.520794 S    
C12   C14   1.408353 A    
C18   C20   1.384654 A    
C28   C29   1.416385 A    
C9    C11   1.377337 A    
C10   C12   1.377334 A    
C22   H8    1.083913 S    
C27   C30   1.416385 A    
C8    C10   1.389379 A    
C11   C13   1.408359 A    
O4    Zn2   1.996270 S    
C32   H18   1.110708 S    
O2    Zn2   1.997251 S    
O7    C4    1.283760 A    
O1    C1    1.281910 A    
C31   H16   1.106533 S    
O1    Zn1   1.997253 S    
O8    C3    1.283769 A    
C24   C26   1.396548 A    
C24   H10   1.083877 S    
C13   C15   1.420923 A    
C23   H9    1.083877 S    
C16   C19   1.407723 A    
C6    C8    1.410818 A    
O8    Zn2   2.009294 S    
C15   C20   1.407695 A    
C32   H19   1.110439 S    
O7    Zn1   2.009293 S    
C27   N2    1.366443 A    
C31   H17   1.110378 S    
C27   H11   1.081874 S    
C5    C15   1.407077 A    
O6    Zn2   2.013324 S    
C7    C9    1.389402 A    
C21   C26   1.396719 A    
C28   H12   1.081874 S    
O2    C2    1.281910 A    
C14   C16   1.420931 A    
O4    C1    1.281635 A    
C22   C25   1.396719 A    
C6    C16   1.407064 A    
