data_mof_unit_30395.cif
_audit_creation_date              2012-12-10T17:46:16-0500
_audit_creation_method            fapswitch 2.2
_symmetry_space_group_name_H-M    P1
_symmetry_Int_Tables_number       1
_space_group_crystal_system       triclinic
_cell_length_a                    14.148896
_cell_length_b                    10.659872
_cell_length_c                    9.931755
_cell_angle_alpha                 89.881149
_cell_angle_beta                  90.094411
_cell_angle_gamma                 91.177254
_cell_volume                      1497.63977829

loop_
_atom_site_label
_atom_site_type_symbol
_atom_type_description
_atom_site_fract_x
_atom_site_fract_y
_atom_site_fract_z
_atom_type_partial_charge
C1    C     C_R   0.504769 0.260719 0.500287 0.935743
C2    C     C_1   0.772225 0.501936 0.500155 -0.135335
C3    C     C_R   0.666418 0.129487 0.624655 0.602416
C4    C     C_R   0.739382 0.062239 0.683344 -0.205544
C5    C     C_R   0.737375 0.932073 0.680829 -0.209470
C6    C     C_R   0.662182 0.868169 0.619820 -0.117931
C7    C     C_R   0.586250 0.934193 0.562206 0.012392
C8    C     C_R   0.587963 0.066161 0.563764 -0.035103
C9    C     C_R   0.512049 0.128364 0.500358 -0.080634
C10   C     C_R   0.439676 0.063475 0.433524 -0.227084
C11   C     C_R   0.438366 0.935285 0.432929 -0.183528
C12   C     C_R   0.329307 0.499767 0.499937 0.854514
C13   C     C_R   0.509474 0.871706 0.499082 -0.054324
C14   C     C_R   0.376908 0.335658 0.139842 -0.108401
C15   C     C_R   0.316744 0.254179 0.069835 -0.194457
C16   C     C_R   0.316829 0.254008 0.930551 -0.179459
C17   C     C_R   0.377082 0.335316 0.860358 -0.098117
C18   C     C_R   0.439539 0.418866 0.927787 0.049134
C19   C     C_R   0.439507 0.418972 0.072274 0.142219
C20   C     C_R   0.557984 0.577426 0.071462 -0.211044
C21   C     C_R   0.558050 0.577443 0.928508 0.666237
C22   C     C_R   0.501699 0.739411 0.499772 0.835853
C23   C     C_R   0.670715 0.501701 0.500001 0.946564
C24   C     C_1   0.227817 0.499859 0.499795 -0.202345
C25   C     C_1   0.142551 0.500143 0.499857 -0.011740
C26   C     C_1   0.042648 0.500681 0.500033 0.010646
C27   C     C_1   0.957385 0.501198 0.500170 0.010906
C28   C     C_1   0.857486 0.501725 0.500229 0.002092
H1    H     H_    0.372285 0.329774 0.753665 0.188977
H2    H     H_    0.798738 0.111642 0.729277 0.172112
H3    H     H_    0.794899 0.880427 0.724741 0.179703
H4    H     H_    0.269559 0.190974 0.124221 0.145450
N1    N     N_R   0.499190 0.498800 0.142780 -0.142477
N2    N     N_R   0.499160 0.498720 0.857170 -0.160202
O1    O     O_R   0.500000 0.316780 0.614690 -0.595756
O2    O     O_R   0.499990 0.316750 0.385360 -0.634351
O3    O     O_R   0.373720 0.500010 0.614690 -0.622940
O4    O     O_R   0.373710 0.499990 0.385360 -0.615898
O5    O     O_R   0.500010 0.683250 0.614640 -0.574828
O6    O     O_R   0.500000 0.683220 0.385310 -0.612580
O7    O     O_R   0.626290 0.500010 0.614640 -0.511823
O8    O     O_R   0.626280 0.499990 0.385310 -0.610319
Zn1   Zn    Zn3+2 0.500010 0.500020 0.653130 1.016299
Zn2   Zn    Zn3+2 0.499990 0.499980 0.346870 0.942259
H5    H     H_    0.382705 0.112490 0.384245 0.134107
H6    H     H_    0.269697 0.190672 0.876317 0.147539
F1    F     F_    0.617615 0.656834 0.861862 -0.664859
F2    F     F_    0.675878 0.255721 0.625273 -0.687359
H7    H     H_    0.665213 0.767030 0.616456 0.177661
H8    H     H_    0.380594 0.885261 0.383361 0.148749
H9    H     H_    0.605320 0.640770 0.125133 0.177998
H10   H     H_    0.371895 0.330472 0.246511 0.188342

loop_
_geom_bond_atom_site_label_1
_geom_bond_atom_site_label_2
_ccdc_geom_bond_type
O3    Zn1   S    
C2    C28   T    
O4    Zn2   S    
C6    C7    A    
C17   H1    S    
C9    C10   A    
C12   C24   S    
C23   O7    A    
C7    C13   A    
C22   O6    A    
O1    Zn1   S    
C10   H5    S    
C17   C18   A    
C8    C9    A    
C7    C8    A    
C11   H8    S    
C12   O3    A    
C24   C25   T    
C11   C13   A    
C26   C27   T    
C23   O8    A    
O8    Zn2   S    
C22   O5    A    
C5    H3    S    
C13   C22   S    
C3    C8    A    
C20   H9    S    
C18   N2    A    
C6    H7    S    
C12   O4    A    
C5    C6    A    
C4    H2    S    
O2    Zn2   S    
C10   C11   A    
C20   N1    A    
C3    C4    A    
C3    F2    S    
O6    Zn2   S    
C1    C9    S    
C20   C21   A    
C1    O1    A    
C18   C19   A    
C19   N1    A    
C16   H6    S    
C2    C23   S    
C14   C15   A    
C16   C17   A    
O5    Zn1   S    
C21   N2    A    
C21   F1    S    
C25   C26   S    
N2    Zn1   S    
N1    Zn2   S    
C14   C19   A    
C14   H10   S    
O7    Zn1   S    
C15   C16   A    
C1    O2    A    
C4    C5    A    
C27   C28   S    
C15   H4    S    
