data_mof_unit_11921.cif
_audit_creation_date              2012-10-26T17:12:24-0400
_audit_creation_method            fapswitch 2.2
_symmetry_space_group_name_H-M    P1
_symmetry_Int_Tables_number       1
_space_group_crystal_system       triclinic
_cell_length_a                    16.846587
_cell_length_b                    16.832285
_cell_length_c                    16.789487
_cell_angle_alpha                 68.581997
_cell_angle_beta                  68.118943
_cell_angle_gamma                 68.152775
_cell_volume                      3956.35200672

loop_
_atom_site_label
_atom_site_type_symbol
_atom_type_description
_atom_site_fract_x
_atom_site_fract_y
_atom_site_fract_z
_atom_type_partial_charge
C1    C     C_R   0.012478 0.832034 0.569944 0.579089
C2    C     C_R   0.025038 0.565451 0.828421 0.562851
C3    C     C_3   0.425494 0.714545 0.217864 -0.076479
C4    C     C_3   0.865631 0.676849 0.191796 0.011847
C5    C     C_3   0.204946 0.435820 0.676645 -0.122429
C6    C     C_3   0.792840 0.980020 0.784180 -0.013797
C7    C     C_3   0.210333 0.100492 0.216078 -0.026950
C8    C     C_3   0.141871 0.709302 0.721462 -0.074666
C9    C     C_3   0.894737 0.257152 0.245863 -0.039746
C10   C     C_3   0.787183 0.781778 0.919800 -0.079327
C11   C     C_3   0.268510 0.268868 0.869027 -0.050025
C12   C     C_R   0.171498 0.974901 0.433978 0.586469
C13   C     C_R   0.828499 0.029375 0.564671 0.575561
C14   C     C_R   0.511954 0.937403 0.732583 0.310197
C15   C     C_R   0.486668 0.077531 0.264263 0.290570
C16   C     C_R   0.929850 0.742213 0.508187 0.314926
C17   C     C_R   0.922560 0.295738 0.549868 0.307640
C18   C     C_R   0.736254 0.514164 0.931287 0.314203
C19   C     C_R   0.292902 0.541646 0.950598 0.322208
C20   C     C_R   0.316382 0.911073 0.535190 0.294600
C21   C     C_R   0.972225 0.171522 0.435201 0.564426
C22   C     C_R   0.691878 0.088680 0.461304 0.324606
C23   C     C_R   0.548166 0.296551 0.925973 0.292195
C24   C     C_R   0.459735 0.691035 0.082526 0.315594
C25   C     C_R   0.895742 0.550267 0.306332 0.288674
C26   C     C_R   0.057360 0.462544 0.695363 0.343658
C27   C     C_R   0.551188 0.008548 0.547462 -0.109820
C28   C     C_R   0.452617 0.997183 0.448935 -0.091866
C29   C     C_R   0.972389 0.557480 0.559209 -0.119351
C30   C     C_R   0.945829 0.463901 0.465966 -0.102147
C31   C     C_R   0.552066 0.548147 0.003877 -0.106738
C32   C     C_R   0.831833 0.569436 0.014122 0.584118
C33   C     C_R   0.458925 0.454486 0.978246 -0.105724
C34   C     C_R   0.571420 0.045385 0.454068 0.005180
C35   C     C_R   0.437807 0.953998 0.540475 0.013038
C36   C     C_R   0.986813 0.464480 0.590823 0.004334
C37   C     C_R   0.927303 0.556827 0.435484 0.019866
C38   C     C_R   0.458449 0.577032 0.024661 0.009904
C39   C     C_R   0.552023 0.421585 0.964009 0.001055
C40   C     C_R   0.516617 0.045703 0.406426 0.021565
C41   C     C_R   0.482216 0.965411 0.591596 -0.005610
C42   C     C_R   0.413715 0.536938 0.999620 0.004578
C43   C     C_R   0.171481 0.434405 0.974365 0.563751
C44   C     C_R   0.599380 0.475186 0.965760 -0.000923
C45   C     C_R   0.962512 0.420285 0.549894 0.002260
C46   C     C_R   0.940353 0.604769 0.482559 -0.002835
C47   C     C_R   0.459878 0.936171 0.685557 0.450910
C48   C     C_R   0.519380 0.097394 0.318758 0.423338
C49   C     C_R   0.925600 0.697789 0.455099 0.456227
C50   C     C_R   0.942329 0.338498 0.594500 0.477472
C51   C     C_R   0.690519 0.465987 0.921238 0.461131
C52   C     C_R   0.331390 0.582533 0.980120 0.463916
C53   C     C_R   0.380537 0.898886 0.576441 0.430652
C54   C     C_R   0.570034 0.013712 0.831861 0.563859
C55   C     C_R   0.646379 0.079919 0.411827 0.455864
C56   C     C_R   0.594517 0.339092 0.943163 0.444788
C57   C     C_R   0.413263 0.644486 0.069876 0.472692
C58   C     C_R   0.885741 0.597319 0.366006 0.423940
C59   C     C_R   0.034243 0.417551 0.655528 0.476022
C60   C     C_R   0.575412 0.986408 0.690751 -0.095868
C61   C     C_R   0.427674 0.022561 0.305482 -0.052530
C62   C     C_R   0.974876 0.696203 0.574869 -0.093374
C63   C     C_R   0.941102 0.324653 0.455378 -0.095680
C64   C     C_R   0.692591 0.570433 0.988698 -0.089255
C65   C     C_R   0.429103 0.991845 0.166342 0.581320
C66   C     C_R   0.321807 0.448494 0.963813 -0.082785
C67   C     C_R   0.327013 0.958212 0.444025 -0.057231
C68   C     C_R   0.674957 0.048992 0.553389 -0.089433
C69   C     C_R   0.453682 0.322764 0.950780 -0.076480
C70   C     C_R   0.553280 0.673703 0.046110 -0.100690
C71   C     C_R   0.931653 0.456321 0.328504 -0.048564
C72   C     C_R   0.024948 0.555664 0.678957 -0.081574
C73   C     C_R   0.614215 0.009201 0.738768 -0.019217
C74   C     C_R   0.386123 0.002617 0.258085 -0.001656
C75   C     C_R   0.004794 0.739492 0.612644 -0.006935
C76   C     C_R   0.435422 0.171376 0.972184 0.574178
C77   C     C_R   0.953387 0.270364 0.401116 -0.016219
C78   C     C_R   0.738778 0.611434 0.009569 -0.001695
C79   C     C_R   0.269984 0.398845 0.961818 -0.012675
C80   C     C_R   0.267807 0.972046 0.393837 0.006292
C81   C     C_R   0.731118 0.040827 0.603341 -0.011102
C82   C     C_R   0.401108 0.269832 0.956823 -0.007072
C83   C     C_R   0.603493 0.731164 0.036062 -0.014818
C84   C     C_R   0.949924 0.401912 0.271649 0.007051
C85   C     C_R   0.030149 0.603144 0.731112 -0.021141
C86   C     C_R   0.696169 0.030614 0.695499 0.189823
C87   C     C_R   0.565021 0.828549 0.027301 0.571714
C88   C     C_R   0.299361 0.994237 0.300056 0.200606
C89   C     C_R   0.029354 0.692771 0.692321 0.197854
C90   C     C_R   0.956712 0.309901 0.309928 0.201273
C91   C     C_R   0.696583 0.697241 0.020369 0.221491
C92   C     C_R   0.310996 0.309968 0.957630 0.199560
C93   C     C_R   0.600044 0.015241 0.597171 -0.125652
C94   C     C_R   0.402490 0.992401 0.399446 -0.101377
C95   C     C_R   0.991118 0.603134 0.604095 -0.126940
C96   C     C_R   0.941049 0.414442 0.415807 -0.099961
C97   C     C_R   0.599094 0.596342 0.014870 -0.119826
C98   C     C_R   0.970336 0.435979 0.171932 0.588182
C99   C     C_R   0.410759 0.407223 0.966994 -0.099693
C100  C     C_3   0.574359 0.802605 0.812562 -0.087654
C101  C     C_3   0.588311 0.128341 0.133416 0.021081
C102  C     C_3   0.795941 0.828934 0.567067 -0.087538
C103  C     C_3   0.788912 0.266254 0.594532 -0.076303
C104  C     C_3   0.806758 0.589664 0.795511 -0.085190
C105  C     C_3   0.315368 0.592141 0.800827 -0.099531
C106  C     C_3   0.201908 0.893582 0.661998 -0.037857
C107  C     C_3   0.699999 0.227939 0.432293 -0.130031
C108  C     C_3   0.588547 0.269314 0.791109 -0.076397
Cu1   Cu    Cu3+1 0.995180 0.995180 0.424630 1.141432
Cu2   Cu    Cu3+1 0.004820 0.004820 0.575370 1.016802
Cu3   Cu    Cu3+1 0.995180 0.424630 0.995180 1.115571
Cu4   Cu    Cu3+1 0.004820 0.575370 0.004820 1.034528
Cu5   Cu    Cu3+1 0.424630 0.995180 0.995180 1.154789
Cu6   Cu    Cu3+1 0.575370 0.004820 0.004820 1.011752
F1    F     F_    0.384855 0.910347 0.735016 -0.540709
F2    F     F_    0.324214 0.661089 0.108632 -0.545095
F3    F     F_    0.820063 0.674238 0.367869 -0.583048
F4    F     F_    0.071029 0.328446 0.670208 -0.552323
F5    F     F_    0.541664 0.174919 0.289620 -0.594317
F6    F     F_    0.908279 0.748569 0.376477 -0.542482
F7    F     F_    0.926406 0.307529 0.684336 -0.501715
F8    F     F_    0.732159 0.423892 0.855287 -0.529688
F9    F     F_    0.300366 0.672009 0.966589 -0.524350
F10   F     F_    0.392119 0.826358 0.646002 -0.583683
F11   F     F_    0.680983 0.100760 0.322176 -0.561250
F12   F     F_    0.680711 0.296088 0.942277 -0.537146
H1    H     H_    0.638967 0.812273 0.804553 0.054288
H2    H     H_    0.786225 0.283580 0.524933 0.066656
H3    H     H_    0.752850 0.324838 0.622308 0.128151
H4    H     H_    0.754080 0.214029 0.633469 0.172679
H5    H     H_    0.845428 0.635077 0.785034 0.091902
H6    H     H_    0.736722 0.630738 0.798015 0.063033
H7    H     H_    0.832624 0.562434 0.736912 0.179394
H8    H     H_    0.310682 0.542405 0.775045 0.080227
H9    H     H_    0.385563 0.577011 0.801632 0.125617
H10   H     H_    0.302239 0.658119 0.753115 0.168670
H11   H     H_    0.195220 0.963951 0.655816 0.133129
H12   H     H_    0.580089 0.775942 0.758222 0.125103
H13   H     H_    0.232570 0.848761 0.716494 0.204075
H14   H     H_    0.133274 0.888314 0.681548 0.153222
H15   H     H_    0.672247 0.226060 0.504217 0.084303
H16   H     H_    0.645850 0.258851 0.398618 0.163660
H17   H     H_    0.745337 0.271170 0.402720 0.109587
H18   H     H_    0.614999 0.328279 0.755598 0.126079
H19   H     H_    0.518368 0.286477 0.790323 0.059277
H20   H     H_    0.627112 0.218004 0.754262 0.172177
H21   H     H_    0.495942 0.702373 0.215061 0.096555
H22   H     H_    0.404721 0.652085 0.251813 0.133739
H23   H     H_    0.558924 0.751446 0.875203 0.155998
H24   H     H_    0.383959 0.762295 0.258665 0.163940
H25   H     H_    0.930626 0.682771 0.188451 0.129617
H26   H     H_    0.809455 0.728142 0.220566 0.204114
H27   H     H_    0.864287 0.692088 0.122522 0.172348
H28   H     H_    0.214657 0.491012 0.690028 0.088814
H29   H     H_    0.208227 0.452755 0.604865 0.118505
H30   H     H_    0.261795 0.376719 0.687192 0.125959
H31   H     H_    0.810293 0.918751 0.762876 0.067184
H32   H     H_    0.765225 0.967491 0.857090 0.141211
H33   H     H_    0.855685 0.995677 0.771154 0.169799
H34   H     H_    0.637635 0.072153 0.165041 0.135715
H35   H     H_    0.263695 0.132397 0.169348 0.128713
H36   H     H_    0.172661 0.133266 0.271286 0.121079
H37   H     H_    0.163310 0.111529 0.178747 0.183055
H38   H     H_    0.168625 0.635957 0.740974 0.108950
H39   H     H_    0.156066 0.735645 0.764680 0.172724
H40   H     H_    0.176479 0.735674 0.650887 0.153260
H41   H     H_    0.842449 0.321693 0.246149 0.094527
H42   H     H_    0.868765 0.202940 0.297897 0.201071
H43   H     H_    0.909325 0.243870 0.181086 0.165018
H44   H     H_    0.735545 0.826428 0.885010 0.091119
H45   H     H_    0.593540 0.192840 0.131526 0.211234
H46   H     H_    0.828215 0.727951 0.886076 0.115401
H47   H     H_    0.832660 0.818722 0.913199 0.133007
H48   H     H_    0.338393 0.242305 0.831887 0.091021
H49   H     H_    0.242385 0.339216 0.835079 0.138261
H50   H     H_    0.227654 0.230469 0.868572 0.188292
H51   H     H_    0.608610 0.125909 0.063662 0.173552
H52   H     H_    0.797813 0.842133 0.626420 0.077993
H53   H     H_    0.775386 0.766754 0.588108 0.092759
H54   H     H_    0.743553 0.882424 0.539103 0.165834
O1    O     O_R   0.124540 0.978640 0.385460 -0.461669
O2    O     O_R   0.124540 0.385460 0.978640 -0.461226
O3    O     O_R   0.021360 0.875460 0.614540 -0.495365
O4    O     O_R   0.978640 0.124540 0.385460 -0.482471
O5    O     O_R   0.013780 0.867370 0.487190 -0.464152
O6    O     O_R   0.986220 0.132630 0.512810 -0.467509
O7    O     O_R   0.867370 0.487190 0.013780 -0.485709
O8    O     O_R   0.132630 0.512810 0.986220 -0.476771
O9    O     O_R   0.487190 0.013780 0.867370 -0.475731
O10   O     O_R   0.512810 0.986220 0.132630 -0.505638
O11   O     O_R   0.512810 0.132630 0.986220 -0.471599
O12   O     O_R   0.875460 0.021360 0.614540 -0.501383
O13   O     O_R   0.487190 0.867370 0.013780 -0.433493
O14   O     O_R   0.986220 0.512810 0.132630 -0.499441
O15   O     O_R   0.013780 0.487190 0.867370 -0.445768
O16   O     O_R   0.132630 0.986220 0.512810 -0.506081
O17   O     O_R   0.867370 0.013780 0.487190 -0.441451
O18   O     O_3   0.505521 0.881999 0.817621 -0.486754
O19   O     O_3   0.499128 0.123161 0.174540 -0.564360
O20   O     O_3   0.878262 0.828795 0.501292 -0.494877
O21   O     O_3   0.876926 0.232429 0.601472 -0.478766
O22   O     O_3   0.818509 0.518640 0.872013 -0.504134
O23   O     O_R   0.978640 0.385460 0.124540 -0.483166
O24   O     O_3   0.251300 0.594812 0.884502 -0.521300
O25   O     O_3   0.250219 0.867961 0.581471 -0.570511
O26   O     O_3   0.748338 0.142743 0.419168 -0.535332
O27   O     O_3   0.598319 0.233996 0.878197 -0.486891
O28   O     O_3   0.411720 0.751986 0.132413 -0.488598
O29   O     O_3   0.853509 0.591110 0.238497 -0.555010
O30   O     O_3   0.125074 0.415880 0.736219 -0.522344
O31   O     O_3   0.735836 0.054955 0.739444 -0.537299
O32   O     O_3   0.244987 0.008093 0.248637 -0.523377
O33   O     O_3   0.049230 0.736479 0.734747 -0.546195
O34   O     O_R   0.021360 0.614540 0.875460 -0.477660
O35   O     O_3   0.975025 0.256333 0.255588 -0.551686
O36   O     O_3   0.747674 0.749676 0.011425 -0.533555
O37   O     O_3   0.261291 0.260262 0.957982 -0.534497
O38   O     O_R   0.385460 0.124540 0.978640 -0.485602
O39   O     O_R   0.614540 0.875460 0.021360 -0.489418
O40   O     O_R   0.614540 0.021360 0.875460 -0.490137
O41   O     O_R   0.385460 0.978640 0.124540 -0.451351
O42   O     O_R   0.875460 0.614540 0.021360 -0.494208

loop_
_geom_bond_atom_site_label_1
_geom_bond_atom_site_label_2
_ccdc_geom_bond_type
C21   O4    A    
C83   C87   S    
C3    H21   S    
Cu6   O10   S    
C54   O9    A    
C43   O8    A    
C35   C53   A    
C100  H1    S    
C102  H54   S    
C23   C69   A    
C30   C45   A    
Cu1   O17   S    
Cu3   Cu4   S    
C84   C90   A    
Cu6   O39   S    
C36   C59   A    
C10   O36   S    
C106  O25   S    
C65   O41   A    
C72   C85   A    
C1    O3    A    
C24   C70   A    
C23   C56   A    
C9    O35   S    
C47   F1    S    
C5    O30   S    
C7    H35   S    
C29   C36   A    
C22   O26   S    
C11   H50   S    
C33   C39   A    
C13   O12   A    
C13   O17   A    
C19   C66   A    
C34   C40   A    
C33   C42   A    
C15   C48   A    
C108  H19   S    
C52   F9    S    
C49   F6    S    
C28   C40   A    
C10   H46   S    
C5    H28   S    
C38   C57   A    
C13   C81   S    
C60   C73   A    
C82   C92   A    
C98   O14   A    
C2    C85   S    
C28   C94   A    
C2    O15   A    
C19   O24   S    
C107  O26   S    
C30   C96   A    
C69   C82   A    
C20   C67   A    
C22   C68   A    
C72   C95   A    
C9    H43   S    
C19   C52   A    
C55   F11   S    
C101  H34   S    
C76   O38   A    
C24   C57   A    
C11   H48   S    
C104  H5    S    
C67   C94   A    
C25   C71   A    
Cu4   O34   S    
C107  H15   S    
C26   C59   A    
C11   O37   S    
C81   C86   A    
C16   O20   S    
C70   C97   A    
C105  H9    S    
C100  H23   S    
C60   C93   A    
C10   H47   S    
C31   C97   A    
C4    H27   S    
C3    H22   S    
C62   C95   A    
C102  H53   S    
C12   O16   A    
Cu5   Cu6   S    
C50   F7    S    
C16   C62   A    
C20   O25   S    
C108  O27   S    
Cu6   O40   S    
C90   O35   S    
C6    H32   S    
C18   C51   A    
C7    O32   S    
C57   F2    S    
C108  H20   S    
C27   C34   A    
C41   C47   A    
C4    H26   S    
C7    H36   S    
C77   C90   A    
C31   C44   A    
C1    C75   S    
C98   O23   A    
C21   O6    A    
C86   O31   S    
C87   O13   A    
C18   O22   S    
C8    O33   S    
C8    H38   S    
Cu3   O23   S    
C29   C95   A    
C85   C89   A    
C61   C94   A    
C100  H12   S    
C105  O24   S    
C71   C96   A    
Cu1   O5    S    
C5    H29   S    
C7    H37   S    
C63   C96   A    
C24   O28   S    
Cu3   O2    S    
C6    H33   S    
C4    O29   S    
C30   C37   A    
C33   C99   A    
C104  O22   S    
C66   C99   A    
C17   O21   S    
C103  O21   S    
C91   O36   S    
C66   C79   A    
C102  O20   S    
C54   C73   S    
C14   O18   S    
C27   C41   A    
C106  H14   S    
C12   O1    A    
C46   C49   A    
C9    H41   S    
Cu4   O14   S    
C15   C61   A    
C36   C45   A    
C26   O30   S    
C39   C56   A    
C26   C72   A    
C16   C49   A    
C107  H16   S    
C25   O29   S    
C70   C83   A    
C103  H3    S    
Cu5   O41   S    
C79   C92   A    
C39   C44   A    
C8    H40   S    
C105  H10   S    
C69   C99   A    
Cu1   O4    S    
C64   C97   A    
C14   C47   A    
Cu2   O3    S    
C2    O34   A    
C59   F4    S    
C87   O39   A    
Cu2   O16   S    
C102  H52   S    
C62   C75   A    
C27   C93   A    
C25   C58   A    
C3    O28   S    
C107  H17   S    
C56   F12   S    
Cu5   O38   S    
C108  H18   S    
C6    H31   S    
C64   C78   A    
C44   C51   A    
C104  H6    S    
C89   O33   S    
C71   C84   A    
C63   C77   A    
Cu1   O1    S    
C14   C60   A    
C40   C48   A    
C4    H25   S    
C103  H2    S    
Cu2   O6    S    
C3    H24   S    
Cu6   O11   S    
C32   O7    A    
C23   O27   S    
C12   C80   S    
Cu5   O13   S    
C9    H42   S    
C67   C80   A    
C37   C58   A    
Cu4   O42   S    
C20   C53   A    
C106  H11   S    
C53   F10   S    
C17   C50   A    
Cu4   O8    S    
C32   O42   A    
C101  O19   S    
C54   O40   A    
C22   C55   A    
C6    O31   S    
C1    O5    A    
C78   C91   A    
C10   H44   S    
C5    H30   S    
Cu5   O9    S    
C43   O2    A    
Cu3   O7    S    
C68   C93   A    
C31   C38   A    
C68   C81   A    
C29   C46   A    
C84   C98   S    
C104  H7    S    
C80   C88   A    
C76   O11   A    
Cu1   Cu2   S    
C17   C63   A    
C18   C64   A    
C106  H13   S    
Cu3   O15   S    
C45   C50   A    
C76   C82   S    
C83   C91   A    
Cu2   O12   S    
C11   H49   S    
C15   O19   S    
C101  H45   S    
C58   F3    S    
C92   O37   S    
C35   C41   A    
C103  H4    S    
C73   C86   A    
C101  H51   S    
C8    H39   S    
C65   C74   S    
C32   C78   S    
C38   C42   A    
C34   C55   A    
C65   O10   A    
C88   O32   S    
C75   C89   A    
C21   C77   S    
C51   F8    S    
C48   F5    S    
C74   C88   A    
C37   C46   A    
C28   C35   A    
C43   C79   S    
C61   C74   A    
C42   C52   A    
C105  H8    S    
C100  O18   S    
