data_mof_unit_9595.cif
_audit_creation_date              2012-12-11T20:41:38-0500
_audit_creation_method            fapswitch 2.2
_symmetry_space_group_name_H-M    P1
_symmetry_Int_Tables_number       1
_space_group_crystal_system       triclinic
_cell_length_a                    8.232835
_cell_length_b                    18.873444
_cell_length_c                    27.026036
_cell_angle_alpha                 97.217883
_cell_angle_beta                  92.526911
_cell_angle_gamma                 86.506903
_cell_volume                      4155.52499968

loop_
_atom_site_label
_atom_site_type_symbol
_atom_type_description
_atom_site_fract_x
_atom_site_fract_y
_atom_site_fract_z
_atom_type_partial_charge
Ba1   Ba    Ba6+2 0.852670 0.466460 0.522850 1.642864
Ba2   Ba    Ba6+2 0.337150 0.533490 0.477140 1.642351
C1    C     C_3   0.818453 0.251882 0.699848 -0.324344
C2    C     C_R   0.918672 0.572563 0.178938 0.572342
C3    C     C_2   0.765684 0.548028 0.273174 -0.084037
C4    C     C_3   0.235061 0.302339 0.641936 0.276583
C5    C     C_3   0.748406 0.571906 0.328144 -0.048486
C6    C     C_1   0.984608 0.491151 0.343205 0.041330
C7    C     C_2   0.025861 0.487899 0.295512 -0.107729
C8    C     C_2   0.908466 0.515801 0.256782 0.190479
C9    C     C_R   0.027991 0.508561 0.102181 -0.079381
C10   C     C_R   0.060553 0.448146 0.127582 -0.036652
C11   C     C_R   0.132658 0.386138 0.101491 -0.059922
C12   C     C_3   0.753415 0.289474 0.655668 0.482229
C13   C     C_R   0.956134 0.570937 0.128237 -0.024329
C14   C     C_2   0.854410 0.528536 0.361159 -0.293721
C15   C     C_2   0.352635 0.485643 0.641136 -0.278423
C16   C     C_3   0.284809 0.274826 0.691198 -0.338092
C17   C     C_R   0.185336 0.442823 0.974006 0.019643
C18   C     C_R   0.064714 0.565680 0.973960 0.020235
C19   C     C_R   0.144452 0.503518 0.948588 0.050243
C20   C     C_R   0.268382 0.383125 0.947188 -0.099817
C21   C     C_R   0.307418 0.382675 0.897427 -0.061863
C22   C     C_R   0.265753 0.441612 0.871731 -0.031493
C23   C     C_3   0.520643 0.647866 0.630228 0.302168
C24   C     C_R   0.183848 0.502125 0.897214 -0.078568
C25   C     C_R   0.141668 0.561356 0.871336 -0.034451
C26   C     C_R   0.182205 0.559552 0.820743 0.588375
C27   C     C_R   0.304640 0.441154 0.821058 0.587268
C28   C     C_3   0.193718 0.313705 0.407017 0.315275
C29   C     C_2   0.459748 0.486982 0.729087 -0.080439
C30   C     C_3   0.502264 0.492185 0.675364 -0.042554
C31   C     C_1   0.212840 0.514740 0.657454 0.037829
C32   C     C_2   0.173859 0.514556 0.704683 -0.096049
C33   C     C_2   0.303353 0.499094 0.743629 0.206757
C34   C     C_3   0.508444 0.676048 0.685290 -0.371749
C35   C     C_R   0.142885 0.443841 0.025044 0.019575
C36   C     C_R   0.067044 0.506736 0.050728 0.049948
C37   C     C_R   0.029812 0.567958 0.025574 0.020155
C38   C     C_R   0.173053 0.383940 0.051636 -0.098957
C39   C     C_R   0.923716 0.631241 0.103280 -0.060090
C40   C     C_3   0.232122 0.236697 0.384571 -0.375031
C41   C     C_R   0.021876 0.623631 0.946437 -0.100099
C42   C     C_R   0.059766 0.621446 0.896543 -0.061323
C43   C     C_R   0.959487 0.629937 0.053358 -0.102173
C44   C     C_2   0.397309 0.295551 0.513590 -0.267136
C45   C     C_3   0.074944 0.686526 0.342544 0.341550
C46   C     C_3   0.259037 0.246211 0.509649 -0.025892
C47   C     C_2   0.322670 0.169803 0.512957 -0.120924
C48   C     C_2   0.477023 0.148969 0.499181 -0.069629
C49   C     C_2   0.584530 0.204947 0.486088 -0.118833
C50   C     C_1   0.529768 0.272978 0.489595 0.070001
C51   C     C_R   0.646498 0.932252 0.489130 0.461227
C52   C     C_3   0.011811 0.682442 0.583033 0.303519
C53   C     C_R   0.538005 0.072553 0.496164 0.468931
C54   C     C_R   0.612823 0.807160 0.507452 -0.123012
C55   C     C_R   0.663512 0.734795 0.504450 0.043100
C56   C     C_3   0.091965 0.706930 0.290423 -0.315029
C57   C     C_R   0.899621 0.756410 0.459997 0.016301
C58   C     C_R   0.850512 0.829495 0.462649 -0.139969
C59   C     C_R   0.703707 0.855409 0.485701 -0.068617
C60   C     C_R   0.801496 0.709336 0.478729 -0.280973
C61   C     C_3   0.994564 0.763155 0.596783 -0.375194
C62   C     C_3   0.666597 0.380856 0.373133 0.297461
C63   C     C_3   0.667631 0.363406 0.316666 -0.358824
C64   C     C_3   0.534999 0.724761 0.365288 0.362422
C65   C     C_3   0.500105 0.796607 0.345927 -0.358314
C66   C     C_R   0.019262 0.450690 0.178397 0.598423
H1    H     H_    0.859304 0.311951 0.640271 0.107116
H2    H     H_    0.788915 0.396198 0.387227 0.013663
H3    H     H_    0.576695 0.426237 0.382430 0.080644
H4    H     H_    0.911982 0.209189 0.687440 0.110815
H5    H     H_    0.762159 0.320267 0.306147 0.137056
H6    H     H_    0.694426 0.411425 0.299425 0.070067
H7    H     H_    0.546585 0.345612 0.302094 0.130906
H8    H     H_    0.718018 0.227560 0.716728 0.119249
H9    H     H_    0.396971 0.634389 0.615384 0.029774
H10   H     H_    0.604204 0.599200 0.626339 0.032961
H11   H     H_    0.432617 0.727018 0.689592 0.140408
H12   H     H_    0.302157 0.235856 0.350276 0.140091
H13   H     H_    0.450799 0.636990 0.705361 0.075704
H14   H     H_    0.631814 0.685571 0.702207 0.126106
H15   H     H_    0.874563 0.291140 0.728656 0.100844
H16   H     H_    0.348606 0.221166 0.684391 0.118621
H17   H     H_    0.144608 0.634708 0.345181 0.085819
H18   H     H_    0.944045 0.680631 0.348109 -0.055144
H19   H     H_    0.212171 0.728793 0.286710 0.147613
H20   H     H_    0.082559 0.658711 0.262817 0.120517
H21   H     H_    0.994888 0.747768 0.282276 0.117652
H22   H     H_    0.669378 0.714157 0.366201 -0.067615
H23   H     H_    0.306351 0.207023 0.411133 0.061268
H24   H     H_    0.490731 0.728746 0.403841 0.077623
H25   H     H_    0.567409 0.838289 0.369715 0.075734
H26   H     H_    0.368114 0.812176 0.346926 0.151992
H27   H     H_    0.165869 0.354610 0.650359 0.045551
H28   H     H_    0.540236 0.793579 0.306983 0.120778
H29   H     H_    0.145835 0.466238 0.284560 0.135591
H30   H     H_    0.158708 0.338494 0.119664 0.122215
H31   H     H_    0.557264 0.478590 0.756466 0.099442
H32   H     H_    0.371207 0.335382 0.879026 0.120295
H33   H     H_    0.307205 0.335607 0.963673 0.069153
H34   H     H_    0.117299 0.209286 0.374887 0.122271
H35   H     H_    0.226552 0.333665 0.034892 0.069427
H36   H     H_    0.673133 0.566524 0.247194 0.120931
H37   H     H_    0.869849 0.680411 0.122400 0.122707
H38   H     H_    0.956701 0.671814 0.962051 0.069558
H39   H     H_    0.347255 0.309727 0.622146 0.002617
H40   H     H_    0.024013 0.667615 0.877639 0.122738
H41   H     H_    0.049083 0.526766 0.715563 0.125477
H42   H     H_    0.931927 0.679340 0.037973 0.069316
H43   H     H_    0.840966 0.541101 0.401114 0.083407
H44   H     H_    0.360318 0.458109 0.603455 0.073195
H45   H     H_    0.892002 0.662200 0.570720 0.007363
H46   H     H_    0.239007 0.131260 0.521736 0.111119
H47   H     H_    0.706443 0.189694 0.473426 0.116319
H48   H     H_    0.505285 0.825794 0.528001 0.110250
H49   H     H_    0.927083 0.865596 0.447595 0.105652
H50   H     H_    0.385983 0.348997 0.533799 0.061039
H51   H     H_    0.367546 0.312101 0.713042 0.170744
H52   H     H_    0.840105 0.653290 0.477183 0.058724
H53   H     H_    0.175913 0.271088 0.713264 0.111901
H54   H     H_    0.309349 0.338574 0.419042 0.015407
H55   H     H_    0.114439 0.314679 0.439237 0.027495
H56   H     H_    0.097213 0.670305 0.552153 0.075258
H57   H     H_    0.584059 0.216168 0.630907 0.166248
H58   H     H_    0.641994 0.264543 0.587570 0.181119
H59   H     H_    0.903765 0.776843 0.626169 0.138049
H60   H     H_    0.953937 0.789675 0.563744 0.065899
H61   H     H_    0.113767 0.783641 0.610878 0.127869
N1    N     N_R   0.949400 0.512709 0.203985 -0.421321
N2    N     N_R   0.262668 0.499761 0.795912 -0.423650
N3    N     N_R   0.497890 0.954045 0.507303 -0.240656
N4    N     N_R   0.444756 0.022507 0.510686 -0.241073
N5    N     N_R   0.686867 0.050926 0.477990 -0.241230
N6    N     N_R   0.739996 0.982260 0.474502 -0.241197
N7    N     N_3   0.685122 0.237191 0.617139 -0.476172
O1    O     O_2   0.914730 0.537460 0.618690 -0.465661
O2    O     O_2   0.236709 0.753365 0.471197 -0.480427
O3    O     O_3   0.136954 0.739989 0.377814 -0.599266
O4    O     O_3   0.146720 0.537410 0.558510 -0.489022
O5    O     O_3   0.553920 0.415280 0.473710 -0.489066
O6    O     O_2   0.383540 0.672140 0.526840 -0.460438
O7    O     O_3   0.582124 0.700878 0.605539 -0.639897
O8    O     O_2   0.418719 0.532659 0.322963 -0.498898
O9    O     O_3   0.454654 0.671156 0.334167 -0.592360
O10   O     O_2   0.043504 0.397209 0.199455 -0.596155
O11   O     O_2   0.374921 0.388214 0.799282 -0.610436
O12   O     O_3   0.625447 0.320146 0.393616 -0.635995
O13   O     O_2   0.859465 0.628054 0.200847 -0.620381
O14   O     O_2   0.147734 0.611810 0.799034 -0.597865
O15   O     O_3   0.666360 0.409390 0.586570 -0.478292
O16   O     O_2   0.835610 0.442293 0.672280 -0.515684
O17   O     O_3   0.070150 0.651646 0.625215 -0.626885
O18   O     O_3   0.630976 0.341582 0.672388 -0.632979
O19   O     O_2   0.806150 0.327840 0.473120 -0.466676
O20   O     O_3   0.073640 0.373350 0.561550 -0.487858
O21   O     O_2   0.931447 0.250640 0.537862 -0.471274
O22   O     O_3   0.137072 0.252756 0.613547 -0.599267
O23   O     O_2   0.274960 0.462520 0.381280 -0.466540
O24   O     O_3   0.042980 0.462530 0.441480 -0.490369
O25   O     O_3   0.523340 0.590550 0.413420 -0.477407
O26   O     O_3   0.111431 0.349248 0.370487 -0.625245
O27   O     O_3   0.635780 0.584660 0.526290 -0.476108
O28   O     O_3   0.116060 0.626590 0.438450 -0.494062
P1    P     P_3+3 0.084800 0.558370 0.611580 0.999139
P2    P     P_3+3 0.628800 0.338360 0.458800 0.984319
P3    P     P_3+3 0.099187 0.280087 0.554404 0.964845
P4    P     P_3+3 0.104900 0.441570 0.388420 0.995514
P5    P     P_3+3 0.098271 0.719698 0.437346 0.951454
P6    P     P_3+3 0.662470 0.423973 0.651789 0.946062
P7    P     P_3+3 0.569316 0.674517 0.541165 0.952201
P8    P     P_3+3 0.535187 0.588294 0.348966 0.945196

loop_
_geom_bond_atom_site_label_1
_geom_bond_atom_site_label_2
_ccdc_geom_bond_type
C6    C7    D    
C19   C24   A    
C26   O14   D    
C33   N2    S    
Ba1   O20   S    
O12   P2    S    
C51   N6    A    
C56   H19   S    
O21   P3    D    
C52   O17   S    
O1    P1    D    
C66   O10   D    
C55   C60   A    
C64   H22   S    
C28   H55   S    
C54   C55   A    
C40   H12   S    
C2    O13   D    
C10   C66   A    
C44   H50   S    
O5    P2    S    
O15   P6    S    
C39   H37   S    
C23   H9    S    
C45   H17   S    
C17   C19   A    
C22   C24   A    
Ba1   Ba2   S    
C35   C38   A    
C36   C37   A    
C52   C61   S    
O19   P2    D    
C52   H45   S    
C44   C50   D    
C63   H5    S    
O23   P4    D    
O18   P6    S    
C32   C33   S    
C62   H3    S    
C11   H30   S    
Ba1   O19   S    
C22   C27   A    
C64   O9    S    
C52   H56   S    
C6    P4    S    
C50   P2    S    
O25   P8    S    
C9    C13   A    
C25   C42   A    
C28   H54   S    
C34   H14   S    
N3    N4    A    
C11   C38   A    
C65   H26   S    
C16   H16   S    
C4    H39   S    
O3    P5    S    
C29   H31   S    
C17   C35   A    
C7    C8    S    
C60   H52   S    
C61   H60   S    
C37   C43   A    
O24   P4    S    
C21   H32   S    
C3    H36   S    
H58   N7    S    
C57   C58   A    
C6    C14   D    
C5    P8    S    
C62   O12   S    
O2    P5    D    
O28   P5    S    
C23   O7    S    
C15   C31   D    
C40   H34   S    
Ba2   O25   S    
C4    O22   S    
O22   P3    S    
C31   C32   D    
C42   H40   S    
C54   H48   S    
C4    C16   S    
C44   C46   S    
C15   C30   S    
C49   C50   D    
C45   H18   S    
C17   C20   A    
C64   C65   S    
C13   C39   A    
Ba2   O28   S    
C3    C5    S    
C18   C37   A    
C43   H42   S    
Ba2   O23   S    
C64   H24   S    
O27   P7    S    
C23   C34   S    
O20   P3    S    
C53   N4    A    
C49   H47   S    
C63   H6    S    
C23   H10   S    
C58   C59   A    
C41   H38   S    
C9    C36   A    
C41   C42   A    
C8    N1    S    
C35   C36   A    
O16   P6    D    
C38   H35   S    
C29   C30   S    
Ba1   P1    S    
C34   H13   S    
C21   C22   A    
C48   C49   S    
C24   C25   A    
C58   H49   S    
C51   N3    A    
C10   C11   A    
C66   N1    Am   
C1    H8    S    
C20   H33   S    
Ba1   O4    S    
O26   P4    S    
H57   N7    S    
C46   C47   S    
C47   C48   D    
C62   H2    S    
C1    H15   S    
C65   H28   S    
Ba2   O6    S    
C12   H1    S    
C29   C33   D    
C28   O26   S    
C51   C59   S    
C15   H44   S    
Ba2   P4    S    
C18   C41   A    
Ba1   O1    S    
O4    P1    S    
Ba2   O5    S    
C30   P6    S    
C5    C14   S    
C57   C60   A    
C7    H29   S    
O17   P1    S    
C54   C59   A    
Ba1   O24   S    
C31   P1    S    
C34   H11   S    
C56   H20   S    
Ba2   O27   S    
C27   O11   D    
C2    N1    Am   
C9    C10   A    
N5    N6    A    
C1    C12   S    
C53   N5    A    
O8    P8    D    
C48   C53   S    
C63   H7    S    
C26   N2    Am   
Ba2   O4    S    
C62   C63   S    
C2    C13   A    
C1    H4    S    
O7    P7    S    
C3    C8    D    
C45   C56   S    
C47   H46   S    
C27   N2    Am   
C46   P3    S    
C12   N7    S    
Ba1   P2    S    
Ba1   O15   S    
C61   H61   S    
C56   H21   S    
C61   H59   S    
O9    P8    S    
Ba1   O5    S    
C16   H53   S    
C18   C19   A    
Ba1   O27   S    
Ba2   O24   S    
C4    H27   S    
C45   O3    S    
C25   C26   A    
C65   H25   S    
C32   H41   S    
C39   C43   A    
C20   C21   A    
C28   C40   S    
C57   P5    S    
C16   H51   S    
C12   O18   S    
C40   H23   S    
C14   H43   S    
O6    P7    D    
C55   P7    S    
