data_mof_unit_36843.cif
_audit_creation_date              2012-12-10T19:46:54-0500
_audit_creation_method            fapswitch 2.2
_symmetry_space_group_name_H-M    P1
_symmetry_Int_Tables_number       1
_space_group_crystal_system       triclinic
_cell_length_a                    10.919638
_cell_length_b                    10.908063
_cell_length_c                    13.109827
_cell_angle_alpha                 90.777426
_cell_angle_beta                  89.947277
_cell_angle_gamma                 90.413561
_cell_volume                      1561.35406913

loop_
_atom_site_label
_atom_site_type_symbol
_atom_type_description
_atom_site_fract_x
_atom_site_fract_y
_atom_site_fract_z
_atom_type_partial_charge
C1    C     C_R   0.493393 0.259525 0.499104 0.821428
C2    C     C_R   0.506635 0.740473 0.500896 0.821397
C3    C     C_R   0.872969 0.492806 0.500745 -0.103961
C4    C     C_R   0.127030 0.507212 0.499259 -0.103967
C5    C     C_R   0.939147 0.457509 0.587987 0.007433
C6    C     C_R   0.060853 0.542515 0.412018 0.007440
C7    C     C_R   0.299360 0.219175 0.199566 -0.113941
C8    C     C_R   0.700650 0.780714 0.800427 -0.113924
C9    C     C_R   0.331262 0.172500 0.294646 -0.119160
C10   C     C_R   0.668761 0.827391 0.705344 -0.119063
C11   C     C_R   0.443815 0.113028 0.307383 0.118719
C12   C     C_R   0.556262 0.886973 0.692623 0.118695
C13   C     C_R   0.523225 0.099991 0.223602 -0.146348
C14   C     C_R   0.476906 0.900132 0.776430 -0.146420
C15   C     C_R   0.491015 0.147002 0.128718 -0.150629
C16   C     C_R   0.509109 0.853127 0.871318 -0.150624
C17   C     C_R   0.379063 0.206267 0.116666 -0.107987
C18   C     C_R   0.620997 0.793741 0.883349 -0.107975
C19   C     C_R   0.485023 0.931839 0.410174 -0.248501
C20   C     C_R   0.515065 0.068163 0.589823 -0.248510
C21   C     C_R   0.507455 0.873066 0.502358 -0.092353
C22   C     C_R   0.492615 0.126933 0.497641 -0.092350
C23   C     C_R   0.259608 0.506238 0.499882 0.824784
C24   C     C_R   0.740393 0.493770 0.500119 0.824738
C25   C     C_R   0.524465 0.941796 0.593382 0.001022
C26   C     C_R   0.475621 0.058204 0.406618 0.000991
C27   C     C_1   0.500094 0.500067 0.173552 0.186234
C28   C     C_1   0.499907 0.499932 0.826448 0.186221
C29   C     C_1   0.500063 0.500051 0.050699 -0.037931
C30   C     C_1   0.499937 0.499948 0.949301 -0.037917
C31   C     C_R   0.237939 0.754737 0.238391 -0.168275
C32   C     C_R   0.762101 0.245260 0.761618 -0.168288
C33   C     C_R   0.181241 0.707278 0.325157 -0.112629
C34   C     C_R   0.818784 0.292730 0.674850 -0.112640
C35   C     C_R   0.120313 0.593468 0.319986 0.086365
C36   C     C_R   0.879688 0.406553 0.680019 0.086396
C37   C     C_R   0.116184 0.528357 0.226856 -0.154493
C38   C     C_R   0.883803 0.471667 0.773148 -0.154530
C39   C     C_R   0.174604 0.575330 0.140505 0.221158
C40   C     C_R   0.825397 0.424681 0.859502 0.221138
C41   C     C_R   0.235193 0.688623 0.146355 -0.139999
C42   C     C_R   0.764834 0.311375 0.853654 -0.139972
C43   C     C_R   0.934125 0.533445 0.413531 -0.229755
C44   C     C_R   0.065874 0.466579 0.586475 -0.229742
Cu1   Cu    Cu3+1 0.499990 0.499990 0.592680 0.987765
Cu2   Cu    Cu3+1 0.500010 0.500010 0.407320 0.987775
H1    H     H_    0.280287 0.725313 0.079714 0.144707
H2    H     H_    0.719754 0.274673 0.920296 0.144687
H3    H     H_    0.609815 0.053354 0.231866 0.132253
H4    H     H_    0.390364 0.946860 0.768181 0.132266
H5    H     H_    0.552550 0.136975 0.064403 0.134722
H6    H     H_    0.447618 0.863254 0.935654 0.134728
H7    H     H_    0.471555 0.878832 0.340480 0.156427
H8    H     H_    0.528538 0.121173 0.659515 0.156417
H9    H     H_    0.284066 0.842785 0.242416 0.139708
H10   H     H_    0.715998 0.157199 0.757596 0.139714
H11   H     H_    0.184788 0.758941 0.396260 0.116054
H12   H     H_    0.815249 0.241066 0.603749 0.116056
H13   H     H_    0.212493 0.264548 0.189977 0.146088
H14   H     H_    0.787468 0.735245 0.810002 0.146080
H15   H     H_    0.268249 0.181963 0.358084 0.110937
H16   H     H_    0.731738 0.817839 0.641888 0.110917
N1    N     N_1   0.500030 0.500030 0.268070 -0.131796
N2    N     N_1   0.499970 0.499970 0.731930 -0.131803
O1    O     O_R   0.499980 0.319630 0.578260 -0.585246
O2    O     O_R   0.500020 0.680370 0.421740 -0.585246
O3    O     O_R   0.500000 0.319650 0.421740 -0.569222
O4    O     O_R   0.500000 0.680350 0.578260 -0.569231
O5    O     O_R   0.319630 0.500000 0.578260 -0.580399
O6    O     O_R   0.680370 0.500000 0.421740 -0.580408
O7    O     O_R   0.319650 0.500020 0.421740 -0.572453
O8    O     O_R   0.680350 0.499980 0.578260 -0.572480
H17   H     H_    0.069078 0.440797 0.221851 0.147799
H18   H     H_    0.930891 0.559235 0.778152 0.147777
I1    I     I_    0.173101 0.474941 0.001705 -0.451437
I2    I     I_    0.826895 0.525062 0.998305 -0.451480
H19   H     H_    0.882838 0.562087 0.347243 0.173500
H20   H     H_    0.117162 0.437937 0.652762 0.173506
H21   H     H_    0.354118 0.241992 0.043019 0.159517
H22   H     H_    0.645935 0.758014 0.956998 0.159526

loop_
_geom_bond_atom_site_label_1
_geom_bond_atom_site_label_2
_ccdc_geom_bond_type
C27   C29   S    
C23   O5    A    
C24   O6    A    
C39   C41   A    
C18   H22   S    
Cu1   Cu2   S    
C3    C43   A    
C9    H15   S    
C19   C21   A    
Cu2   O2    S    
C2    O4    A    
C20   C25   A    
C5    C36   S    
C17   H21   S    
C6    C35   S    
C15   C17   A    
C19   C26   A    
C21   C25   A    
C1    O3    A    
C7    C17   A    
C1    O1    A    
C31   C33   A    
C39   I1    S    
C19   H7    S    
C40   C42   A    
C1    C22   S    
Cu1   O8    S    
C3    C24   S    
C10   H16   S    
C2    C21   S    
C7    H13   S    
Cu1   O5    S    
C23   O7    A    
C4    C6    A    
C4    C23   S    
C4    C44   A    
C11   C26   S    
C3    C5    A    
C8    C18   A    
C40   I2    S    
C32   C34   A    
C29   C30   T    
Cu1   O4    S    
C41   H1    S    
C42   H2    S    
C9    C11   A    
Cu2   O7    S    
C10   C12   A    
C13   H3    S    
C28   N2    T    
C20   H8    S    
C5    C44   A    
C20   C22   A    
C15   H5    S    
C6    C43   A    
C13   C15   A    
Cu1   O1    S    
C14   C16   A    
C36   C38   A    
C24   O8    A    
C38   H18   S    
C7    C9    A    
C37   H17   S    
C33   H11   S    
C31   C41   A    
C35   C37   A    
C8    C10   A    
C16   H6    S    
C12   C14   A    
C2    O2    A    
C43   H19   S    
Cu2   N1    S    
Cu1   N2    S    
C12   C25   S    
C44   H20   S    
Cu2   O3    S    
C37   C39   A    
C8    H14   S    
C38   C40   A    
C11   C13   A    
C14   H4    S    
C28   C30   S    
C33   C35   A    
C34   C36   A    
Cu2   O6    S    
C16   C18   A    
C22   C26   A    
C34   H12   S    
C32   C42   A    
C27   N1    T    
C31   H9    S    
C32   H10   S    
