data_mof_unit_66348.cif
_audit_creation_date              2012-12-10T18:40:03-0500
_audit_creation_method            fapswitch 2.2
_symmetry_space_group_name_H-M    P1
_symmetry_Int_Tables_number       1
_space_group_crystal_system       triclinic
_cell_length_a                    30.524929
_cell_length_b                    29.878278
_cell_length_c                    24.584096
_cell_angle_alpha                 90.277375
_cell_angle_beta                  127.894708
_cell_angle_gamma                 90.005771
_cell_volume                      17693.3713576

loop_
_atom_site_label
_atom_site_type_symbol
_atom_type_description
_atom_site_fract_x
_atom_site_fract_y
_atom_site_fract_z
_atom_type_partial_charge
C1    C     C_R   0.810539 0.811089 0.500299 0.938580
C2    C     C_R   0.189794 0.811017 0.500586 0.910884
C3    C     C_R   0.310591 0.311050 0.500181 0.926921
C4    C     C_R   0.689106 0.311026 0.499186 0.928953
C5    C     C_R   0.646621 0.750608 0.290021 -0.126639
C6    C     C_R   0.356425 0.750272 0.711182 -0.136363
C7    C     C_R   0.143902 0.248882 0.289213 -0.126806
C8    C     C_R   0.855769 0.249154 0.710815 -0.122136
C9    C     C_R   0.460709 0.749053 0.931474 0.327313
C10   C     C_R   0.535284 0.750989 0.070287 0.350191
C11   C     C_R   0.959923 0.241088 0.930253 0.329792
C12   C     C_R   0.029536 0.241797 0.069190 0.343689
C13   C     C_3   0.901808 0.860045 0.563945 -0.026293
C14   C     C_3   0.117582 0.876877 0.440381 -0.026254
C15   C     C_3   0.372500 0.384718 0.551775 -0.034327
C16   C     C_3   0.627043 0.384293 0.447216 -0.034239
C17   C     C_3   0.885150 0.909622 0.544046 -0.266822
C18   C     C_3   0.138937 0.916149 0.492338 -0.252408
C19   C     C_3   0.353507 0.415973 0.490851 -0.260246
C20   C     C_3   0.646383 0.416046 0.508261 -0.260016
C21   C     C_3   0.904575 0.906278 0.499337 -0.050829
C22   C     C_3   0.093162 0.904845 0.498978 -0.077318
C23   C     C_3   0.407462 0.404661 0.501533 -0.055487
C24   C     C_3   0.592478 0.404785 0.497883 -0.054817
C25   C     C_3   0.921514 0.857408 0.519692 0.148154
C26   C     C_3   0.071616 0.866386 0.446737 0.126063
C27   C     C_3   0.426533 0.374202 0.562439 0.118034
C28   C     C_3   0.573096 0.373828 0.436877 0.117804
C29   C     C_3   0.863168 0.842345 0.456119 -0.234115
C30   C     C_3   0.110117 0.833768 0.506525 -0.205702
C31   C     C_3   0.398889 0.333936 0.512367 -0.226351
C32   C     C_3   0.600731 0.333919 0.486886 -0.227037
C33   C     C_3   0.846450 0.891796 0.436264 0.184095
C34   C     C_3   0.131709 0.872795 0.558597 0.179946
C35   C     C_3   0.379914 0.365035 0.451606 0.199878
C36   C     C_3   0.620077 0.365494 0.547782 0.199324
C37   C     C_3   0.826779 0.894562 0.480553 0.181370
C38   C     C_3   0.177478 0.883471 0.552171 0.193663
C39   C     C_3   0.325900 0.375711 0.440723 0.204195
C40   C     C_3   0.673960 0.376114 0.558261 0.201241
C41   C     C_3   0.843728 0.845540 0.500924 -0.135604
C42   C     C_3   0.156181 0.844986 0.500205 -0.132367
C43   C     C_3   0.344532 0.345136 0.501324 -0.128676
C44   C     C_3   0.654953 0.345078 0.497569 -0.127523
C45   C     C_R   0.682915 0.749800 0.365569 0.928984
C46   C     C_R   0.317681 0.749960 0.634858 0.909929
C47   C     C_R   0.182671 0.249852 0.365264 0.901571
C48   C     C_R   0.817127 0.250267 0.634769 0.905255
C49   C     C_R   0.841757 0.777382 0.746114 -0.180264
C50   C     C_R   0.158121 0.776524 0.254031 -0.188691
C51   C     C_R   0.344888 0.281766 0.745419 -0.171172
C52   C     C_R   0.654814 0.281140 0.254710 -0.171087
C53   C     C_R   0.876209 0.777691 0.818229 0.197050
C54   C     C_R   0.123195 0.776936 0.181927 0.193943
C55   C     C_R   0.379259 0.282898 0.817462 0.194446
C56   C     C_R   0.619887 0.282342 0.182685 0.194453
C57   C     C_R   0.923726 0.749941 0.854867 0.075087
C58   C     C_R   0.074403 0.750353 0.145152 0.072599
C59   C     C_R   0.423598 0.252087 0.854851 0.074547
C60   C     C_R   0.574666 0.252024 0.145158 0.074062
C61   C     C_R   0.935664 0.722962 0.818647 -0.196054
C62   C     C_R   0.061571 0.724580 0.181249 -0.193677
C63   C     C_R   0.431665 0.220519 0.819339 -0.192923
C64   C     C_R   0.566285 0.220842 0.180490 -0.192173
C65   C     C_R   0.900889 0.722781 0.747063 -0.188258
C66   C     C_R   0.096809 0.724315 0.252854 -0.162844
C67   C     C_R   0.397262 0.219893 0.747696 -0.185229
C68   C     C_R   0.601258 0.220147 0.252142 -0.184986
C69   C     C_R   0.853748 0.750006 0.710286 -0.065793
C70   C     C_R   0.145343 0.750216 0.289738 -0.064637
C71   C     C_R   0.353801 0.250617 0.710268 -0.067105
C72   C     C_R   0.645595 0.250412 0.289723 -0.067330
C73   C     C_R   0.035316 0.749678 0.069622 0.291275
C74   C     C_R   0.962695 0.749452 0.930402 0.291420
C75   C     C_R   0.535660 0.252047 0.069609 0.290300
C76   C     C_R   0.462165 0.252082 0.930427 0.290168
C77   C     C_3   0.593299 0.653678 0.451299 0.190753
C78   C     C_3   0.406357 0.652153 0.552467 0.187764
C79   C     C_3   0.093971 0.151631 0.448159 0.190878
C80   C     C_3   0.906299 0.152613 0.551417 0.191731
C81   C     C_3   0.592758 0.644290 0.512520 -0.202437
C82   C     C_3   0.410498 0.644717 0.493612 -0.201662
C83   C     C_3   0.089744 0.144763 0.506949 -0.200359
C84   C     C_3   0.909875 0.144701 0.492195 -0.201523
C85   C     C_3   0.594187 0.594237 0.499815 -0.029506
C86   C     C_3   0.406155 0.594298 0.500957 -0.036000
C87   C     C_3   0.094252 0.094285 0.499856 -0.034633
C88   C     C_3   0.906134 0.094368 0.500683 -0.031808
C89   C     C_R   0.689567 0.688745 0.499918 1.001070
C90   C     C_R   0.310380 0.688730 0.500052 0.990461
C91   C     C_R   0.189764 0.188741 0.500251 0.993077
C92   C     C_R   0.810248 0.188739 0.499738 0.999700
C93   C     C_3   0.593324 0.603217 0.437839 -0.184994
C94   C     C_3   0.403471 0.601324 0.560667 -0.173717
C95   C     C_3   0.097066 0.100739 0.440233 -0.179448
C96   C     C_3   0.903938 0.101855 0.560675 -0.183814
C97   C     C_3   0.657423 0.603233 0.487839 -0.058113
C98   C     C_3   0.339612 0.602856 0.507083 -0.047072
C99   C     C_3   0.160907 0.102835 0.493963 -0.048392
C100  C     C_3   0.839997 0.102971 0.507501 -0.044075
C101  C     C_3   0.657734 0.593328 0.549598 -0.247702
C102  C     C_3   0.342773 0.594861 0.447532 -0.253381
C103  C     C_3   0.157613 0.095416 0.553429 -0.252079
C104  C     C_3   0.842707 0.094552 0.447692 -0.249175
C105  C     C_3   0.656739 0.644017 0.561222 -0.037998
C106  C     C_3   0.346624 0.645817 0.441132 -0.037062
C107  C     C_3   0.153611 0.146445 0.559537 -0.038645
C108  C     C_3   0.845965 0.145458 0.440278 -0.039080
C109  C     C_3   0.657023 0.653828 0.500229 -0.126614
C110  C     C_3   0.342851 0.653734 0.499833 -0.127337
C111  C     C_3   0.157469 0.153779 0.500881 -0.126822
C112  C     C_3   0.842701 0.153803 0.499308 -0.127996
C113  C     C_R   0.439783 0.561109 0.500358 0.904298
C114  C     C_R   0.560379 0.561048 0.499919 0.903559
C115  C     C_R   0.939820 0.061151 0.500315 0.898951
C116  C     C_R   0.060363 0.061096 0.499918 0.901695
C117  C     C_R   0.938943 0.939423 0.499886 0.902194
C118  C     C_R   0.059893 0.938472 0.499658 0.902913
C119  C     C_R   0.440265 0.438347 0.500273 0.901051
C120  C     C_R   0.559759 0.438449 0.499492 0.900244
C121  C     C_R   0.816994 0.749995 0.634676 0.980190
C122  C     C_R   0.182702 0.750067 0.365330 0.949708
C123  C     C_R   0.317104 0.250162 0.634674 0.942138
C124  C     C_R   0.682760 0.250047 0.365322 0.943481
C125  C     C_R   0.636039 0.791943 0.255666 0.107259
C126  C     C_R   0.381227 0.791213 0.748353 0.094159
C127  C     C_R   0.120801 0.289334 0.251027 0.096239
C128  C     C_R   0.877089 0.289479 0.750731 0.102133
C129  C     C_R   0.599146 0.792925 0.182687 0.006108
C130  C     C_R   0.414550 0.791270 0.821142 0.018925
C131  C     C_R   0.082967 0.287414 0.178207 0.002054
C132  C     C_R   0.913033 0.286829 0.823475 0.008774
C133  C     C_R   0.576309 0.752315 0.145567 -0.056959
C134  C     C_R   0.424046 0.750800 0.856062 -0.058223
C135  C     C_R   0.069857 0.245653 0.144308 -0.051820
C136  C     C_R   0.925478 0.244785 0.855432 -0.053651
C137  C     C_R   0.590663 0.711708 0.180270 -0.207657
C138  C     C_R   0.401289 0.710832 0.819425 -0.206844
C139  C     C_R   0.094113 0.206570 0.181994 -0.211647
C140  C     C_R   0.904896 0.205729 0.816355 -0.213143
C141  C     C_R   0.624542 0.710203 0.251912 -0.086101
C142  C     C_R   0.368205 0.709797 0.747684 -0.077885
C143  C     C_R   0.129679 0.207316 0.253786 -0.078510
C144  C     C_R   0.870896 0.207120 0.744680 -0.078345
H1    H     H_    0.805403 0.798616 0.717831 0.169209
H2    H     H_    0.195503 0.796810 0.282401 0.172785
H3    H     H_    0.311020 0.305390 0.716656 0.170000
H4    H     H_    0.689353 0.304399 0.283571 0.170167
H5    H     H_    0.971945 0.701635 0.845940 0.165593
H6    H     H_    0.024293 0.704187 0.153841 0.164028
H7    H     H_    0.465361 0.196680 0.847213 0.163394
H8    H     H_    0.531929 0.197367 0.152486 0.164114
H9    H     H_    0.911112 0.701449 0.720587 0.176642
H10   H     H_    0.085927 0.703893 0.279264 0.171583
H11   H     H_    0.404720 0.195352 0.721682 0.171271
H12   H     H_    0.593521 0.195949 0.278036 0.171640
H13   H     H_    0.565394 0.660262 0.522419 0.146154
H14   H     H_    0.440417 0.661035 0.488380 0.145896
H15   H     H_    0.059724 0.161099 0.512017 0.146183
H16   H     H_    0.939392 0.160952 0.486194 0.146477
H17   H     H_    0.566409 0.586141 0.386901 0.177132
H18   H     H_    0.427781 0.582705 0.610033 0.177925
H19   H     H_    0.072910 0.081630 0.390953 0.174431
H20   H     H_    0.928660 0.083639 0.610395 0.172154
H21   H     H_    0.683446 0.567939 0.590235 0.172189
H22   H     H_    0.317331 0.570749 0.404177 0.174387
H23   H     H_    0.183048 0.071744 0.596916 0.174335
H24   H     H_    0.817298 0.070097 0.404841 0.170741
H25   H     H_    0.572471 0.680933 0.150842 0.190657
H26   H     H_    0.410584 0.679864 0.847443 0.187989
H27   H     H_    0.082695 0.174733 0.154953 0.186268
H28   H     H_    0.916117 0.173713 0.842341 0.186288
H29   H     H_    0.894577 0.937648 0.579642 0.192521
H30   H     H_    0.149946 0.950293 0.486664 0.216474
H31   H     H_    0.335592 0.449963 0.481861 0.199542
H32   H     H_    0.664408 0.450064 0.517204 0.195514
H33   H     H_    0.853753 0.814471 0.420315 0.166391
H34   H     H_    0.098628 0.799882 0.512442 0.173623
H35   H     H_    0.417336 0.300173 0.521314 0.173200
H36   H     H_    0.582222 0.300113 0.477984 0.172998
N1    N     N_R   0.538355 0.719072 0.033336 -0.144458
N2    N     N_R   0.501749 0.718204 0.964983 -0.146316
N3    N     N_R   0.040341 0.215539 0.033551 -0.141163
N4    N     N_R   0.005996 0.215179 0.965012 -0.141735
N5    N     N_R   0.456499 0.779991 0.968564 -0.134041
N6    N     N_R   0.493078 0.780844 0.036881 -0.136645
N7    N     N_R   0.947974 0.265875 0.965856 -0.137986
N8    N     N_R   0.982128 0.266067 0.034243 -0.141139
N9    N     N_R   0.018126 0.748145 0.963246 -0.164482
N10   N     N_R   0.979856 0.749831 0.036782 -0.165116
N11   N     N_R   0.480541 0.212919 0.965403 -0.164389
N12   N     N_R   0.517231 0.291110 0.034583 -0.161463
N13   N     N_R   0.053807 0.748275 0.031678 -0.159956
N14   N     N_R   0.944169 0.749750 0.968337 -0.160476
N15   N     N_R   0.516434 0.212902 0.033884 -0.164237
N16   N     N_R   0.481357 0.291127 0.966217 -0.161708
O1    O     O_R   0.822760 0.770240 0.499990 -0.615105
O2    O     O_R   0.177240 0.770240 0.500010 -0.625159
O3    O     O_R   0.322760 0.270240 0.499990 -0.639234
O4    O     O_R   0.677240 0.270240 0.500010 -0.639925
O5    O     O_R   0.482280 0.546460 0.557530 -0.622282
O6    O     O_R   0.517720 0.546460 0.442470 -0.621658
O7    O     O_R   0.982280 0.046460 0.557530 -0.625324
O8    O     O_R   0.017720 0.046460 0.442470 -0.624161
O9    O     O_R   0.924770 0.953450 0.442500 -0.630260
O10   O     O_R   0.075230 0.953450 0.557500 -0.623685
O11   O     O_R   0.424770 0.453450 0.442500 -0.628878
O12   O     O_R   0.575230 0.453450 0.557500 -0.628606
O13   O     O_R   0.982280 0.953430 0.557510 -0.611714
O14   O     O_R   0.017720 0.953430 0.442490 -0.620005
O15   O     O_R   0.482280 0.453430 0.557510 -0.617121
O16   O     O_R   0.517720 0.453430 0.442490 -0.616778
O17   O     O_R   0.770230 0.822760 0.499990 -0.629398
O18   O     O_R   0.229770 0.822760 0.500010 -0.625527
O19   O     O_R   0.270230 0.322760 0.499990 -0.593141
O20   O     O_R   0.729770 0.322760 0.500010 -0.595073
O21   O     O_R   0.725330 0.723740 0.398130 -0.603496
O22   O     O_R   0.274670 0.723740 0.601870 -0.599413
O23   O     O_R   0.225330 0.223740 0.398130 -0.599829
O24   O     O_R   0.774670 0.223740 0.601870 -0.601482
O25   O     O_R   0.672800 0.776260 0.398130 -0.621676
O26   O     O_R   0.327200 0.776260 0.601870 -0.629677
O27   O     O_R   0.172800 0.276260 0.398130 -0.624078
O28   O     O_R   0.827200 0.276260 0.601870 -0.625093
O29   O     O_R   0.729750 0.677220 0.500010 -0.559740
O30   O     O_R   0.270250 0.677220 0.499990 -0.557571
O31   O     O_R   0.229750 0.177220 0.500010 -0.556689
O32   O     O_R   0.770250 0.177220 0.499990 -0.556355
O33   O     O_R   0.677220 0.729740 0.500010 -0.614931
O34   O     O_R   0.322780 0.729740 0.499990 -0.611827
O35   O     O_R   0.177220 0.229740 0.500010 -0.612701
O36   O     O_R   0.822780 0.229740 0.499990 -0.613301
O37   O     O_R   0.827180 0.723730 0.601860 -0.615371
O38   O     O_R   0.172820 0.723730 0.398140 -0.623417
O39   O     O_R   0.327180 0.223730 0.601860 -0.632770
O40   O     O_R   0.672820 0.223730 0.398140 -0.633061
O41   O     O_R   0.774660 0.776250 0.601860 -0.615643
O42   O     O_R   0.225340 0.776250 0.398140 -0.609037
O43   O     O_R   0.274660 0.276250 0.601860 -0.591007
O44   O     O_R   0.725340 0.276250 0.398140 -0.591847
O45   O     O_R   0.424770 0.546480 0.442520 -0.613817
O46   O     O_R   0.575230 0.546480 0.557480 -0.613817
O47   O     O_R   0.924770 0.046480 0.442520 -0.615256
O48   O     O_R   0.075230 0.046480 0.557480 -0.613827
Zn1   Zn    Zn3+2 0.785070 0.714920 0.500000 1.047996
Zn2   Zn    Zn3+2 0.214930 0.714920 0.500000 1.042696
Zn3   Zn    Zn3+2 0.285070 0.214920 0.500000 1.034377
Zn4   Zn    Zn3+2 0.714930 0.214920 0.500000 1.033481
Zn5   Zn    Zn3+2 0.714920 0.785060 0.500000 0.989990
Zn6   Zn    Zn3+2 0.285080 0.785060 0.500000 0.995712
Zn7   Zn    Zn3+2 0.214920 0.285060 0.500000 1.016946
Zn8   Zn    Zn3+2 0.785080 0.285060 0.500000 1.014701
Zn9   Zn    Zn3+2 0.961630 0.999960 0.423200 0.986367
Zn10  Zn    Zn3+2 0.038370 0.999960 0.576800 1.002204
Zn11  Zn    Zn3+2 0.461630 0.499960 0.423200 0.992356
Zn12  Zn    Zn3+2 0.538370 0.499960 0.576800 0.993188
C145  C     C_3   0.667082 0.833852 0.297341 -0.833706
H37   H     H_    0.711478 0.826073 0.338691 0.206363
H38   H     H_    0.667400 0.860507 0.266438 0.244857
H39   H     H_    0.648236 0.847350 0.320798 0.265804
C146  C     C_3   0.374450 0.833990 0.710715 -0.816426
H40   H     H_    0.330112 0.839861 0.668381 0.237890
H41   H     H_    0.390018 0.864567 0.743054 0.251443
H42   H     H_    0.397554 0.830995 0.689431 0.254101
C147  C     C_3   0.137293 0.334965 0.285859 -0.823006
H43   H     H_    0.175470 0.334602 0.339470 0.238238
H44   H     H_    0.146300 0.358395 0.258908 0.238440
H45   H     H_    0.103131 0.348640 0.285124 0.276050
C148  C     C_3   0.863100 0.335582 0.718464 -0.866188
H46   H     H_    0.830863 0.336087 0.662281 0.249917
H47   H     H_    0.846516 0.356774 0.739093 0.273788
H48   H     H_    0.901102 0.351562 0.730762 0.251825
C149  C     C_3   0.773202 0.916619 0.458457 -0.789972
H49   H     H_    0.773011 0.952169 0.445475 0.262042
H50   H     H_    0.737075 0.899147 0.412490 0.233042
H51   H     H_    0.770160 0.915086 0.501124 0.255417
C150  C     C_3   0.237197 0.893997 0.612765 -0.859671
H52   H     H_    0.238954 0.926158 0.636819 0.256010
H53   H     H_    0.253308 0.867053 0.651492 0.239010
H54   H     H_    0.262646 0.896862 0.594736 0.252898
C151  C     C_3   0.269255 0.377940 0.370974 -0.902813
H55   H     H_    0.270833 0.401164 0.337120 0.259917
H56   H     H_    0.257033 0.344127 0.347024 0.240710
H57   H     H_    0.238865 0.390868 0.377795 0.250236
C152  C     C_3   0.731134 0.378028 0.627455 -0.895238
H58   H     H_    0.730908 0.401803 0.662093 0.261423
H59   H     H_    0.742632 0.344247 0.650893 0.242332
H60   H     H_    0.761459 0.389863 0.619881 0.248251
C153  C     C_3   0.862544 0.808866 0.854304 -0.861426
H61   H     H_    0.850433 0.789251 0.881415 0.259249
H62   H     H_    0.899024 0.830299 0.891806 0.250661
H63   H     H_    0.827366 0.831290 0.817428 0.237596
C154  C     C_3   0.137839 0.806976 0.146057 -0.856468
H64   H     H_    0.102209 0.828985 0.109107 0.250548
H65   H     H_    0.173994 0.828837 0.183136 0.239275
H66   H     H_    0.148896 0.786482 0.118366 0.259207
C155  C     C_3   0.366639 0.316031 0.852600 -0.864832
H67   H     H_    0.363836 0.298513 0.890106 0.250222
H68   H     H_    0.399527 0.342084 0.879513 0.261154
H69   H     H_    0.326496 0.333284 0.815126 0.237358
C156  C     C_3   0.632833 0.315007 0.147667 -0.865028
H70   H     H_    0.634791 0.297167 0.109477 0.249753
H71   H     H_    0.600562 0.341359 0.121563 0.261446
H72   H     H_    0.673451 0.331939 0.185112 0.237381
C157  C     C_3   0.555620 0.687785 0.395599 -0.834338
H73   H     H_    0.511607 0.678086 0.368507 0.243851
H74   H     H_    0.562913 0.721363 0.419319 0.249431
H75   H     H_    0.564089 0.689094 0.357806 0.269008
C158  C     C_3   0.442811 0.684524 0.612336 -0.839601
H76   H     H_    0.486874 0.674211 0.642424 0.246177
H77   H     H_    0.438189 0.718837 0.592404 0.247830
H78   H     H_    0.430454 0.684367 0.646370 0.266157
C159  C     C_3   0.057237 0.183416 0.388220 -0.837755
H79   H     H_    0.013220 0.172812 0.358511 0.245506
H80   H     H_    0.061903 0.217923 0.408066 0.248988
H81   H     H_    0.069210 0.182948 0.353812 0.266870
C160  C     C_3   0.943333 0.185528 0.610275 -0.831804
H82   H     H_    0.987378 0.175463 0.639215 0.244860
H83   H     H_    0.937906 0.219640 0.589363 0.248175
H84   H     H_    0.932444 0.185791 0.645756 0.269581
C161  C     C_2   0.690602 0.574703 0.474545 0.914448
O49   O     O_2   0.680782 0.534579 0.464433 -0.615046
O50   O     O_R   0.732267 0.593243 0.473967 -0.769806
H85   H     H_    0.751069 0.570187 0.464254 0.348252
C162  C     C_2   0.302964 0.574021 0.514118 0.918455
O51   O     O_2   0.311933 0.533828 0.523092 -0.623295
O52   O     O_R   0.258864 0.592305 0.509782 -0.774573
H86   H     H_    0.237764 0.569033 0.515412 0.345796
C163  C     C_2   0.197904 0.073970 0.487523 0.916052
O53   O     O_2   0.188525 0.033795 0.477559 -0.629853
O54   O     O_R   0.242907 0.092183 0.493776 -0.773927
H87   H     H_    0.264194 0.068888 0.488438 0.346557
C164  C     C_2   0.803539 0.074063 0.514772 0.903581
O55   O     O_2   0.814001 0.034206 0.526621 -0.647621
O56   O     O_R   0.757764 0.091870 0.507049 -0.771937
H88   H     H_    0.736916 0.068604 0.513110 0.344536
C165  C     C_2   0.585200 0.835826 0.145036 0.911367
O57   O     O_2   0.568595 0.867546 0.159377 -0.604056
O58   O     O_R   0.590367 0.839610 0.092529 -0.766688
H89   H     H_    0.579060 0.870195 0.070194 0.364639
C166  C     C_2   0.441971 0.832988 0.861294 0.915352
O59   O     O_2   0.492532 0.836434 0.897919 -0.590446
O60   O     O_R   0.409882 0.867808 0.858077 -0.791189
H90   H     H_    0.433261 0.894322 0.888028 0.354339
C167  C     C_2   0.059666 0.329290 0.137229 0.918252
O61   O     O_2   0.035762 0.356117 0.148428 -0.607487
O62   O     O_R   0.064858 0.337678 0.085500 -0.763020
H91   H     H_    0.046908 0.366884 0.060732 0.363276
C168  C     C_2   0.939752 0.327746 0.866705 0.926388
O63   O     O_2   0.990316 0.331460 0.904312 -0.589954
O64   O     O_R   0.907360 0.361153 0.865977 -0.796658
H92   H     H_    0.930506 0.386969 0.898183 0.353760
C169  C     C_2   0.691525 0.665495 0.631212 0.915005
O65   O     O_2   0.685799 0.653789 0.674079 -0.603924
O66   O     O_R   0.730242 0.698524 0.647344 -0.828122
H93   H     H_    0.751015 0.710287 0.696177 0.344752
C170  C     C_2   0.315272 0.669272 0.373152 0.916672
O67   O     O_2   0.324019 0.659391 0.332307 -0.606620
O68   O     O_R   0.276152 0.701941 0.356477 -0.820947
H94   H     H_    0.257798 0.715119 0.309117 0.344168
C171  C     C_2   0.184871 0.170641 0.627358 0.916604
O69   O     O_2   0.176122 0.161225 0.668242 -0.605627
O70   O     O_R   0.223926 0.203465 0.643841 -0.820713
H95   H     H_    0.242289 0.217154 0.691128 0.345581
C172  C     C_2   0.813886 0.168493 0.371916 0.916241
O71   O     O_2   0.822091 0.158367 0.330640 -0.606284
O72   O     O_R   0.774701 0.201062 0.355399 -0.822091
H96   H     H_    0.755758 0.213951 0.307735 0.345386
C173  C     C_2   0.633630 0.665884 0.284501 0.938952
O73   O     O_2   0.636028 0.632169 0.257988 -0.596904
O74   O     O_R   0.637179 0.662198 0.343653 -0.829656
H97   H     H_    0.640228 0.629990 0.358166 0.352650
C174  C     C_2   0.350367 0.665232 0.713321 0.947836
O75   O     O_2   0.336369 0.635994 0.734553 -0.603808
O76   O     O_R   0.351953 0.655953 0.658773 -0.820300
H98   H     H_    0.340566 0.624045 0.641335 0.359771
C175  C     C_2   0.147950 0.163477 0.289450 0.943673
O77   O     O_2   0.160817 0.133322 0.267933 -0.600000
O78   O     O_R   0.148017 0.155874 0.345522 -0.823603
H99   H     H_    0.159390 0.124238 0.363602 0.357766
C176  C     C_2   0.854275 0.163555 0.707545 0.945756
O79   O     O_2   0.842156 0.132054 0.727675 -0.607097
O80   O     O_R   0.854865 0.157798 0.651639 -0.826936
H100  H     H_    0.845261 0.126056 0.633096 0.352847
C177  C     C_2   0.933849 0.843097 0.636259 0.925182
O81   O     O_2   0.979690 0.858762 0.681183 -0.605612
O82   O     O_R   0.911397 0.809726 0.652115 -0.826732
H101  H     H_    0.937097 0.801267 0.702626 0.345353
C178  C     C_2   0.110442 0.877602 0.374410 0.932486
O83   O     O_2   0.120531 0.911781 0.356803 -0.592646
O84   O     O_R   0.092471 0.838983 0.333592 -0.821456
H102  H     H_    0.089617 0.843334 0.290639 0.347123
C179  C     C_2   0.370055 0.396711 0.609196 0.943262
O85   O     O_2   0.391115 0.431715 0.641022 -0.590866
O86   O     O_R   0.344686 0.367789 0.626836 -0.807700
H103  H     H_    0.346233 0.379505 0.666758 0.343216
C180  C     C_2   0.629368 0.395644 0.389652 0.942804
O87   O     O_2   0.608187 0.430297 0.357592 -0.585541
O88   O     O_R   0.654817 0.366528 0.372196 -0.808979
H104  H     H_    0.653191 0.377792 0.332158 0.343583
C181  C     C_3   0.975820 0.836933 0.541900 -0.879500
H105  H     H_    0.976114 0.800652 0.551526 0.252564
H106  H     H_    0.980366 0.841607 0.500865 0.225611
H107  H     H_    0.010947 0.853554 0.589916 0.261230
C182  C     C_3   0.011154 0.856828 0.386749 -0.827100
H108  H     H_    0.008298 0.825749 0.359821 0.260362
H109  H     H_    0.986854 0.852514 0.406160 0.225028
H110  H     H_    0.993801 0.885088 0.349937 0.254615
C183  C     C_3   0.484068 0.372557 0.631817 -0.826282
H111  H     H_    0.485189 0.345851 0.663861 0.236041
H112  H     H_    0.515430 0.365256 0.623910 0.234019
H113  H     H_    0.493893 0.405157 0.658924 0.271467
C184  C     C_3   0.515442 0.371792 0.367656 -0.826370
H114  H     H_    0.514060 0.344840 0.335411 0.236367
H115  H     H_    0.484190 0.364638 0.375779 0.233960
H116  H     H_    0.505678 0.404211 0.340654 0.271660
C185  C     C_3   0.813972 0.909341 0.363009 -0.840839
H117  H     H_    0.772760 0.892673 0.329825 0.236141
H118  H     H_    0.808073 0.946012 0.362764 0.250327
H119  H     H_    0.836901 0.902057 0.342341 0.251594
C186  C     C_3   0.140476 0.869493 0.626447 -0.831211
H120  H     H_    0.169227 0.841537 0.657271 0.241225
H121  H     H_    0.158712 0.901147 0.656128 0.260991
H122  H     H_    0.100208 0.863110 0.616087 0.238564
C187  C     C_3   0.384941 0.353461 0.395313 -0.879347
H123  H     H_    0.361327 0.322293 0.368528 0.250143
H124  H     H_    0.367933 0.381056 0.357410 0.259685
H125  H     H_    0.429271 0.348309 0.418660 0.225555
C188  C     C_3   0.615464 0.354413 0.604435 -0.876302
H126  H     H_    0.638853 0.323316 0.630859 0.249257
H127  H     H_    0.632980 0.382208 0.642563 0.260519
H128  H     H_    0.571179 0.349355 0.581509 0.225317

loop_
_geom_bond_atom_site_label_1
_geom_bond_atom_site_label_2
_ccdc_geom_bond_type
C99   C103  S    
C100  C164  S    
C74   N14   A    
C133  C137  A    
C170  O67   D    
C55   C59   A    
C163  O54   S    
C187  H123  S    
C33   C185  S    
C136  C140  A    
C13   C25   S    
O4    Zn4   S    
C165  O57   D    
C164  O55   D    
C99   C163  S    
C151  H57   S    
C135  C139  A    
C64   H8    S    
C46   O22   A    
C85   C114  S    
C118  O10   A    
O21   Zn1   S    
C180  O88   S    
C20   C40   S    
C95   C99   S    
C21   C33   S    
C92   O36   A    
C3    O19   A    
C29   C33   S    
C100  C104  S    
C149  H51   S    
C21   C117  S    
C9    N2    A    
C88   C104  S    
C12   C135  S    
C115  O7    A    
C10   C133  S    
C139  H27   S    
O36   Zn8   S    
C14   C178  S    
C113  O5    A    
O29   Zn1   S    
C127  C147  S    
C16   C44   S    
C131  C167  S    
C166  O60   S    
O24   Zn4   S    
C184  H115  S    
C49   C69   A    
C72   C124  S    
O19   Zn7   S    
C130  C134  A    
C51   C71   A    
C28   C184  S    
C169  O66   S    
C17   H29   S    
C25   C29   S    
C24   C120  S    
C27   C31   S    
O50   H85   S    
C120  O12   A    
C28   C32   S    
C62   C66   A    
C98   C102  S    
C17   C21   S    
C27   C183  S    
C160  H84   S    
C19   C23   S    
N3    N4    A    
C52   C72   A    
C95   H19   S    
C78   C82   S    
C15   C27   S    
O66   H93   S    
C93   H17   S    
C56   C156  S    
C16   C20   S    
C78   C158  S    
C80   C112  S    
C50   C54   A    
C14   C26   S    
C53   C153  S    
C87   C103  S    
C1    C41   S    
C122  O38   A    
C2    O18   A    
C148  H47   S    
C178  O83   D    
C187  H125  S    
O26   Zn6   S    
O80   H100  S    
C156  H72   S    
C22   C118  S    
C88   C115  S    
C47   O27   A    
C62   H6    S    
C90   O30   A    
C84   C88   S    
O47   Zn9   S    
O76   H98   S    
C57   C61   A    
C179  O85   D    
C59   C63   A    
C46   O26   A    
C60   C64   A    
C50   C70   A    
C152  H59   S    
C11   C136  S    
O37   Zn1   S    
C66   C70   A    
C78   C94   S    
C35   C187  S    
O1    Zn1   S    
C186  H121  S    
C51   C55   A    
C18   C38   S    
C127  C131  A    
O56   H88   S    
C124  O40   A    
C155  H67   S    
C125  C129  A    
N7    N8    A    
C161  O49   D    
O68   H94   S    
C94   C98   S    
C32   H36   S    
C103  C107  S    
C15   C179  S    
C183  H111  S    
C182  H108  S    
C61   H5    S    
O33   Zn5   S    
C177  O82   S    
C120  O16   A    
C116  O48   A    
C103  H23   S    
C186  H120  S    
C4    O20   A    
O40   Zn4   S    
O64   H92   S    
O15   Zn12  S    
O35   Zn7   S    
C7    C143  A    
C181  H105  S    
N5    N6    A    
C188  H126  S    
C24   C36   S    
C31   C43   S    
C64   C68   A    
C71   C123  S    
C23   C119  S    
C146  H40   S    
C82   H14   S    
C49   C53   A    
C159  H80   S    
C12   N3    A    
O88   H104  S    
C145  H37   S    
C162  O52   S    
C65   H9    S    
C85   C93   S    
C8    C128  A    
C157  H74   S    
C87   C95   S    
O17   Zn5   S    
C69   C121  S    
C80   C160  S    
C4    O4    A    
C73   N10   A    
C52   H4    S    
C150  H52   S    
O42   Zn6   S    
C155  H68   S    
C185  H118  S    
C123  O43   A    
C158  H77   S    
C22   C34   S    
C81   C105  S    
C30   C34   S    
C130  C166  S    
C8    C144  A    
C182  H110  S    
C25   C181  S    
C48   O28   A    
C96   H20   S    
C126  C146  S    
C91   O35   A    
O14   Zn9   S    
C154  H64   S    
C61   C65   A    
C97   C109  S    
C144  C176  S    
C70   C122  S    
C38   C150  S    
C132  C136  A    
C99   C111  S    
C153  H61   S    
C30   H34   S    
C183  H113  S    
C77   C109  S    
C147  H44   S    
C18   H30   S    
C114  O46   A    
C26   C30   S    
C186  H122  S    
C167  O62   S    
C86   C102  S    
C93   C97   S    
C181  H107  S    
O9    Zn9   S    
C176  O80   S    
C188  H128  S    
C21   C25   S    
C29   C41   S    
C18   C22   S    
C107  C111  S    
C1    O1    A    
C11   N4    A    
C24   C28   S    
C146  H42   S    
O32   Zn4   S    
C151  H56   S    
O5    Zn12  S    
C119  O15   A    
C13   C17   S    
C145  H39   S    
C45   O25   A    
O16   Zn11  S    
C117  O13   A    
C15   C43   S    
C36   C188  S    
C180  O87   D    
C20   H32   S    
C2    C42   S    
C96   C100  S    
C149  H50   S    
C82   C106  S    
C37   C41   S    
N11   N15   A    
C175  O78   S    
O28   Zn8   S    
O31   Zn3   S    
N9    N13   A    
C40   C44   S    
C150  H54   S    
C5    C125  A    
C90   O34   A    
C29   H33   S    
C7    C127  A    
C59   C76   S    
C81   C85   S    
C173  O74   S    
C58   C62   A    
C83   C87   S    
C88   C96   S    
C184  H114  S    
C98   C110  S    
C73   N13   A    
C106  C170  S    
C80   C84   S    
C13   C41   S    
C169  O65   D    
C84   H16   S    
O78   H99   S    
N1    N2    A    
C15   C19   S    
C171  O70   S    
C168  O63   D    
C86   C113  S    
N12   N16   A    
C154  H66   S    
C117  O9    A    
C174  O76   S    
C54   C58   A    
C124  O44   A    
C126  C130  A    
O74   H97   S    
C40   C152  S    
C153  H63   S    
C45   O21   A    
C67   H11   S    
C128  C148  S    
C160  H83   S    
C105  C109  S    
C76   N16   A    
C116  O8    A    
C55   C155  S    
C26   C182  S    
C77   C157  S    
O70   H95   S    
C114  O6    A    
O45   Zn11  S    
C6    C142  A    
C50   H2    S    
C164  O56   S    
C170  O68   S    
C2    O2    A    
C148  H46   S    
C187  H124  S    
C165  O58   S    
O30   Zn2   S    
C156  H71   S    
C81   H13   S    
C129  C165  S    
C6    C126  A    
C138  C142  A    
O62   H91   S    
C66   H10   S    
C53   C57   A    
C92   C112  S    
C4    C44   S    
C82   C86   S    
C5    C45   S    
C33   C37   S    
C56   C60   A    
C31   H35   S    
C7    C47   S    
C183  H112  S    
C35   C39   S    
O54   H87   S    
C8    C48   S    
C79   C95   S    
C152  H58   S    
O13   Zn10  S    
C74   N9    A    
O58   H89   S    
C77   C81   S    
C49   H1    S    
C101  H21   S    
C63   H7    S    
C87   C116  S    
C123  O39   A    
C140  H28   S    
O25   Zn5   S    
C100  C112  S    
C184  H116  S    
C121  O37   A    
C1    O17   A    
C31   C35   S    
C32   C36   S    
C104  C108  S    
C108  C172  S    
C177  O81   D    
C48   O24   A    
O27   Zn7   S    
C137  C141  A    
O82   H101  S    
C13   C177  S    
C91   O31   A    
C156  H70   S    
C140  C144  A    
C89   O29   A    
C172  O71   D    
O86   H103  S    
C34   C186  S    
C60   C75   S    
C131  C135  A    
C142  C174  S    
C172  O72   S    
O52   H86   S    
O38   Zn2   S    
C79   C83   S    
O8    Zn9   S    
C159  H79   S    
O2    Zn2   S    
C65   C69   A    
C77   C93   S    
C84   C108  S    
C67   C71   A    
C162  O51   D    
C108  C112  S    
C92   O32   A    
C157  H73   S    
C22   C26   S    
C148  H48   S    
C178  O84   S    
C10   N1    A    
C30   C42   S    
C79   C159  S    
C132  C168  S    
C75   N15   A    
C16   C28   S    
O60   H90   S    
C89   C109  S    
C138  H26   S    
O46   Zn12  S    
C163  O53   D    
C14   C18   S    
O72   H96   S    
C185  H117  S    
O84   H102  S    
C122  O42   A    
C158  H76   S    
C179  O86   S    
C3    C43   S    
C11   N7    A    
O22   Zn2   S    
C38   C42   S    
C152  H60   S    
C9    N5    A    
C182  H109  S    
C12   N8    A    
C125  C145  S    
O48   Zn10  S    
C91   C111  S    
O11   Zn11  S    
C86   C94   S    
C10   N6    A    
C141  C173  S    
O6    Zn11  S    
C105  C169  S    
C161  O50   S    
O18   Zn6   S    
C3    O3    A    
C23   C27   S    
C80   C96   S    
C147  H43   S    
C94   H18   S    
C137  H25   S    
C68   C72   A    
C14   C42   S    
O7    Zn10  S    
C37   C149  S    
C9    C134  S    
C16   C180  S    
C168  O64   S    
O41   Zn5   S    
C139  C143  A    
C128  C132  A    
O39   Zn3   S    
C181  H106  S    
C19   H31   S    
C188  H127  S    
C101  C105  S    
C63   C67   A    
O43   Zn7   S    
C20   C24   S    
C36   C40   S    
C97   C161  S    
C146  H41   S    
N10   N14   A    
C159  H81   S    
C39   C43   S    
C98   C162  S    
C151  H55   S    
C47   O23   A    
C145  H38   S    
C57   C74   S    
C104  H24   S    
C5    C141  A    
C51   H3    S    
O20   Zn8   S    
C157  H75   S    
C149  H49   S    
C32   C44   S    
C78   C110  S    
C17   C37   S    
C175  O77   D    
C19   C39   S    
C115  O47   A    
C113  O45   A    
C150  H53   S    
C155  H69   S    
C129  C133  A    
C119  O11   A    
C90   C110  S    
O10   Zn10  S    
C185  H119  S    
C85   C101  S    
C173  O73   D    
C106  C110  S    
C158  H78   S    
C6    C46   S    
C34   C38   S    
C68   H12   S    
C134  C138  A    
O44   Zn8   S    
O3    Zn3   S    
C143  C175  S    
C171  O69   D    
C23   C35   S    
C79   C111  S    
C118  O14   A    
C75   N12   A    
C154  H65   S    
C76   N11   A    
C174  O75   D    
C176  O79   D    
C39   C151  S    
C121  O41   A    
C153  H62   S    
C83   C107  S    
C102  C106  S    
O23   Zn3   S    
C160  H82   S    
C147  H45   S    
C107  C171  S    
C54   C154  S    
C83   H15   S    
C102  H22   S    
C166  O59   D    
O12   Zn12  S    
C89   O33   A    
C167  O61   D    
O34   Zn6   S    
C97   C101  S    
C52   C56   A    
C58   C73   S    
