data_mof_unit_49624.cif
_audit_creation_date              2012-12-11T15:44:53-0500
_audit_creation_method            fapswitch 2.2
_symmetry_space_group_name_H-M    P1
_symmetry_Int_Tables_number       1
_space_group_crystal_system       triclinic
_cell_length_a                    6.932188
_cell_length_b                    16.817876
_cell_length_c                    16.997132
_cell_angle_alpha                 100.264495
_cell_angle_beta                  89.877871
_cell_angle_gamma                 90.267801
_cell_volume                      1949.86786264

loop_
_atom_site_label
_atom_site_type_symbol
_atom_type_description
_atom_site_fract_x
_atom_site_fract_y
_atom_site_fract_z
_atom_type_partial_charge
O1    O     O_R   0.494370 0.415690 0.413450 -0.543410
O2    O     O_R   0.819420 0.429360 0.578420 -0.544717
O3    O     O_R   0.994280 0.584310 0.586550 -0.504344
C1    C     C_R   0.652574 0.415566 0.606966 0.772123
O4    O     O_R   0.823790 0.406230 0.413570 -0.545755
O5    O     O_R   0.998670 0.561000 0.420530 -0.539976
C2    C     C_R   0.654758 0.382991 0.384989 0.677590
O6    O     O_R   0.489970 0.439000 0.579470 -0.545474
O7    O     O_3   0.662300 0.550810 0.502470 -0.356011
V1    V     V_3+5 0.935380 0.490570 0.499540 1.427288
O8    O     O_R   0.328650 0.570640 0.421580 -0.541416
C3    C     C_R   0.161019 0.587314 0.395698 0.716949
O9    O     O_R   0.324290 0.593770 0.586430 -0.544984
C4    C     C_R   0.154823 0.618425 0.613655 0.707907
V2    V     V_3+5 0.435930 0.509430 0.500460 1.407520
O10   O     O_3   0.159140 0.449190 0.497530 -0.383964
C5    C     C_R   0.305105 0.710528 0.730211 -0.235502
C6    C     C_R   0.294214 0.773280 0.796328 -0.151777
H1    H     H_    0.422226 0.788902 0.832283 0.137227
C7    C     C_R   0.120239 0.814787 0.816222 -0.101600
C8    C     C_R   0.958255 0.792931 0.767596 -0.253886
H2    H     H_    0.823118 0.824591 0.781103 0.122232
C9    C     C_R   0.969783 0.732072 0.699235 0.446334
C10   C     C_R   0.143085 0.688095 0.681457 -0.147956
C11   C     C_R   0.162221 0.639243 0.333556 -0.133705
C12   C     C_R   0.104537 0.864297 0.169302 -0.115748
C13   C     C_R   0.961771 0.834857 0.293480 0.414006
C14   C     C_R   0.973121 0.882234 0.232721 -0.276979
C15   C     C_R   0.223465 0.796611 0.165103 -0.215631
C16   C     C_R   0.205283 0.744751 0.221682 -0.004560
C17   C     C_R   0.070995 0.763095 0.285642 0.019734
C18   C     C_R   0.050250 0.709649 0.340907 -0.224549
C19   C     C_R   0.294554 0.622245 0.270286 -0.233079
C20   C     C_R   0.317773 0.674221 0.214879 0.426061
C21   C     C_R   0.657674 0.364881 0.670697 -0.218935
C22   C     C_R   0.613471 0.132805 0.827858 -0.232659
C23   C     C_R   0.469058 0.165368 0.705947 0.364383
C24   C     C_R   0.485316 0.113662 0.762363 0.344293
C25   C     C_R   0.725342 0.203182 0.834843 -0.263848
C26   C     C_R   0.714244 0.254848 0.777738 -0.053728
C27   C     C_R   0.578234 0.237568 0.714734 -0.058169
C28   C     C_R   0.549979 0.293297 0.662605 -0.296607
C29   C     C_R   0.795835 0.381769 0.732854 0.345773
C30   C     C_R   0.827896 0.326110 0.785156 0.380101
C31   C     C_R   0.811636 0.275741 0.282887 -0.157250
C32   C     C_R   0.800616 0.211930 0.217730 -0.155406
C33   C     C_R   0.621154 0.185099 0.184141 -0.044948
C34   C     C_R   0.452988 0.223720 0.217670 -0.155718
C35   C     C_R   0.464007 0.287525 0.282833 -0.152887
H3    H     H_    0.331333 0.315849 0.306829 0.118194
C36   C     C_R   0.643496 0.314467 0.316316 -0.044266
O11   O     O_R   0.774880 0.061150 0.920630 -0.537709
O12   O     O_R   0.440980 0.093710 0.086500 -0.545199
O13   O     O_R   0.266190 0.938890 0.079390 -0.540606
C37   C     C_R   0.609967 0.116817 0.115230 0.680176
O14   O     O_R   0.445420 0.070740 0.921670 -0.520942
O15   O     O_R   0.270660 0.915760 0.913380 -0.540923
C38   C     C_R   0.612842 0.084820 0.893526 0.744285
O16   O     O_R   0.770400 0.084270 0.086640 -0.543471
O17   O     O_3   0.602590 0.949210 0.997500 -0.374456
V3    V     V_3+5 0.329470 0.009420 0.000470 1.431843
O18   O     O_R   0.940650 0.906250 0.913470 -0.546397
C39   C     C_R   0.109768 0.882891 0.885159 0.728596
O19   O     O_R   0.936210 0.929220 0.078300 -0.538822
C40   C     C_R   0.103866 0.913702 0.105121 0.717936
V4    V     V_3+5 0.828930 0.990510 0.999490 1.405920
O20   O     O_3   0.105680 0.050790 0.002500 -0.366118
H4    H     H_    0.440355 0.678738 0.717915 0.188734
H5    H     H_    0.323815 0.782665 0.115647 0.164897
H6    H     H_    0.446218 0.280768 0.614383 0.171831
O21   O     O_3   0.876109 0.458607 0.749999 -0.548095
C41   C     C_3   0.074502 0.457634 0.730107 0.161820
H7    H     H_    0.092752 0.475054 0.670824 0.141115
H8    H     H_    0.145446 0.398175 0.726427 0.094887
C42   C     C_3   0.179922 0.519552 0.791404 -0.682028
H9    H     H_    0.165226 0.503764 0.851797 0.248831
H10   H     H_    0.335222 0.521243 0.775517 0.174894
H11   H     H_    0.116735 0.580293 0.793016 0.223027
O22   O     O_3   0.333241 0.147607 0.645749 -0.542917
C43   C     C_3   0.425356 0.106259 0.576219 0.117507
H12   H     H_    0.499597 0.051158 0.587988 0.118578
H13   H     H_    0.533174 0.145683 0.553155 0.107670
C44   C     C_3   0.275080 0.080540 0.511565 -0.736393
H14   H     H_    0.200924 0.134490 0.497010 0.218619
H15   H     H_    0.345792 0.047523 0.456728 0.174097
H16   H     H_    0.166818 0.040174 0.532570 0.228425
O23   O     O_3   0.957873 0.346705 0.847654 -0.545191
C45   C     C_3   0.124316 0.297073 0.834640 0.087515
H17   H     H_    0.167385 0.282049 0.770570 0.123007
H18   H     H_    0.101286 0.239205 0.855780 0.139727
C46   C     C_3   0.292040 0.339651 0.882657 -0.681393
H19   H     H_    0.242668 0.368710 0.943130 0.237017
H20   H     H_    0.405110 0.295195 0.889856 0.189365
H21   H     H_    0.356195 0.385953 0.851415 0.214216
O24   O     O_3   0.359629 0.048665 0.756288 -0.536160
C47   C     C_3   0.458621 0.975562 0.728895 0.122320
H22   H     H_    0.495238 0.946778 0.780877 0.121729
H23   H     H_    0.594743 0.983046 0.695611 0.069453
C48   C     C_3   0.325956 0.918821 0.673477 -0.714312
H24   H     H_    0.304657 0.941236 0.616609 0.211253
H25   H     H_    0.389961 0.857666 0.659906 0.185769
H26   H     H_    0.183134 0.914864 0.702101 0.225849
H27   H     H_    0.808810 0.220298 0.888849 0.167224
H28   H     H_    0.952297 0.294722 0.306959 0.115941
H29   H     H_    0.933286 0.183584 0.193756 0.117355
H30   H     H_    0.312326 0.204725 0.193610 0.116445
O25   O     O_3   0.809710 0.714619 0.650641 -0.546547
C49   C     C_3   0.789491 0.775652 0.603893 0.057504
H31   H     H_    0.926509 0.785224 0.572209 0.103468
H32   H     H_    0.745474 0.833577 0.641955 0.107898
C50   C     C_3   0.634140 0.750794 0.541090 -0.632191
H33   H     H_    0.500519 0.732686 0.569410 0.214430
H34   H     H_    0.599877 0.801918 0.510558 0.176158
H35   H     H_    0.685712 0.699792 0.495533 0.224369
H36   H     H_    0.951186 0.723497 0.390803 0.162104
H37   H     H_    0.381204 0.567978 0.263766 0.129121
O26   O     O_3   0.837118 0.854769 0.358276 -0.562798
C51   C     C_3   0.857425 0.937248 0.393748 0.107102
H38   H     H_    0.769501 0.975561 0.360736 0.121611
H39   H     H_    0.011027 0.957688 0.395462 0.116764
C52   C     C_3   0.783980 0.950067 0.479348 -0.764711
H40   H     H_    0.867201 0.912317 0.514432 0.218009
H41   H     H_    0.802171 0.014518 0.507369 0.174320
H42   H     H_    0.628490 0.934153 0.480179 0.221435
O27   O     O_3   0.440243 0.652571 0.150391 -0.557388
C53   C     C_3   0.631280 0.672404 0.175226 0.074791
H43   H     H_    0.679230 0.635591 0.219896 0.128683
H44   H     H_    0.644934 0.737849 0.201408 0.136607
C54   C     C_3   0.763960 0.654550 0.102915 -0.659398
H45   H     H_    0.724611 0.692986 0.058660 0.216066
H46   H     H_    0.915709 0.667310 0.121525 0.188450
H47   H     H_    0.751253 0.589945 0.074530 0.233502
H48   H     H_    0.879142 0.933764 0.234739 0.115625

loop_
_geom_bond_atom_site_label_1
_geom_bond_atom_site_label_2
_ccdc_geom_bond_type
O23   C45   S    
C47   C48   S    
C53   H43   S    
C37   O16   A    
C27   C28   A    
O24   C47   S    
C1    O6    A    
O13   C40   A    
C31   C32   A    
C23   O22   S    
O18   C39   A    
C19   H37   S    
C22   C38   S    
C43   C44   S    
O16   V4    S    
O5    C3    A    
C16   C17   A    
C31   C36   A    
V2    O10   S    
C32   H29   S    
C28   H6    S    
C49   H31   S    
C6    H1    S    
C4    C10   S    
C21   C28   A    
C51   H38   S    
C52   H42   S    
O8    V2    S    
C34   H30   S    
C44   H14   S    
O14   C38   A    
C35   C36   A    
C47   H23   S    
C24   O24   S    
C29   O21   S    
O25   C49   S    
O1    V2    S    
C30   O23   S    
C21   C29   A    
O7    V1    S    
C54   H47   S    
C11   C18   A    
C13   O26   S    
V4    O20   S    
C1    C21   S    
O17   V4    S    
O9    C4    A    
O12   V3    S    
C41   C42   S    
O15   C39   A    
C15   H5    S    
O12   C37   A    
C5    C10   A    
O18   V4    S    
C13   C17   A    
C14   H48   S    
C19   C20   A    
C43   H13   S    
C46   H19   S    
O4    C2    A    
C16   C20   A    
C41   H7    S    
C53   C54   S    
C22   C25   A    
O17   V3    S    
C51   C52   S    
O19   V4    S    
O2    C1    A    
C42   H9    S    
C23   C24   A    
C31   H28   S    
C46   H20   S    
V3    O20   S    
C33   C34   A    
C45   C46   S    
C9    C10   A    
C9    O25   S    
C47   H22   S    
C48   H26   S    
C5    C6    A    
C50   H34   S    
C7    C8    A    
C25   H27   S    
C42   H10   S    
C52   H40   S    
O3    C4    A    
O11   C38   A    
C41   H8    S    
C34   C35   A    
C48   H25   S    
C45   H18   S    
O6    V2    S    
C8    C9    A    
C29   C30   A    
O27   C53   S    
O2    V1    S    
C25   C26   A    
O11   V4    S    
C33   C37   S    
C54   H45   S    
C32   C33   A    
C26   C27   A    
C5    H4    S    
C53   H44   S    
C50   H33   S    
C44   H15   S    
O1    C2    A    
C12   C40   S    
C17   C18   A    
C43   H12   S    
O5    V1    S    
O8    C3    A    
C49   C50   S    
O15   V3    S    
O13   V3    S    
C12   C14   A    
C48   H24   S    
C3    C11   S    
O19   C40   A    
C7    C39   S    
O9    V2    S    
O7    V2    S    
C2    C36   S    
O4    V1    S    
O3    V1    S    
V1    O10   S    
O26   C51   S    
C46   H21   S    
C20   O27   S    
C22   C24   A    
C49   H32   S    
C50   H35   S    
C6    C7    A    
C18   H36   S    
C23   C27   A    
C42   H11   S    
C51   H39   S    
C52   H41   S    
C15   C16   A    
O22   C43   S    
C26   C30   A    
C44   H16   S    
O21   C41   S    
C45   H17   S    
C12   C15   A    
C35   H3    S    
C13   C14   A    
O14   V3    S    
C8    H2    S    
C11   C19   A    
C54   H46   S    
