data_mof_unit_25833.cif
_audit_creation_date              2012-12-10T18:51:34-0500
_audit_creation_method            fapswitch 2.2
_symmetry_space_group_name_H-M    P1
_symmetry_Int_Tables_number       1
_space_group_crystal_system       triclinic
_cell_length_a                    10.779753
_cell_length_b                    9.830505
_cell_length_c                    10.525893
_cell_angle_alpha                 89.963714
_cell_angle_beta                  89.179191
_cell_angle_gamma                 90.726769
_cell_volume                      1115.22870482

loop_
_atom_site_label
_atom_site_type_symbol
_atom_type_description
_atom_site_fract_x
_atom_site_fract_y
_atom_site_fract_z
_atom_type_partial_charge
C1    C     C_R   0.873232 0.503287 0.521383 -0.402187
C2    C     C_3   0.505967 0.369609 0.041753 -0.263910
C3    C     C_3   0.399895 0.426633 0.962367 0.446914
C4    C     C_3   0.594878 0.570786 0.036970 0.437729
C5    C     C_3   0.495474 0.498788 0.877114 -0.148274
C6    C     C_3   0.499769 0.499279 0.122621 -0.131997
C7    C     C_R   0.522133 0.072106 0.608920 0.024999
C8    C     C_R   0.476876 0.927855 0.391277 -0.011954
C9    C     C_R   0.477134 0.071626 0.391220 0.010894
C10   C     C_R   0.522249 0.928376 0.608909 0.034957
C11   C     C_R   0.058783 0.380534 0.482553 0.317480
C12   C     C_R   0.127799 0.498021 0.514421 -0.381209
C13   C     C_R   0.942423 0.626937 0.535133 0.288199
C14   C     C_R   0.935790 0.377714 0.519714 0.309925
C15   C     C_R   0.067415 0.614447 0.562092 0.292096
C16   C     C_R   0.259935 0.499222 0.502495 1.064632
C17   C     C_R   0.740400 0.501267 0.506563 1.025144
C18   C     C_R   0.500934 0.499924 0.257284 0.957388
C19   C     C_R   0.497744 0.499758 0.742608 0.982329
C20   C     C_3   0.392111 0.555054 0.045523 -0.255604
C21   C     C_3   0.602683 0.442609 0.954385 -0.317004
C22   C     C_3   0.489046 0.628221 0.958164 -0.258026
H1    H     H_    0.539940 0.126282 0.696156 0.123773
H2    H     H_    0.843549 0.611747 0.925483 0.366252
H3    H     H_    0.246912 0.226237 0.229802 0.393274
H4    H     H_    0.761487 0.893139 0.380694 0.395464
H5    H     H_    0.761782 0.181127 0.758685 0.382095
H6    H     H_    0.261379 0.708326 0.831335 0.373674
H7    H     H_    0.458073 0.873621 0.304226 0.161207
H8    H     H_    0.458575 0.125414 0.304115 0.133292
H9    H     H_    0.540400 0.874596 0.696142 0.145118
H10   H     H_    0.306361 0.599941 0.086306 0.207140
H11   H     H_    0.689052 0.398200 0.914910 0.215861
H12   H     H_    0.483655 0.733956 0.921676 0.187230
H13   H     H_    0.512289 0.264180 0.078790 0.191286
H14   H     H_    0.372365 0.142928 0.876216 0.338651
N1    N     N_R   0.500000 0.857200 0.500000 -0.091870
N2    N     N_R   0.500000 0.142800 0.500000 -0.079860
O1    O     O_R   0.316770 0.614620 0.499990 -0.585925
O2    O     O_2   0.239660 0.351661 0.777690 -0.253382
O3    O     O_3   0.300787 0.160035 0.933802 -0.508867
O4    O     O_2   0.682527 0.800278 0.140501 -0.254117
O5    O     O_2   0.797877 0.591307 0.181804 -0.261496
O6    O     O_3   0.817704 0.701951 0.957389 -0.444819
O7    O     O_2   0.183565 0.145114 0.468414 -0.206359
O8    O     O_2   0.011158 0.172771 0.321906 -0.185000
O9    O     O_3   0.214645 0.307176 0.274671 -0.555055
O10   O     O_2   0.801856 0.831183 0.624403 -0.267036
O11   O     O_2   0.986517 0.897552 0.499898 -0.126170
O12   O     O_R   0.683230 0.385380 0.500010 -0.563033
O13   O     O_3   0.800733 0.802615 0.378533 -0.444671
O14   O     O_2   0.808303 0.141484 0.496946 -0.244493
O15   O     O_2   0.980123 0.145994 0.647125 -0.135419
O16   O     O_3   0.777463 0.267362 0.712131 -0.590649
O17   O     O_2   0.209801 0.838629 0.603930 -0.219843
O18   O     O_2   0.041119 0.791778 0.756864 -0.174531
O19   O     O_3   0.236009 0.642334 0.765343 -0.550208
O20   O     O_R   0.683230 0.614620 0.500010 -0.556690
O21   O     O_R   0.316770 0.385380 0.499990 -0.550840
O22   O     O_R   0.499970 0.614650 0.313950 -0.620680
O23   O     O_R   0.500030 0.385350 0.686050 -0.623331
O24   O     O_R   0.500030 0.614650 0.686050 -0.630355
O25   O     O_R   0.499970 0.385350 0.313950 -0.638533
O26   O     O_2   0.158706 0.361198 0.995632 -0.181862
S1    S     S_3+6 0.269422 0.325794 0.914473 0.098092
S2    S     S_3+6 0.726167 0.668501 0.084544 0.092380
S3    S     S_3+6 0.116484 0.244889 0.386674 0.134967
S4    S     S_3+6 0.883030 0.794615 0.512565 0.161935
S5    S     S_3+6 0.875707 0.226603 0.593023 0.140680
S6    S     S_3+6 0.138424 0.728220 0.673005 0.132608
Zn1   Zn    Zn3+2 0.500000 0.653120 0.500000 1.072467
Zn2   Zn    Zn3+2 0.500000 0.346880 0.500000 1.075127

loop_
_geom_bond_atom_site_label_1
_geom_bond_atom_site_label_2
_ccdc_geom_bond_type
C2    H13   S    
C17   O12   A    
C7    C10   A    
C11   C12   A    
O7    S3    D    
C5    C19   S    
O11   S4    D    
O19   S6    S    
C1    C14   A    
C4    C22   S    
C17   O20   A    
C1    C17   S    
C12   C15   A    
O21   Zn2   S    
O2    S1    D    
O15   S5    D    
O26   S1    D    
C2    C21   S    
N1    Zn1   S    
C2    C3    S    
H5    O16   S    
C5    C21   S    
O8    S3    D    
N2    Zn2   S    
C2    C6    S    
H6    O19   S    
O10   S4    D    
C4    S2    S    
C4    C21   S    
O5    S2    D    
H14   O3    S    
C3    S1    S    
O16   S5    S    
C9    H8    S    
C19   O23   A    
C10   N1    A    
C6    C18   S    
C8    H7    S    
O23   Zn2   S    
O9    S3    S    
C9    N2    A    
C11   C14   A    
C7    N2    A    
C20   C22   S    
O24   Zn1   S    
O18   S6    D    
O13   S4    S    
C13   C15   A    
C22   H12   S    
C14   S5    S    
C7    H1    S    
O20   Zn1   S    
O17   S6    D    
C21   H11   S    
C8    N1    A    
C5    C22   S    
C19   O24   A    
C1    C13   A    
C3    C20   S    
C6    C20   S    
H2    O6    S    
C4    C6    S    
C18   O25   A    
C20   H10   S    
C18   O22   A    
O4    S2    D    
C15   S6    S    
O12   Zn2   S    
H3    O9    S    
O3    S1    S    
O14   S5    D    
C16   O1    A    
O22   Zn1   S    
O1    Zn1   S    
H4    O13   S    
O6    S2    S    
C10   H9    S    
C16   O21   A    
O25   Zn2   S    
C12   C16   S    
C11   S3    S    
C8    C9    A    
C3    C5    S    
C13   S4    S    
