data_mof_unit_17090.cif
_audit_creation_date              2012-12-10T18:20:32-0500
_audit_creation_method            fapswitch 2.2
_symmetry_space_group_name_H-M    P1
_symmetry_Int_Tables_number       1
_space_group_crystal_system       triclinic
_cell_length_a                    14.107479
_cell_length_b                    13.54585
_cell_length_c                    14.9449
_cell_angle_alpha                 88.872612
_cell_angle_beta                  90.291817
_cell_angle_gamma                 81.052269
_cell_volume                      2820.5402584

loop_
_atom_site_label
_atom_site_type_symbol
_atom_type_description
_atom_site_fract_x
_atom_site_fract_y
_atom_site_fract_z
_atom_type_partial_charge
C1    C     C_R   0.500054 0.500987 0.326890 0.929418
C2    C     C_R   0.388295 0.370715 0.959869 -0.010610
C3    C     C_R   0.809032 0.431562 0.553112 0.060144
C4    C     C_R   0.190967 0.567110 0.445346 0.064836
C5    C     C_R   0.787272 0.569006 0.449953 0.015518
C6    C     C_R   0.212014 0.435705 0.554754 -0.015191
C7    C     C_R   0.886363 0.574978 0.452845 -0.141905
C8    C     C_R   0.112129 0.434989 0.556673 -0.135498
C9    C     C_R   0.948591 0.505672 0.506480 -0.069131
C10   C     C_R   0.049605 0.506478 0.505614 -0.064117
C11   C     C_R   0.910039 0.434155 0.559401 -0.150892
C12   C     C_R   0.500127 0.498599 0.673475 0.932129
C13   C     C_R   0.088519 0.576394 0.451406 -0.162627
C14   C     C_R   0.924103 0.649683 0.403908 0.427226
C15   C     C_R   0.074178 0.363922 0.609118 0.402011
C16   C     C_R   0.518288 0.313823 0.501931 0.908664
C17   C     C_R   0.481462 0.686133 0.498462 0.902541
C18   C     C_R   0.023703 0.651978 0.404594 0.412733
C19   C     C_R   0.974093 0.367587 0.615799 0.407282
C20   C     C_1   0.465626 0.790600 0.489832 -0.205158
C21   C     C_1   0.532099 0.209408 0.512093 -0.162822
C22   C     C_2   0.461648 0.982828 0.476756 -0.029638
C23   C     C_R   0.514076 0.477173 0.954653 0.010834
C24   C     C_2   0.527957 0.018539 0.527249 -0.034484
C25   C     C_1   0.535209 0.121640 0.520939 -0.057471
C26   C     C_1   0.458292 0.878805 0.482245 -0.062737
C27   C     C_R   0.433690 0.445766 0.816790 0.445572
C28   C     C_R   0.569657 0.546330 0.184795 0.455440
C29   C     C_R   0.501517 0.492277 0.769751 -0.187769
C30   C     C_R   0.503010 0.497990 0.231356 -0.168120
C31   C     C_R   0.573851 0.530955 0.814248 -0.364261
C32   C     C_R   0.445026 0.439831 0.188055 -0.351002
C33   C     C_R   0.579164 0.526053 0.906263 0.126743
C34   C     C_R   0.515656 0.479360 0.047903 0.005692
C35   C     C_R   0.449382 0.431835 0.096296 0.118484
C36   C     C_R   0.587168 0.956585 0.596103 0.168456
C37   C     C_R   0.685164 0.924762 0.581879 -0.182177
C38   C     C_R   0.740421 0.864895 0.646292 -0.144047
C39   C     C_R   0.697876 0.835957 0.724849 -0.106745
C40   C     C_R   0.600106 0.867238 0.739307 -0.154990
C41   C     C_R   0.544808 0.927539 0.675254 -0.155854
C42   C     C_R   0.395664 0.044870 0.412420 0.157382
C43   C     C_R   0.296035 0.047912 0.420050 -0.181935
C44   C     C_R   0.233288 0.106901 0.360591 -0.156294
C45   C     C_R   0.445306 0.429386 0.909761 -0.063336
C46   C     C_R   0.269481 0.162533 0.292664 -0.102739
C47   C     C_R   0.368525 0.158624 0.283613 -0.144155
C48   C     C_R   0.431522 0.099621 0.342839 -0.149651
C49   C     C_3   0.275734 0.491310 0.782088 -0.263519
C50   C     C_3   0.568882 0.704134 0.234058 -0.299225
C51   C     C_R   0.738277 0.604236 0.084299 0.206162
C52   C     C_R   0.802109 0.538298 0.138441 -0.085958
C53   C     C_R   0.884673 0.568807 0.173582 -0.132801
C54   C     C_R   0.904560 0.664821 0.154292 -0.023142
C55   C     C_R   0.841365 0.730901 0.100725 -0.140433
C56   C     C_R   0.581392 0.531464 0.092630 -0.057219
C57   C     C_R   0.758675 0.700749 0.065467 -0.189373
C58   C     C_R   0.332205 0.298984 0.918702 0.198821
C59   C     C_R   0.377414 0.224158 0.862446 -0.065054
C60   C     C_R   0.324903 0.155862 0.824559 -0.142206
C61   C     C_R   0.227382 0.160806 0.843458 -0.049054
C62   C     C_R   0.182148 0.234156 0.900091 -0.117548
C63   C     C_R   0.234221 0.302936 0.937782 -0.200077
C64   C     C_R   0.769556 0.346710 0.593795 0.240034
C65   C     C_R   0.731898 0.352004 0.680615 -0.044699
C66   C     C_R   0.702446 0.268082 0.721184 -0.175724
C67   C     C_R   0.649874 0.568665 0.949915 -0.283992
C68   C     C_R   0.714180 0.177250 0.676723 -0.103827
C69   C     C_R   0.755257 0.170517 0.591698 -0.122609
C70   C     C_R   0.782373 0.254878 0.550080 -0.105707
C71   C     C_R   0.233420 0.616555 0.369561 0.243297
C72   C     C_R   0.264793 0.709265 0.378857 -0.041923
C73   C     C_R   0.298557 0.757592 0.304783 -0.186038
C74   C     C_R   0.299303 0.714784 0.220455 -0.128861
C75   C     C_R   0.265383 0.624128 0.209971 -0.124230
C76   C     C_R   0.232421 0.575161 0.284098 -0.115902
C77   C     C_3   0.811192 0.792568 0.401687 -0.327711
C78   C     C_R   0.389318 0.375212 0.052909 -0.281681
C79   C     C_3   0.154457 0.205710 0.605628 -0.294961
C80   C     C_3   0.056054 0.810288 0.417040 -0.323532
C81   C     C_3   0.943318 0.343177 0.762846 -0.300575
C82   C     C_R   0.653658 0.569834 0.042934 -0.006769
H1    H     H_    0.624369 0.568341 0.777038 0.176810
H2    H     H_    0.567176 0.844660 0.800075 0.127964
H3    H     H_    0.469053 0.951232 0.686969 0.116375
H4    H     H_    0.266976 0.005634 0.472693 0.116194
H5    H     H_    0.156571 0.109694 0.367367 0.121182
H6    H     H_    0.220824 0.208346 0.246825 0.114792
H7    H     H_    0.396520 0.201146 0.230593 0.123575
H8    H     H_    0.508121 0.096587 0.334471 0.122013
H9    H     H_    0.213130 0.466176 0.749466 0.197238
H10   H     H_    0.286598 0.563171 0.749455 0.158046
H11   H     H_    0.257341 0.503606 0.853728 0.139347
H12   H     H_    0.395934 0.401339 0.226064 0.172608
H13   H     H_    0.614559 0.754719 0.263901 0.196750
H14   H     H_    0.505420 0.704334 0.277819 0.150620
H15   H     H_    0.546258 0.734766 0.166227 0.148513
H16   H     H_    0.788147 0.463227 0.152831 0.115303
H17   H     H_    0.933493 0.517898 0.215429 0.118474
H18   H     H_    0.968742 0.688152 0.181216 0.168423
H19   H     H_    0.856731 0.805343 0.086116 0.130239
H20   H     H_    0.710668 0.752363 0.023431 0.121048
H21   H     H_    0.453137 0.219025 0.847815 0.109017
H22   H     H_    0.359886 0.098913 0.780769 0.112629
H23   H     H_    0.703244 0.600232 0.911234 0.138740
H24   H     H_    0.186852 0.107729 0.814306 0.119318
H25   H     H_    0.106696 0.237654 0.914878 0.115947
H26   H     H_    0.198128 0.359670 0.981246 0.115746
H27   H     H_    0.728154 0.420188 0.717708 0.116320
H28   H     H_    0.672500 0.272991 0.787786 0.128689
H29   H     H_    0.692531 0.111894 0.708497 0.143181
H30   H     H_    0.766345 0.100098 0.557797 0.120938
H31   H     H_    0.814799 0.248427 0.484485 0.098946
H32   H     H_    0.260958 0.745364 0.442970 0.111727
H33   H     H_    0.323184 0.828756 0.312631 0.140207
H34   H     H_    0.343718 0.333363 0.091847 0.138276
H35   H     H_    0.325403 0.752254 0.163136 0.124796
H36   H     H_    0.264888 0.591599 0.144427 0.132476
H37   H     H_    0.205854 0.505149 0.274979 0.098250
H38   H     H_    0.831237 0.789852 0.474073 0.128362
H39   H     H_    0.733803 0.787152 0.395527 0.178441
H40   H     H_    0.820448 0.867071 0.374124 0.180004
H41   H     H_    0.206089 0.149149 0.642649 0.180872
H42   H     H_    0.188352 0.221709 0.540895 0.157979
H43   H     H_    0.088296 0.172512 0.593454 0.177864
H44   H     H_    0.093106 0.786860 0.481780 0.128360
H45   H     H_    0.738762 0.618607 0.407164 0.195134
H46   H     H_    0.982254 0.848001 0.430106 0.169421
H47   H     H_    0.094873 0.866404 0.384570 0.187886
H48   H     H_    0.910058 0.295165 0.810495 0.183317
H49   H     H_    0.901584 0.419938 0.765377 0.128300
H50   H     H_    0.018161 0.343891 0.785995 0.197854
H51   H     H_    0.260530 0.383605 0.595784 0.210623
H52   H     H_    0.718283 0.945728 0.520698 0.105699
H53   H     H_    0.816136 0.840617 0.635231 0.117261
H54   H     H_    0.740602 0.789240 0.774456 0.114427
N1    N     N_R   0.750030 0.500040 0.500070 -0.139761
N2    N     N_R   0.249970 0.499960 0.499930 -0.138163
O1    O     O_R   0.580280 0.500020 0.367860 -0.580519
O2    O     O_3   0.622909 0.607586 0.230021 -0.592576
O3    O     O_3   0.865517 0.718184 0.349669 -0.576638
O4    O     O_3   0.134862 0.292072 0.657797 -0.595688
O5    O     O_3   0.056254 0.729486 0.358550 -0.584291
O6    O     O_3   0.940628 0.303053 0.676499 -0.593137
O7    O     O_R   0.419720 0.499980 0.632140 -0.581913
O8    O     O_R   0.419730 0.500030 0.367840 -0.630525
O9    O     O_R   0.580270 0.499970 0.632160 -0.642582
O10   O     O_R   0.591830 0.359650 0.500030 -0.622723
O11   O     O_R   0.408170 0.640350 0.499970 -0.637982
O12   O     O_R   0.431280 0.359660 0.500010 -0.608556
O13   O     O_R   0.568720 0.640340 0.499990 -0.608958
O14   O     O_3   0.356852 0.416978 0.771540 -0.591299
Zn1   Zn    Zn3+2 0.607200 0.499990 0.500020 0.948938
Zn2   Zn    Zn3+2 0.392800 0.500010 0.499980 0.944137

loop_
_geom_bond_atom_site_label_1
_geom_bond_atom_site_label_2
_ccdc_geom_bond_type
C32   H12   S    
C34   C56   A    
C27   O14   S    
C23   C45   A    
C12   C29   S    
C27   C29   A    
C73   C74   A    
C40   H2    S    
C66   C68   A    
C28   O2    S    
C75   C76   A    
C77   H38   S    
C50   H14   S    
C28   C56   A    
C22   C42   S    
C3    C64   S    
C53   H17   S    
C15   C19   A    
C57   H20   S    
C11   C19   A    
C19   O6    S    
C20   C26   T    
C13   C18   A    
C12   O9    A    
C36   C37   A    
C6    H51   S    
C38   C39   A    
C69   H30   S    
C50   O2    S    
C50   H13   S    
C81   H49   S    
C79   O4    S    
O1    Zn1   S    
C72   H32   S    
C17   C20   S    
C31   H1    S    
C34   C35   A    
C4    C13   A    
C14   C18   A    
C77   H40   S    
C46   C47   A    
C7    C14   A    
C68   C69   A    
C23   C33   A    
C31   C33   A    
C51   C57   A    
C64   C70   A    
C44   H5    S    
C9    C10   A    
C61   C62   A    
C1    O1    A    
C27   C45   A    
C79   H43   S    
C14   O3    S    
C59   C60   A    
C2    C45   A    
C48   H8    S    
C47   H7    S    
C54   H18   S    
C36   C41   A    
C17   O13   A    
C75   H36   S    
C49   H9    S    
C44   C46   A    
C46   H6    S    
C39   H54   S    
C81   O6    S    
C70   H31   S    
C17   O11   A    
C76   H37   S    
C74   C75   A    
C51   C52   A    
C32   C35   A    
C77   H39   S    
C24   C25   S    
C39   C40   A    
C5    C7    A    
C67   H23   S    
C81   H50   S    
C6    C8    A    
C62   H25   S    
C80   H46   S    
C58   C59   A    
C53   C54   A    
C79   H41   S    
C60   C61   A    
C68   H29   S    
C12   O7    A    
C6    N2    A    
O11   Zn2   S    
C37   C38   A    
C2    C78   A    
C15   O4    S    
C47   C48   A    
O8    Zn2   S    
C80   O5    S    
C5    H45   S    
C62   C63   A    
N1    Zn1   S    
C42   C48   A    
C38   H53   S    
C66   H28   S    
C5    N1    A    
C61   H24   S    
C9    C11   A    
C51   C82   S    
C65   H27   S    
C3    N1    A    
O7    Zn2   S    
C40   C41   A    
C8    C15   A    
C55   C57   A    
C43   C44   A    
C22   C26   S    
C22   C24   D    
C42   C43   A    
C49   H10   S    
O10   Zn1   S    
C52   C53   A    
C33   C67   A    
C58   C63   A    
C7    C9    A    
C74   H35   S    
C21   C25   T    
C54   C55   A    
C18   O5    S    
C23   C34   A    
C80   H47   S    
C50   H15   S    
C49   O14   S    
C43   H4    S    
C78   H34   S    
C72   C73   A    
C10   C13   A    
C2    C58   S    
C16   C21   S    
C56   C82   A    
C41   H3    S    
C79   H42   S    
C55   H19   S    
C35   C78   A    
C73   H33   S    
C24   C36   S    
C16   O10   A    
C59   H21   S    
C64   C65   A    
C28   C30   A    
C71   C72   A    
C29   C31   A    
C30   C32   A    
N2    Zn2   S    
C81   H48   S    
C71   C76   A    
C80   H44   S    
C52   H16   S    
C1    C30   S    
O13   Zn1   S    
C69   C70   A    
O9    Zn1   S    
C77   O3    S    
C3    C11   A    
C4    N2    A    
C1    O8    A    
C67   C82   A    
C8    C10   A    
C65   C66   A    
O12   Zn2   S    
C37   H52   S    
C16   O12   A    
C49   H11   S    
C63   H26   S    
C60   H22   S    
C4    C71   S    
