data_mof_unit_6943.cif
_audit_creation_date              2012-12-11T15:46:53-0500
_audit_creation_method            fapswitch 2.2
_symmetry_space_group_name_H-M    P1
_symmetry_Int_Tables_number       1
_space_group_crystal_system       triclinic
_cell_length_a                    11.547431
_cell_length_b                    11.547571
_cell_length_c                    19.543702
_cell_angle_alpha                 90.477495
_cell_angle_beta                  90.013507
_cell_angle_gamma                 59.969163
_cell_volume                      2256.10276933

loop_
_atom_site_label
_atom_site_type_symbol
_atom_type_description
_atom_site_fract_x
_atom_site_fract_y
_atom_site_fract_z
_atom_type_partial_charge
C1    C     C_R   0.640453 0.117320 0.599239 0.546144
C2    C     C_1   0.641243 0.703856 0.667971 0.005018
C3    C     C_1   0.126786 0.198791 0.859320 0.004033
C4    C     C_1   0.171438 0.170304 0.727700 -0.030906
C5    C     C_1   0.150189 0.182281 0.798945 -0.030775
C6    C     C_1   0.195188 0.160944 0.667350 0.003326
C7    C     C_1   0.678666 0.191216 0.860800 0.004119
C8    C     C_1   0.658551 0.167228 0.729026 -0.030784
C9    C     C_1   0.665720 0.180864 0.800349 -0.030655
C10   C     C_1   0.652963 0.149687 0.668620 0.004098
C11   C     C_R   0.676532 0.635863 0.199565 -0.040191
C12   C     C_R   0.612467 0.745980 0.598613 0.543611
C13   C     C_R   0.574863 0.631268 0.235143 -0.026155
C14   C     C_R   0.566950 0.641028 0.304530 0.044787
C15   C     C_R   0.783234 0.626668 0.308435 0.192784
C16   C     C_R   0.786992 0.622552 0.236721 -0.104169
C17   C     C_3   0.427581 0.708509 0.224478 -0.227616
C18   C     C_3   0.416501 0.723030 0.301499 0.156307
C19   C     C_R   0.662539 0.655950 0.341736 -0.014862
C20   C     C_R   0.155603 0.184556 0.188460 0.019931
C21   C     C_R   0.227340 0.239127 0.218071 0.010851
C22   C     C_R   0.255818 0.222685 0.286783 0.032602
C23   C     C_R   0.240946 0.145308 0.598153 0.546666
C24   C     C_R   0.160633 0.080109 0.297254 -0.182291
C25   C     C_R   0.133694 0.094187 0.227211 -0.161165
C26   C     C_3   0.203295 0.378883 0.219004 -0.263802
C27   C     C_3   0.231427 0.361544 0.294953 -0.258870
C28   C     C_R   0.213582 0.152492 0.328342 0.024276
C29   C     C_R   0.664613 0.186763 0.191840 0.013509
C30   C     C_R   0.722411 0.056879 0.217347 0.018271
C31   C     C_R   0.718967 0.036200 0.286193 0.032044
C32   C     C_R   0.584965 0.272949 0.306744 -0.163914
C33   C     C_R   0.586684 0.294950 0.236475 -0.157246
C34   C     C_R   0.644923 0.112296 0.402446 0.542635
C35   C     C_3   0.860128 0.937769 0.210000 -0.272556
C36   C     C_3   0.856319 0.917823 0.286160 -0.275056
C37   C     C_R   0.659428 0.142718 0.332461 0.015080
C38   C     C_R   0.081821 0.231163 0.928627 0.546464
C39   C     C_R   0.683960 0.604409 0.929521 0.546674
C40   C     C_R   0.708438 0.206669 0.930153 0.546301
C41   C     C_R   0.084224 0.234693 0.124734 0.549179
C42   C     C_R   0.685373 0.606596 0.127387 0.548933
C43   C     C_R   0.707391 0.211316 0.126588 0.548285
C44   C     C_R   0.619297 0.733522 0.404488 0.531193
C45   C     C_R   0.248558 0.138714 0.400050 0.542769
C46   C     C_1   0.670492 0.646435 0.860143 0.004161
C47   C     C_1   0.654818 0.683622 0.728415 -0.030973
C48   C     C_1   0.663539 0.666626 0.799690 -0.031143
Cr1   Cr    Cr6+3 0.404720 0.198220 0.499960 1.026836
Cr2   Cr    Cr6+3 0.698290 0.897110 0.500380 1.028989
Cr3   Cr    Cr6+3 0.396970 0.904720 0.499610 1.022530
Cr4   Cr    Cr6+3 0.926290 0.152010 0.028150 1.021890
Cr5   Cr    Cr6+3 0.921440 0.451830 0.027490 1.023381
Cr6   Cr    Cr6+3 0.626370 0.446880 0.028730 1.025478
H1    H     H_    0.280737 0.387939 0.189583 0.139458
H2    H     H_    0.322263 0.364494 0.309916 0.159109
H3    H     H_    0.142040 0.423612 0.327277 0.187850
H4    H     H_    0.529272 0.357361 0.340987 0.163188
H5    H     H_    0.537271 0.396857 0.218371 0.152138
H6    H     H_    0.938248 0.962351 0.195946 0.153432
H7    H     H_    0.860541 0.856471 0.178921 0.135885
H8    H     H_    0.856408 0.824860 0.298957 0.207128
H9    H     H_    0.927506 0.936781 0.315698 0.126557
H10   H     H_    0.875262 0.609195 0.210468 0.139304
H11   H     H_    0.388208 0.645707 0.202845 0.160128
H12   H     H_    0.394425 0.804811 0.197864 0.102345
H13   H     H_    0.376693 0.828442 0.319015 0.130035
H14   H     H_    0.132468 0.020450 0.327659 0.098324
H15   H     H_    0.083308 0.045127 0.205416 0.131064
H16   H     H_    0.098681 0.455706 0.207631 0.163592
O1    O     O_R   0.267750 0.231960 0.575440 -0.504979
O2    O     O_R   0.685950 0.784660 0.430010 -0.489648
O3    O     O_R   0.502510 0.767000 0.423980 -0.514457
O4    O     O_R   0.288320 0.026340 0.429250 -0.519700
O5    O     O_3   0.499990 0.000020 0.499980 -0.254971
O6    O     O_R   0.821590 0.119350 0.952850 -0.504977
O7    O     O_R   0.037230 0.162540 0.957390 -0.494180
O8    O     O_R   0.056530 0.344750 0.951370 -0.504697
O9    O     O_R   0.798000 0.560370 0.957490 -0.493251
O10   O     O_R   0.596230 0.579400 0.952760 -0.504794
O11   O     O_R   0.639160 0.321170 0.958690 -0.493981
O12   O     O_R   0.527290 0.186640 0.570530 -0.493585
O13   O     O_R   0.821370 0.124220 0.104400 -0.523695
O14   O     O_R   0.037020 0.167050 0.097880 -0.510617
O15   O     O_R   0.056310 0.349620 0.102920 -0.522301
O16   O     O_R   0.797790 0.564880 0.097980 -0.510729
O17   O     O_R   0.596000 0.584270 0.104310 -0.515273
O18   O     O_R   0.638950 0.325690 0.099180 -0.508237
O19   O     O_3   0.824700 0.350240 0.028120 -0.253080
O20   O     O_R   0.728110 0.003450 0.576380 -0.506522
O21   O     O_R   0.682980 0.789190 0.570500 -0.497746
O22   O     O_R   0.499300 0.771880 0.575540 -0.503313
O23   O     O_R   0.285350 0.030870 0.569740 -0.493868
O24   O     O_R   0.270960 0.227070 0.423890 -0.518760
O25   O     O_R   0.530270 0.182120 0.430040 -0.505325
O26   O     O_R   0.731320 0.998570 0.424830 -0.511909
O27   O     O_3   0.894733 0.608642 0.343269 -0.753129
H17   H     H_    0.888643 0.584093 0.391052 0.335403
O28   O     O_3   0.357735 0.652722 0.330488 -0.554546
C49   C     C_3   0.224972 0.744695 0.350011 -0.024014
H18   H     H_    0.168041 0.809027 0.306161 0.110450
H19   H     H_    0.224264 0.807554 0.393708 0.153725
C50   C     C_3   0.154761 0.669935 0.372495 -0.366311
H20   H     H_    0.218899 0.588006 0.407977 0.168127
H21   H     H_    0.059357 0.739712 0.398855 0.125977
H22   H     H_    0.131483 0.628418 0.326669 0.169346

loop_
_geom_bond_atom_site_label_1
_geom_bond_atom_site_label_2
_ccdc_geom_bond_type
C21   C26   S    
C1    O20   A    
C34   C37   S    
C43   O13   A    
C14   C18   S    
C12   O21   A    
C35   C36   S    
Cr3   O4    S    
C32   H4    S    
C2    C12   S    
C26   H1    S    
O27   H17   S    
C15   C19   A    
C26   C27   S    
C30   C35   S    
C43   O18   A    
Cr5   O9    S    
Cr3   O5    S    
Cr6   O17   S    
C20   C25   A    
C15   C16   A    
C29   C33   A    
C11   C42   S    
Cr4   O14   S    
Cr2   O2    S    
Cr3   O3    S    
Cr2   O20   S    
C47   C48   S    
C3    C38   S    
C8    C9    S    
C7    C40   S    
Cr1   O5    S    
Cr5   O16   S    
C42   O16   A    
Cr1   O24   S    
C36   H9    S    
C33   H5    S    
C22   C28   A    
C21   C22   A    
C29   C43   S    
Cr4   O19   S    
C15   O27   S    
C36   H8    S    
C45   O24   A    
C40   O11   A    
C20   C41   S    
Cr6   O10   S    
C46   C48   T    
C28   C45   S    
C23   O1    A    
C24   C25   A    
Cr6   O19   S    
C4    C6    T    
C27   H3    S    
C27   H2    S    
C38   O8    A    
Cr4   O6    S    
C18   H13   S    
C41   O14   A    
C49   C50   S    
Cr1   O25   S    
C23   O23   A    
C31   C37   A    
C35   H6    S    
C39   O9    A    
Cr1   O12   S    
Cr4   O13   S    
C29   C30   A    
Cr3   O22   S    
C11   C16   A    
O28   C49   S    
C49   H19   S    
C17   C18   S    
C17   H12   S    
C50   H21   S    
C32   C37   A    
C34   O25   A    
Cr3   O23   S    
C39   C46   S    
C22   C27   S    
Cr5   O19   S    
C26   H16   S    
C25   H15   S    
C18   O28   S    
Cr4   O7    S    
C19   C44   S    
C7    C9    T    
C14   C19   A    
C12   O22   A    
C1    C10   S    
C24   C28   A    
C34   O26   A    
C4    C5    S    
C3    C5    T    
C38   O7    A    
C2    C47   T    
C41   O15   A    
C17   H11   S    
C13   C17   S    
C32   C33   A    
Cr5   O8    S    
C1    O12   A    
Cr2   O5    S    
C39   O10   A    
Cr6   O18   S    
C11   C13   A    
Cr2   O26   S    
C30   C31   A    
C35   H7    S    
C6    C23   S    
C49   H18   S    
C44   O2    A    
C50   H22   S    
C44   O3    A    
C24   H14   S    
C40   O6    A    
Cr2   O21   S    
C20   C21   A    
C8    C10   T    
Cr1   O1    S    
C50   H20   S    
C31   C36   S    
C45   O4    A    
Cr5   O15   S    
C42   O17   A    
C16   H10   S    
C13   C14   A    
Cr6   O11   S    
