data_mof_unit_48749.cif
_audit_creation_date              2012-12-10T18:43:32-0500
_audit_creation_method            fapswitch 2.2
_symmetry_space_group_name_H-M    P1
_symmetry_Int_Tables_number       1
_space_group_crystal_system       triclinic
_cell_length_a                    19.429208
_cell_length_b                    18.240737
_cell_length_c                    10.989416
_cell_angle_alpha                 89.962032
_cell_angle_beta                  91.882754
_cell_angle_gamma                 90.281047
_cell_volume                      3892.53294093

loop_
_atom_site_label
_atom_site_type_symbol
_atom_type_description
_atom_site_fract_x
_atom_site_fract_y
_atom_site_fract_z
_atom_type_partial_charge
C1    C     C_R   0.367626 0.499713 0.502096 0.839055
C2    C     C_R   0.632371 0.500332 0.496368 0.849290
C3    C     C_R   0.708011 0.500885 0.490167 -0.116517
C4    C     C_R   0.291947 0.499038 0.502910 -0.101269
C5    C     C_R   0.964680 0.508468 0.601049 -0.083729
C6    C     C_R   0.037136 0.509331 0.603219 -0.085785
C7    C     C_R   0.072086 0.501145 0.493482 -0.122225
C8    C     C_R   0.927815 0.499212 0.489278 -0.121637
C9    C     C_R   0.035030 0.491859 0.382355 0.345217
C10   C     C_R   0.962954 0.490845 0.380279 0.342290
C11   C     C_R   0.441476 0.720850 0.467078 0.073768
C12   C     C_R   0.558554 0.721307 0.533077 0.131158
C13   C     C_R   0.440174 0.797707 0.468367 -0.273991
C14   C     C_R   0.560075 0.798178 0.531356 -0.256929
C15   C     C_R   0.500177 0.837508 0.499721 0.085327
C16   C     C_R   0.513367 0.959818 0.609040 -0.006139
C17   C     C_R   0.486939 0.959810 0.390410 -0.002155
C18   C     C_R   0.509847 0.036968 0.608559 -0.205064
C19   C     C_R   0.490231 0.037020 0.391038 -0.212239
C20   C     C_R   0.500014 0.076927 0.499834 0.116592
C21   C     C_R   0.500244 0.499744 0.265099 0.929954
C22   C     C_R   0.499375 0.499730 0.734812 0.922623
C23   C     C_R   0.500212 0.919970 0.499697 0.018646
C24   C     C_R   0.449345 0.200402 0.432326 -0.164222
C25   C     C_R   0.550367 0.200837 0.568045 -0.157336
C26   C     C_R   0.452848 0.278126 0.428552 0.538585
C27   C     C_R   0.546631 0.278469 0.572302 0.501468
C28   C     C_R   0.499959 0.160242 0.499935 -0.078141
C29   C     C_2   0.489449 0.439715 0.934199 0.397982
C30   C     C_2   0.505729 0.439100 0.065142 0.390508
C31   C     C_2   0.504873 0.499031 0.866956 -0.461897
C32   C     C_2   0.493911 0.499097 0.132903 -0.444655
C33   C     C_R   0.744395 0.560676 0.440177 0.356422
C34   C     C_R   0.254638 0.439079 0.550030 0.391118
C35   C     C_R   0.816163 0.559335 0.439777 -0.142464
C36   C     C_R   0.182887 0.440162 0.545090 -0.159485
C37   C     C_R   0.852207 0.498906 0.486442 0.127314
C38   C     C_R   0.147681 0.500341 0.495469 0.131650
C39   C     C_R   0.816539 0.438950 0.532699 -0.125699
C40   C     C_R   0.184215 0.560183 0.450701 -0.113867
C41   C     C_R   0.745027 0.439918 0.534488 -0.213331
C42   C     C_R   0.255875 0.559539 0.454338 -0.258780
Cu1   Cu    Cu3+1 0.500000 0.573360 0.500000 0.970923
Cu2   Cu    Cu3+1 0.500000 0.426640 0.500000 1.120491
H1    H     H_    0.392858 0.825983 0.443707 0.143277
H2    H     H_    0.607439 0.826823 0.556065 0.151577
H3    H     H_    0.515423 0.065825 0.694280 0.148949
H4    H     H_    0.484489 0.065966 0.305405 0.147758
H5    H     H_    0.527107 0.547687 0.909865 0.122261
H6    H     H_    0.474024 0.548765 0.090310 0.116238
H7    H     H_    0.844074 0.605378 0.402744 0.171700
H8    H     H_    0.154301 0.394281 0.581062 0.162331
H9    H     H_    0.844207 0.391752 0.568303 0.148620
H10   H     H_    0.157143 0.607213 0.413040 0.148229
H11   H     H_    0.718853 0.393088 0.571962 0.218529
H12   H     H_    0.283107 0.606134 0.417748 0.155612
H13   H     H_    0.395217 0.691389 0.439659 0.122075
H14   H     H_    0.604616 0.692150 0.561125 0.160101
N1    N     N_R   0.500000 0.683620 0.500000 -0.179733
N2    N     N_R   0.500000 0.316380 0.500000 -0.237394
O1    O     O_R   0.400190 0.561980 0.499980 -0.629767
O2    O     O_R   0.599810 0.561980 0.500020 -0.567577
O3    O     O_R   0.400190 0.438070 0.500040 -0.490182
O4    O     O_R   0.599810 0.438070 0.499960 -0.551157
O5    O     O_R   0.500000 0.561940 0.321950 -0.587131
O6    O     O_R   0.500000 0.561940 0.678050 -0.611655
O7    O     O_R   0.500010 0.438030 0.322010 -0.500750
O8    O     O_R   0.499990 0.438030 0.677990 -0.478950
Cl1   Cl    Cl    0.449053 0.359925 0.872855 -0.464775
Cl2   Cl    Cl    0.541686 0.357007 0.125130 -0.518641
C43   C     C_R   0.535099 0.922081 0.723444 0.105206
C44   C     C_R   0.496817 0.863133 0.768885 -0.119578
C45   C     C_R   0.524932 0.818901 0.861291 -0.129584
C46   C     C_R   0.589083 0.836188 0.915345 -0.100447
C47   C     C_R   0.625612 0.897336 0.875765 -0.131329
C48   C     C_R   0.599105 0.939667 0.779328 -0.167320
H15   H     H_    0.446964 0.849000 0.728372 0.126322
H16   H     H_    0.497109 0.770757 0.890045 0.119605
H17   H     H_    0.610597 0.802077 0.987526 0.131825
H18   H     H_    0.675385 0.910655 0.917300 0.131669
H19   H     H_    0.629710 0.984158 0.744725 0.152160
C49   C     C_R   0.465331 0.921951 0.275920 0.101278
C50   C     C_R   0.503622 0.863385 0.230675 -0.109449
C51   C     C_R   0.475617 0.818985 0.138109 -0.120171
C52   C     C_R   0.411578 0.835744 0.083707 -0.110130
C53   C     C_R   0.375063 0.896543 0.123065 -0.133810
C54   C     C_R   0.401453 0.939033 0.219644 -0.168100
H20   H     H_    0.553401 0.849671 0.271422 0.140895
H21   H     H_    0.503437 0.771117 0.109515 0.127818
H22   H     H_    0.390141 0.801499 0.011417 0.116501
H23   H     H_    0.325386 0.909463 0.081230 0.127030
H24   H     H_    0.370853 0.983256 0.254011 0.148519
C55   C     C_R   0.389347 0.162555 0.372753 0.143219
C56   C     C_R   0.339791 0.128603 0.444289 -0.079580
C57   C     C_R   0.281900 0.095111 0.389115 -0.141652
C58   C     C_R   0.273056 0.095365 0.262365 -0.132047
C59   C     C_R   0.322508 0.128383 0.190461 -0.122858
C60   C     C_R   0.380601 0.161686 0.245227 -0.090123
H25   H     H_    0.345772 0.128687 0.542634 0.145124
H26   H     H_    0.243756 0.069186 0.444649 0.136024
H27   H     H_    0.228182 0.069470 0.219831 0.134859
H28   H     H_    0.315897 0.128027 0.092294 0.151156
H29   H     H_    0.418661 0.186989 0.188622 0.178912
C61   C     C_R   0.610376 0.163623 0.627759 0.141937
C62   C     C_R   0.660237 0.130732 0.556272 -0.114596
C63   C     C_R   0.718167 0.097916 0.611517 -0.144199
C64   C     C_R   0.726744 0.097765 0.738307 -0.137735
C65   C     C_R   0.676959 0.129642 0.810173 -0.135743
C66   C     C_R   0.618821 0.162251 0.755332 -0.083304
H30   H     H_    0.654464 0.131130 0.457903 0.137907
H31   H     H_    0.756551 0.072833 0.556009 0.137867
H32   H     H_    0.771651 0.072401 0.780896 0.134835
H33   H     H_    0.683340 0.128923 0.908369 0.148240
H34   H     H_    0.580487 0.186620 0.811929 0.180720
Cl3   Cl    Cl    0.393978 0.325332 0.331273 -0.516431
Cl4   Cl    Cl    0.603416 0.325960 0.673396 -0.592813
Cl5   Cl    Cl    0.703331 0.636732 0.371037 -0.653618
Cl6   Cl    Cl    0.294408 0.362978 0.621582 -0.541815
C67   C     C_R   0.927348 0.520645 0.714697 0.153805
C68   C     C_R   0.914452 0.461917 0.793413 -0.166248
C69   C     C_R   0.878689 0.473597 0.899962 -0.052925
C70   C     C_R   0.855576 0.543826 0.928237 -0.044443
C71   C     C_R   0.868170 0.602468 0.849929 -0.149037
C72   C     C_R   0.903943 0.590993 0.743302 -0.138767
H35   H     H_    0.931809 0.407256 0.771894 0.126662
H36   H     H_    0.868787 0.428203 0.960495 0.177341
H37   H     H_    0.827850 0.552785 0.010716 0.173692
H38   H     H_    0.850161 0.656790 0.871809 0.140346
H39   H     H_    0.913367 0.636695 0.683017 0.127933
C73   C     C_R   0.076413 0.521240 0.719551 0.146675
C74   C     C_R   0.104549 0.590485 0.747037 -0.136901
C75   C     C_R   0.141987 0.601606 0.856375 -0.156673
C76   C     C_R   0.151567 0.543701 0.938523 -0.054309
C77   C     C_R   0.123838 0.474543 0.911324 -0.033973
C78   C     C_R   0.086396 0.463219 0.802091 -0.156699
H40   H     H_    0.097431 0.635628 0.683868 0.123551
H41   H     H_    0.163592 0.655088 0.877416 0.131179
H42   H     H_    0.180538 0.552384 0.023144 0.157497
H43   H     H_    0.131458 0.429691 0.974786 0.180297
H44   H     H_    0.065521 0.409331 0.781446 0.130524
Cl7   Cl    Cl    0.078962 0.479414 0.245441 -0.586442
Cl8   Cl    Cl    0.916605 0.477313 0.240782 -0.588649

loop_
_geom_bond_atom_site_label_1
_geom_bond_atom_site_label_2
_ccdc_geom_bond_type
C34   Cl6   S    
C30   C32   D    
C62   H30   S    
C47   C48   A    
C33   Cl5   S    
C55   C56   A    
C45   C46   A    
C57   C58   A    
C6    C73   S    
C18   H3    S    
C59   C60   A    
C71   C72   A    
C39   C41   A    
C52   C53   A    
Cu2   O4    S    
C25   C28   A    
C17   C23   A    
C5    C67   S    
C35   C37   A    
C24   C26   A    
C53   H23   S    
C5    C6    A    
C63   C64   A    
C3    C33   A    
C60   H29   S    
C65   C66   A    
C17   C49   S    
C10   Cl8   S    
C70   H37   S    
C26   Cl3   S    
C41   H11   S    
C19   H4    S    
C44   H15   S    
C42   H12   S    
C12   N1    A    
C22   O6    A    
C19   C20   A    
C75   C76   A    
C45   H16   S    
C47   H18   S    
C18   C20   A    
C59   H28   S    
C36   H8    S    
Cu1   N1    S    
C12   H14   S    
C27   Cl4   S    
C40   C42   A    
C50   H20   S    
C76   H42   S    
C38   C40   A    
C54   H24   S    
C21   O7    A    
C29   C31   D    
C16   C43   S    
C31   H5    S    
C11   N1    A    
C1    O3    A    
C61   C62   A    
C30   Cl2   S    
C2    O4    A    
C29   Cl1   S    
C63   H31   S    
Cu2   O3    S    
C78   H44   S    
C21   C32   S    
C4    C34   A    
C22   C31   S    
C58   H27   S    
C51   C52   A    
C14   H2    S    
C74   H40   S    
C46   C47   A    
C77   H43   S    
C9    Cl7   S    
C53   C54   A    
C17   C19   A    
C20   C28   S    
C75   H41   S    
C67   C72   A    
C65   H33   S    
Cu1   Cu2   S    
C29   C30   S    
C50   C51   A    
C14   C15   A    
Cu1   O5    S    
C32   H6    S    
C58   C59   A    
C64   H32   S    
C67   C68   A    
C22   O8    A    
C69   C70   A    
C77   C78   A    
C66   H34   S    
C16   C18   A    
C73   C78   A    
C12   C14   A    
C16   C23   A    
C40   H10   S    
C46   H17   S    
C13   C15   A    
C35   H7    S    
C76   C77   A    
Cu2   O8    S    
C8    C37   S    
C64   C65   A    
C74   C75   A    
C43   C48   A    
C68   C69   A    
Cu1   O1    S    
C9    C10   A    
C7    C9    A    
C3    C41   A    
C21   O5    A    
C57   H26   S    
C24   C28   A    
C44   C45   A    
C1    O1    A    
C48   H19   S    
C5    C8    A    
C52   H22   S    
C25   C61   S    
C6    C7    A    
C25   C27   A    
C62   C63   A    
C27   N2    A    
C1    C4    S    
C36   C38   A    
C2    C3    S    
C69   H36   S    
C37   C39   A    
C24   C55   S    
C13   H1    S    
C11   C13   A    
C71   H38   S    
C39   H9    S    
C4    C42   A    
C56   H25   S    
Cu2   N2    S    
Cu1   O6    S    
C15   C23   S    
C33   C35   A    
C7    C38   S    
C72   H39   S    
C73   C74   A    
C34   C36   A    
C68   H35   S    
C56   C57   A    
C2    O2    A    
C43   C44   A    
C8    C10   A    
C49   C50   A    
C51   H21   S    
C61   C66   A    
Cu2   O7    S    
C70   C71   A    
C11   H13   S    
C26   N2    A    
C55   C60   A    
C49   C54   A    
Cu1   O2    S    
