data_mof_unit_55288.cif
_audit_creation_date              2012-12-11T14:54:43-0500
_audit_creation_method            fapswitch 2.2
_symmetry_space_group_name_H-M    P1
_symmetry_Int_Tables_number       1
_space_group_crystal_system       triclinic
_cell_length_a                    19.059247
_cell_length_b                    11.218653
_cell_length_c                    18.727655
_cell_angle_alpha                 89.744324
_cell_angle_beta                  89.388711
_cell_angle_gamma                 90.326074
_cell_volume                      4003.9962287

loop_
_atom_site_label
_atom_site_type_symbol
_atom_type_description
_atom_site_fract_x
_atom_site_fract_y
_atom_site_fract_z
_atom_type_partial_charge
C1    C     C_R   0.731841 0.379710 0.647653 0.551547
C2    C     C_R   0.268736 0.375614 0.353580 0.601983
C3    C     C_R   0.230671 0.875199 0.645698 0.582432
C4    C     C_R   0.767949 0.879042 0.352011 0.567596
C5    C     C_3   0.537463 0.369024 0.457564 -0.100387
C6    C     C_3   0.548653 0.363019 0.538473 -0.106713
C7    C     C_3   0.955012 0.874066 0.469944 -0.076155
C8    C     C_3   0.984019 0.873381 0.546248 -0.083983
C9    C     C_R   0.685956 0.899391 0.531900 -0.020711
C10   C     C_R   0.298584 0.850875 0.459241 0.000654
C11   C     C_R   0.211345 0.358736 0.544265 0.015415
C12   C     C_R   0.825963 0.422735 0.473957 -0.031424
C13   C     C_R   0.693579 0.871867 0.459952 -0.166505
C14   C     C_R   0.294508 0.834792 0.533260 -0.157171
C15   C     C_R   0.216498 0.330524 0.471771 -0.131161
C16   C     C_R   0.818336 0.398641 0.547304 -0.194895
C17   C     C_R   0.739957 0.933397 0.416527 -0.002131
C18   C     C_R   0.255007 0.912454 0.575324 0.044468
C19   C     C_R   0.243131 0.414201 0.422604 0.051497
C20   C     C_R   0.760709 0.440300 0.584546 -0.006979
C21   C     C_R   0.769800 0.036397 0.440939 0.123861
C22   C     C_R   0.231724 0.015288 0.543775 0.108235
C23   C     C_R   0.255988 0.528668 0.444539 0.151975
C24   C     C_R   0.729289 0.540535 0.557963 0.210100
C25   C     C_R   0.776155 0.053559 0.514406 -0.062836
C26   C     C_R   0.207323 0.000048 0.474728 -0.042454
C27   C     C_R   0.274341 0.542109 0.515774 -0.046852
C28   C     C_R   0.718983 0.543349 0.484257 -0.038145
C29   C     C_R   0.731984 0.986344 0.562113 -0.046886
C30   C     C_R   0.250321 0.931803 0.427656 0.010613
C31   C     C_R   0.239416 0.468927 0.566256 -0.000499
C32   C     C_R   0.771099 0.489825 0.438900 -0.042499
C33   C     C_R   0.542893 0.068400 0.978792 0.101546
C34   C     C_R   0.543197 0.086749 0.051966 0.100110
C35   C     C_R   0.042897 0.568358 0.978813 0.101606
C36   C     C_R   0.043202 0.586694 0.051993 0.099519
C37   C     C_R   0.502930 0.177422 0.079317 0.010848
C38   C     C_R   0.519496 0.160023 0.932245 0.002475
C39   C     C_R   0.002969 0.677414 0.079341 0.007463
C40   C     C_R   0.019532 0.660017 0.932267 0.002528
C41   C     C_R   0.481325 0.271154 0.034813 -0.171110
C42   C     C_R   0.491930 0.264390 0.961471 -0.177787
C43   C     C_R   0.981413 0.771183 0.034843 -0.171843
C44   C     C_R   0.992006 0.764409 0.961500 -0.177641
C45   C     C_R   0.532638 0.153486 0.646921 0.544374
C46   C     C_R   0.467241 0.153554 0.353571 0.591136
C47   C     C_R   0.034579 0.652205 0.645924 0.553859
C48   C     C_R   0.966570 0.653934 0.353360 0.549127
C49   C     C_R   0.817013 0.958636 0.957784 -0.158020
C50   C     C_R   0.176240 0.898995 0.053458 -0.128984
C51   C     C_R   0.316932 0.458823 0.957832 -0.159595
C52   C     C_R   0.676208 0.399009 0.053470 -0.126697
C53   C     C_R   0.824049 0.932096 0.028579 -0.165929
C54   C     C_R   0.168039 0.879881 0.980889 -0.146941
C55   C     C_R   0.323985 0.432245 0.028614 -0.165880
C56   C     C_R   0.668016 0.379894 0.980896 -0.147695
C57   C     C_R   0.777898 0.852259 0.062313 0.006733
C58   C     C_R   0.225686 0.850500 0.937714 0.002793
C59   C     C_R   0.277872 0.352322 0.062328 0.007086
C60   C     C_R   0.725662 0.350445 0.937734 0.002574
C61   C     C_R   0.728493 0.788370 0.019756 0.101097
C62   C     C_R   0.291014 0.823950 0.970743 0.087385
C63   C     C_R   0.228483 0.288410 0.019767 0.101266
C64   C     C_R   0.790963 0.323790 0.970797 0.086906
C65   C     C_R   0.727537 0.808157 0.945446 0.103052
C66   C     C_R   0.297694 0.838374 0.045078 0.092532
C67   C     C_R   0.227529 0.308210 0.945462 0.104024
C68   C     C_R   0.797625 0.338205 0.045138 0.090092
C69   C     C_R   0.763901 0.905790 0.917481 0.012545
C70   C     C_R   0.242816 0.893655 0.083833 0.013858
C71   C     C_R   0.263870 0.405877 0.917508 0.012940
C72   C     C_R   0.742773 0.393595 0.083866 0.013075
C73   C     C_R   0.728702 0.015502 0.639182 0.531461
C74   C     C_R   0.258404 0.971301 0.353444 0.577819
C75   C     C_R   0.230514 0.510762 0.639265 0.553079
C76   C     C_R   0.771874 0.515512 0.360731 0.551304
C77   C     C_R   0.712995 0.335535 0.860551 0.559148
C78   C     C_R   0.288072 0.334093 0.139570 0.562161
C79   C     C_R   0.212999 0.835547 0.860548 0.559693
C80   C     C_R   0.788078 0.834080 0.139570 0.564931
C81   C     C_R   0.536904 0.155173 0.856059 0.546898
C82   C     C_R   0.468561 0.159024 0.147891 0.558480
C83   C     C_R   0.036925 0.655170 0.856072 0.545956
C84   C     C_R   0.968570 0.659024 0.147900 0.554332
C85   C     C_R   0.743817 0.966246 0.851423 0.574466
C86   C     C_R   0.257245 0.964997 0.148387 0.557829
C87   C     C_R   0.243810 0.466265 0.851430 0.579331
C88   C     C_R   0.757230 0.464964 0.148410 0.570506
C89   C     C_R   0.493613 0.154012 0.426400 0.017887
C90   C     C_R   0.501602 0.154485 0.576580 0.022137
C91   C     C_R   0.988572 0.655171 0.426607 -0.002210
C92   C     C_R   0.007050 0.645554 0.574555 0.019279
C93   C     C_R   0.490966 0.260679 0.464487 0.005764
C94   C     C_R   0.500989 0.258859 0.537175 -0.070505
C95   C     C_R   0.958767 0.740574 0.471845 -0.085275
C96   C     C_R   0.976718 0.742187 0.542025 -0.079589
C97   C     C_R   0.490400 0.045740 0.540145 0.086678
C98   C     C_R   0.496718 0.044341 0.465333 0.055088
C99   C     C_R   0.016842 0.539890 0.532709 0.051987
C100  C     C_R   0.016930 0.550322 0.457940 0.085227
Cr1   Cr    Cr6+3 0.771950 0.169480 0.750100 1.078693
Cr2   Cr    Cr6+3 0.228050 0.169480 0.249900 1.099862
Cr3   Cr    Cr6+3 0.271950 0.669480 0.750100 1.078414
Cr4   Cr    Cr6+3 0.728050 0.669480 0.249900 1.093532
Cr5   Cr    Cr6+3 0.614930 0.323340 0.749170 1.099231
Cr6   Cr    Cr6+3 0.385070 0.323340 0.250830 1.109201
Cr7   Cr    Cr6+3 0.114930 0.823340 0.749170 1.104742
Cr8   Cr    Cr6+3 0.885070 0.823340 0.250830 1.088368
Cr9   Cr    Cr6+3 0.616590 0.010620 0.750610 1.142169
Cr10  Cr    Cr6+3 0.383410 0.010620 0.249390 1.145794
Cr11  Cr    Cr6+3 0.116590 0.510620 0.750610 1.129067
Cr12  Cr    Cr6+3 0.883410 0.510620 0.249390 1.163226
H1    H     H_    0.851755 0.025761 0.935845 0.188420
H2    H     H_    0.131303 0.927392 0.084720 0.172507
H3    H     H_    0.351627 0.526049 0.935920 0.187206
H4    H     H_    0.631275 0.427459 0.084720 0.176663
H5    H     H_    0.863959 0.980476 0.057372 0.174656
H6    H     H_    0.116829 0.893032 0.957848 0.159645
H7    H     H_    0.363877 0.480659 0.057412 0.174702
H8    H     H_    0.616815 0.393099 0.957843 0.159690
H9    H     H_    0.899572 0.903581 0.466298 0.178940
H10   H     H_    0.040015 0.899775 0.550852 0.199976
H11   H     H_    0.508767 0.448976 0.438887 0.227252
H12   H     H_    0.603025 0.339726 0.554095 0.128543
H13   H     H_    0.663947 0.801279 0.436865 0.158585
H14   H     H_    0.322277 0.764481 0.558807 0.133688
H15   H     H_    0.204324 0.242264 0.453968 0.156056
H16   H     H_    0.857016 0.348435 0.575972 0.147673
H17   H     H_    0.454231 0.347077 0.056526 0.148738
H18   H     H_    0.475922 0.337750 0.927653 0.154351
H19   H     H_    0.954359 0.847143 0.056561 0.149155
H20   H     H_    0.976025 0.837793 0.927686 0.156031
O1    O     O_R   0.787510 0.042610 0.670410 -0.516129
O2    O     O_R   0.212490 0.042610 0.329590 -0.554763
O3    O     O_R   0.287510 0.542610 0.670410 -0.521857
O4    O     O_R   0.712490 0.542610 0.329590 -0.503565
O5    O     O_R   0.556450 0.252890 0.823790 -0.522676
O6    O     O_R   0.443550 0.252890 0.176210 -0.530317
O7    O     O_R   0.056450 0.752890 0.823790 -0.519332
O8    O     O_R   0.943550 0.752890 0.176210 -0.531678
O9    O     O_R   0.545750 0.051070 0.830560 -0.459683
O10   O     O_R   0.454250 0.051070 0.169440 -0.458461
O11   O     O_R   0.045750 0.551070 0.830560 -0.464146
O12   O     O_R   0.954250 0.551070 0.169440 -0.454662
O13   O     O_R   0.681210 0.959150 0.825320 -0.459668
O14   O     O_R   0.318790 0.959150 0.174680 -0.470020
O15   O     O_R   0.181210 0.459150 0.825320 -0.458083
O16   O     O_R   0.818790 0.459150 0.174680 -0.469771
O17   O     O_3   0.667820 0.167810 0.749960 -0.343542
O18   O     O_3   0.332180 0.167810 0.250040 -0.330905
O19   O     O_3   0.167820 0.667810 0.749960 -0.342396
O20   O     O_3   0.832180 0.667810 0.250040 -0.346032
O21   O     O_R   0.765670 0.292090 0.675090 -0.535901
O22   O     O_R   0.234330 0.292090 0.324910 -0.498697
O23   O     O_R   0.265670 0.792090 0.675090 -0.512543
O24   O     O_R   0.734330 0.792090 0.324910 -0.525326
O25   O     O_R   0.670220 0.409020 0.668560 -0.438281
O26   O     O_R   0.329780 0.409020 0.331440 -0.443799
O27   O     O_R   0.170220 0.909020 0.668560 -0.467482
O28   O     O_R   0.829780 0.909020 0.331440 -0.457131
O29   O     O_R   0.556580 0.251590 0.674980 -0.505632
O30   O     O_R   0.443420 0.251590 0.325020 -0.474039
O31   O     O_R   0.056580 0.751590 0.674980 -0.489380
O32   O     O_R   0.943420 0.751590 0.325020 -0.508336
O33   O     O_R   0.545890 0.049670 0.670030 -0.485869
O34   O     O_R   0.454110 0.049670 0.329970 -0.474280
O35   O     O_R   0.045890 0.549670 0.670030 -0.489590
O36   O     O_R   0.954110 0.549670 0.329970 -0.451152
O37   O     O_R   0.681340 0.957860 0.676500 -0.425183
O38   O     O_R   0.318660 0.957860 0.323500 -0.435937
O39   O     O_R   0.181340 0.457860 0.676500 -0.438527
O40   O     O_R   0.818660 0.457860 0.323500 -0.410923
O41   O     O_R   0.787380 0.044010 0.830940 -0.512080
O42   O     O_R   0.212620 0.044010 0.169060 -0.499936
O43   O     O_R   0.287380 0.544010 0.830940 -0.517779
O44   O     O_R   0.712620 0.544010 0.169060 -0.489200
O45   O     O_R   0.765540 0.293390 0.823910 -0.462470
O46   O     O_R   0.234460 0.293390 0.176090 -0.443347
O47   O     O_R   0.265540 0.793390 0.823910 -0.460520
O48   O     O_R   0.734460 0.793390 0.176090 -0.446131
O49   O     O_R   0.670090 0.410410 0.829090 -0.464179
O50   O     O_R   0.329910 0.410410 0.170910 -0.495500
O51   O     O_R   0.170090 0.910410 0.829090 -0.465606
O52   O     O_R   0.829910 0.910410 0.170910 -0.490868
I1    I     I_    0.453577 0.888404 0.596360 -0.279888
I2    I     I_    0.521038 0.877073 0.414680 -0.326194
I3    I     I_    0.025571 0.361274 0.577650 -0.244463
I4    I     I_    0.062789 0.407684 0.394793 -0.179000
I5    I     I_    0.642987 0.686445 0.061325 -0.218481
I6    I     I_    0.384105 0.775001 0.912343 -0.212143
I7    I     I_    0.142993 0.186420 0.061320 -0.216656
I8    I     I_    0.884046 0.274705 0.912448 -0.213863
I9    I     I_    0.683619 0.683226 0.872486 -0.158400
I10   I     I_    0.387012 0.763479 0.098759 -0.187139
I11   I     I_    0.183622 0.183264 0.872508 -0.155187
I12   I     I_    0.886839 0.263111 0.098901 -0.182147
C101  C     C_2   0.602152 0.342396 0.413587 0.211066
H21   H     H_    0.647378 0.300554 0.437682 0.111655
O53   O     O_2   0.603031 0.363942 0.349666 -0.453012
C102  C     C_2   0.515238 0.457289 0.584193 0.360532
H22   H     H_    0.459076 0.462957 0.587962 0.128979
O54   O     O_2   0.550573 0.520629 0.622672 -0.390481
C103  C     C_2   0.001386 0.928415 0.413728 0.324363
H23   H     H_    0.050543 0.885963 0.399363 0.087517
O55   O     O_2   0.982839 0.017783 0.381840 -0.403347
C104  C     C_2   0.936801 0.925729 0.602113 0.310680
H24   H     H_    0.881573 0.902999 0.603866 0.145293
O56   O     O_2   0.960442 0.994545 0.646153 -0.438799
C105  C     C_2   0.631683 0.827950 0.570448 0.351191
H25   H     H_    0.582190 0.815026 0.545354 0.179870
O57   O     O_2   0.643150 0.770695 0.624562 -0.371048
C106  C     C_2   0.350370 0.777159 0.419880 0.319634
H26   H     H_    0.396041 0.746406 0.447891 0.179552
O58   O     O_2   0.341719 0.744546 0.358496 -0.422611
C107  C     C_2   0.188021 0.265192 0.596161 0.311379
H27   H     H_    0.145053 0.207298 0.584228 0.201553
O59   O     O_2   0.219318 0.247634 0.651848 -0.427580
C108  C     C_2   0.890581 0.366998 0.443183 0.324737
H28   H     H_    0.928827 0.335026 0.479082 0.183862
O60   O     O_2   0.901894 0.343566 0.380972 -0.376202
I13   I     I_    0.782022 0.171539 0.362921 -0.138405
I14   I     I_    0.322668 0.127203 0.541810 -0.352977
I15   I     I_    0.187541 0.652752 0.396349 -0.356414
I16   I     I_    0.792500 0.682033 0.596267 -0.325830
C109  C     C_2   0.837171 0.123400 0.538191 0.207079
H29   H     H_    0.838609 0.164236 0.589694 0.167010
O61   O     O_2   0.890105 0.129152 0.501134 -0.456830
C110  C     C_2   0.137519 0.048592 0.456148 0.189151
H30   H     H_    0.119502 0.054356 0.402062 0.191713
O62   O     O_2   0.096727 0.081308 0.502450 -0.502788
C111  C     C_2   0.350422 0.556773 0.527410 0.189933
H31   H     H_    0.370026 0.586527 0.578287 0.143915
O63   O     O_2   0.392715 0.533912 0.480019 -0.523114
C112  C     C_2   0.650002 0.589717 0.460515 0.198482
H32   H     H_    0.635876 0.606925 0.406268 0.186275
O64   O     O_2   0.604089 0.610984 0.503922 -0.487755
I17   I     I_    0.556729 0.890660 0.947733 -0.160720
I18   I     I_    0.608263 0.991030 0.123741 -0.200155
I19   I     I_    0.056660 0.390610 0.947737 -0.164410
I20   I     I_    0.108142 0.490804 0.123822 -0.191123

loop_
_geom_bond_atom_site_label_1
_geom_bond_atom_site_label_2
_ccdc_geom_bond_type
C36   I20   S    
C49   H1    S    
C103  H23   S    
C49   C53   A    
C58   C62   A    
C93   C94   A    
Cr6   O18   S    
C55   C59   A    
Cr8   O32   S    
C34   C37   A    
C41   C42   A    
C14   C18   A    
Cr1   O41   S    
C95   C96   A    
C8    C96   S    
C97   I1    S    
C6    H12   S    
C44   H20   S    
C82   O10   A    
C8    H10   S    
C83   O7    A    
C97   C98   A    
C76   O4    A    
C7    C8    S    
Cr4   O44   S    
C46   C89   S    
C55   H7    S    
C31   C75   S    
C15   C19   A    
C103  O55   D    
C50   C54   A    
C87   O15   A    
C37   C41   A    
C64   C68   A    
C100  I4    S    
C85   O13   A    
C39   C84   S    
C38   C42   A    
C109  O61   D    
C107  O59   D    
C5    C6    S    
C30   C74   S    
C53   H5    S    
C106  O58   D    
Cr6   O6    S    
Cr3   O47   S    
C29   C73   S    
C84   O12   A    
C86   O42   A    
Cr12  O36   S    
C92   C96   A    
C9    C13   A    
C3    C18   S    
C76   O40   A    
C47   C92   S    
C12   C108  S    
C101  O53   D    
Cr3   O3    S    
Cr6   O50   S    
C45   O29   A    
Cr1   O17   S    
C72   C88   S    
Cr8   O20   S    
C52   C56   A    
C11   C15   A    
Cr10  O10   S    
Cr5   O25   S    
C35   C36   A    
C9    C105  S    
C102  H22   S    
C6    C94   S    
C48   C91   S    
C85   O41   A    
Cr12  O20   S    
C4    O28   A    
C23   C27   A    
C91   C100  A    
C66   C70   A    
C18   C22   A    
C46   O34   A    
Cr8   O28   S    
Cr2   O22   S    
C90   C97   A    
Cr11  O39   S    
C9    C29   A    
Cr10  O14   S    
Cr7   O19   S    
C10   C106  S    
C81   O9    A    
C57   C80   S    
C11   C31   A    
C2    O22   A    
C49   C69   A    
C12   C32   A    
C61   I5    S    
C56   H8    S    
C40   C83   S    
C112  O64   D    
C7    H9    S    
C67   I11   S    
C86   O14   A    
C59   C78   S    
C99   I3    S    
C110  H30   S    
C64   I8    S    
Cr9   O37   S    
C90   C94   A    
C65   I9    S    
Cr5   O17   S    
C52   H4    S    
C25   C29   A    
C68   I12   S    
Cr7   O27   S    
C63   C67   A    
C60   C77   S    
Cr8   O52   S    
C27   C31   A    
C12   C16   A    
C28   C32   A    
C35   I19   S    
C102  O54   D    
C105  H25   S    
C10   C14   A    
C26   C110  S    
Cr8   O8    S    
C62   C66   A    
C104  H24   S    
C43   H19   S    
Cr9   O9    S    
C39   C43   A    
C22   I14   S    
C51   C55   A    
C81   O5    A    
C89   C98   A    
C91   C95   A    
C77   O45   A    
Cr12  O16   S    
Cr7   O51   S    
C68   C72   A    
C78   O50   A    
Cr4   O48   S    
C19   C23   A    
C107  H27   S    
Cr2   O2    S    
C52   C72   A    
Cr11  O15   S    
C50   H2    S    
C47   O35   A    
C10   C30   A    
C77   O49   A    
C99   C100  A    
C48   O36   A    
Cr1   O21   S    
Cr9   O17   S    
C16   C20   A    
Cr3   O19   S    
C62   I6    S    
Cr3   O43   S    
C33   C34   A    
C88   O16   A    
C42   H18   S    
Cr4   O24   S    
C1    O21   A    
C45   C90   S    
C16   H16   S    
C3    O23   A    
C2    O26   A    
Cr9   O33   S    
C58   C79   S    
Cr2   O18   S    
C61   C65   A    
C71   C87   S    
C4    C17   S    
Cr10  O38   S    
Cr3   O23   S    
C4    O24   A    
C23   I15   S    
C26   C30   A    
Cr1   O1    S    
C54   H6    S    
C38   C81   S    
C22   C26   A    
C110  O62   D    
Cr2   O46   S    
C5    C101  S    
Cr5   O29   S    
C37   C82   S    
C6    C102  S    
Cr11  O35   S    
C7    C103  S    
C73   O37   A    
C70   C86   S    
C80   O48   A    
C69   C85   S    
C24   C28   A    
C54   C58   A    
C27   C111  S    
C65   C69   A    
C21   C25   A    
C1    C20   S    
C53   C57   A    
C21   I13   S    
Cr4   O4    S    
C109  H29   S    
C2    C19   S    
C78   O46   A    
C36   C39   A    
Cr9   O13   S    
C8    C104  S    
C80   O52   A    
C73   O1    A    
Cr10  O18   S    
Cr11  O19   S    
C32   C76   S    
C5    C93   S    
C7    C95   S    
C51   C71   A    
C57   C61   A    
C48   O32   A    
Cr11  O11   S    
Cr2   O42   S    
C87   O43   A    
C5    H11   S    
C75   O39   A    
C59   C63   A    
C33   C38   A    
C14   H14   S    
C13   C17   A    
C108  O60   D    
C60   C64   A    
Cr4   O20   S    
C1    O25   A    
C35   C40   A    
C50   C70   A    
C47   O31   A    
C98   I2    S    
Cr6   O26   S    
C41   H17   S    
Cr10  O34   S    
Cr12  O12   S    
C108  H28   S    
Cr12  O40   S    
C75   O3    A    
C45   O33   A    
C43   C44   A    
C63   I7    S    
C74   O2    A    
C25   C109  S    
C105  O57   D    
C79   O51   A    
C67   C71   A    
Cr6   O30   S    
C24   I16   S    
C89   C93   A    
C101  H21   S    
C34   I18   S    
C51   H3    S    
C74   O38   A    
C33   I17   S    
C111  O63   D    
C3    O27   A    
Cr5   O5    S    
C56   C60   A    
C88   O44   A    
C40   C44   A    
C79   O47   A    
C106  H26   S    
C84   O8    A    
C82   O6    A    
C112  H32   S    
C28   C112  S    
C111  H31   S    
C83   O11   A    
C15   H15   S    
Cr7   O31   S    
Cr5   O49   S    
C66   I10   S    
C104  O56   D    
C46   O30   A    
C13   H13   S    
C20   C24   A    
Cr1   O45   S    
Cr7   O7    S    
C92   C99   A    
C11   C107  S    
C17   C21   A    
