data_mof_unit_53808.cif
_audit_creation_date              2012-12-10T19:03:41-0500
_audit_creation_method            fapswitch 2.2
_symmetry_space_group_name_H-M    P1
_symmetry_Int_Tables_number       1
_space_group_crystal_system       triclinic
_cell_length_a                    15.877615
_cell_length_b                    10.812526
_cell_length_c                    9.546344
_cell_angle_alpha                 89.929032
_cell_angle_beta                  89.462749
_cell_angle_gamma                 90.157606
_cell_volume                      1638.80933336

loop_
_atom_site_label
_atom_site_type_symbol
_atom_type_description
_atom_site_fract_x
_atom_site_fract_y
_atom_site_fract_z
_atom_type_partial_charge
C1    C     C_R   0.497852 0.262324 0.500049 0.802369
C2    C     C_3   0.949249 0.415449 0.615990 -0.443779
C3    C     C_3   0.917191 0.501472 0.498244 0.214234
C4    C     C_3   0.950128 0.634258 0.525077 -0.472127
C5    C     C_3   0.048099 0.636755 0.521628 -0.183933
C6    C     C_1   0.825023 0.500746 0.496992 -0.054137
C7    C     C_1   0.175157 0.501314 0.503377 0.018412
C8    C     C_1   0.250657 0.500577 0.502410 -0.156529
C9    C     C_R   0.485085 0.063476 0.625644 0.161958
C10   C     C_R   0.488333 0.129286 0.499844 -0.105633
C11   C     C_R   0.478967 0.064590 0.373168 -0.223283
C12   C     C_R   0.340239 0.499946 0.500707 0.825290
C13   C     C_R   0.479365 0.935670 0.373059 -0.211870
C14   C     C_R   0.489064 0.870775 0.499618 -0.096339
C15   C     C_R   0.485650 0.936219 0.625475 0.136439
C16   C     C_3   0.541664 0.930193 0.750125 -0.499958
C17   C     C_3   0.540688 0.070609 0.750755 -0.446725
C18   C     C_R   0.541255 0.590666 0.072870 0.241243
C19   C     C_R   0.452673 0.417850 0.075783 -0.185266
C20   C     C_R   0.450589 0.419174 0.925804 0.527790
C21   C     C_R   0.541567 0.590339 0.925634 0.173407
C22   C     C_3   0.633498 0.618646 0.918803 -0.487536
C23   C     C_R   0.498257 0.737718 0.499903 0.799138
C24   C     C_3   0.633047 0.619626 0.077743 -0.484373
C25   C     C_R   0.659794 0.500066 0.499313 0.818879
C26   C     C_3   0.047119 0.417405 0.622079 0.241368
C27   C     C_3   0.051027 0.451680 0.359142 0.310619
C28   C     C_3   0.953077 0.455332 0.356164 -0.424988
C29   C     C_1   0.749464 0.500358 0.497709 -0.200659
C30   C     C_3   0.082717 0.502054 0.502660 0.122478
Cu1   Cu    Cu3+1 0.500000 0.499980 0.640670 0.978648
Cu2   Cu    Cu3+1 0.500000 0.500020 0.359330 0.942663
H1    H     H_    0.926143 0.319597 0.597374 0.193990
H2    H     H_    0.066336 0.458872 0.723751 0.060856
H3    H     H_    0.923011 0.445466 0.718993 0.135532
H4    H     H_    0.925796 0.698136 0.443416 0.183027
H5    H     H_    0.475847 0.112840 0.273840 0.164275
H6    H     H_    0.476497 0.887658 0.273689 0.166108
H7    H     H_    0.509365 0.888591 0.842728 0.204328
H8    H     H_    0.604624 0.890941 0.724711 0.192332
H9    H     H_    0.507439 0.109912 0.843463 0.227535
H10   H     H_    0.603125 0.112785 0.726573 0.190005
H11   H     H_    0.417421 0.348847 0.133866 0.157553
H12   H     H_    0.671324 0.541617 0.874087 0.216900
H13   H     H_    0.646590 0.710936 0.872172 0.190373
H14   H     H_    0.670866 0.543462 0.123394 0.217202
H15   H     H_    0.645327 0.712661 0.122700 0.190773
H16   H     H_    0.071384 0.352977 0.350587 0.111959
H17   H     H_    0.928464 0.361066 0.333310 0.134255
H18   H     H_    0.931307 0.517026 0.270411 0.193089
H19   H     H_    0.068301 0.692733 0.429098 0.226419
H20   H     H_    0.924912 0.667746 0.627488 0.166790
N1    N     N_R   0.500530 0.500930 0.147930 -0.203931
N2    N     N_R   0.500530 0.500890 0.852020 -0.222507
O1    O     O_R   0.500000 0.319640 0.618810 -0.530411
O2    O     O_R   0.500010 0.319680 0.381230 -0.593849
O3    O     O_R   0.379430 0.499990 0.618840 -0.558689
O4    O     O_R   0.379440 0.500030 0.381260 -0.575211
O5    O     O_R   0.499990 0.680320 0.618770 -0.577477
O6    O     O_R   0.500000 0.680360 0.381190 -0.584043
O7    O     O_R   0.620560 0.499970 0.618740 -0.583290
O8    O     O_R   0.620570 0.500010 0.381160 -0.575679
O9    O     O_3   0.079550 0.295768 0.606562 -0.580523
C31   C     C_3   0.082648 0.234817 0.737433 0.014211
H21   H     H_    0.019124 0.230562 0.787605 0.140505
H22   H     H_    0.127048 0.282716 0.808702 0.131916
C32   C     C_3   0.114002 0.103453 0.715556 -0.687204
H23   H     H_    0.178034 0.105100 0.667673 0.253163
H24   H     H_    0.116832 0.054631 0.817808 0.199665
H25   H     H_    0.070613 0.052477 0.645466 0.260650
O10   O     O_3   0.406040 0.330355 0.852442 -0.557557
C33   C     C_3   0.320363 0.324922 0.894748 0.043433
H26   H     H_    0.281085 0.342590 0.801223 0.180496
H27   H     H_    0.301283 0.394886 0.974627 0.117038
C34   C     C_3   0.299784 0.195794 0.949127 -0.845360
H28   H     H_    0.339343 0.173600 0.040996 0.238218
H29   H     H_    0.232470 0.190817 0.981243 0.204439
H30   H     H_    0.311768 0.126356 0.865666 0.263415
O11   O     O_3   0.084625 0.526070 0.249155 -0.578492
C35   C     C_3   0.106212 0.453720 0.131334 0.043162
H31   H     H_    0.050029 0.403579 0.091252 0.127924
H32   H     H_    0.156555 0.386312 0.157839 0.143201
C36   C     C_3   0.139801 0.538634 0.016693 -0.782888
H33   H     H_    0.196831 0.588063 0.053647 0.257236
H34   H     H_    0.156775 0.483950 0.922484 0.169473
H35   H     H_    0.091035 0.607460 0.988725 0.244833
C37   C     C_2   0.082115 0.700918 0.649966 0.323114
H36   H     H_    0.062529 0.671465 0.753777 0.067075
O12   O     O_2   0.131080 0.787607 0.637881 -0.547158

loop_
_geom_bond_atom_site_label_1
_geom_bond_atom_site_label_2
_ccdc_geom_bond_type
C2    H3    S    
C27   H16   S    
C37   H36   S    
C4    H4    S    
C33   H27   S    
C18   C21   A    
Cu1   O7    S    
C19   C20   A    
Cu2   O4    S    
C34   H28   S    
C3    C6    S    
C7    C8    T    
C23   O5    A    
C4    H20   S    
C18   C24   S    
C3    C28   S    
C1    O2    A    
C27   O11   S    
C33   C34   S    
C21   N2    A    
C15   C16   S    
Cu1   O5    S    
C11   H5    S    
C17   H10   S    
C18   N1    A    
C28   H18   S    
C26   H2    S    
C22   H12   S    
C36   H33   S    
C16   C17   S    
C20   O10   S    
C9    C10   A    
C12   O4    A    
C19   N1    A    
C7    C30   S    
C13   C14   A    
C27   C30   S    
C20   N2    A    
C35   C36   S    
C19   H11   S    
C25   C29   S    
C23   O6    A    
C32   H23   S    
C31   C32   S    
C35   H32   S    
C33   H26   S    
O9    C31   S    
C32   H24   S    
C31   H22   S    
C14   C23   S    
C26   O9    S    
C28   H17   S    
Cu1   Cu2   S    
C8    C12   S    
C22   H13   S    
C36   H35   S    
C2    C26   S    
C25   O7    A    
C34   H29   S    
C13   H6    S    
C16   H8    S    
C12   O3    A    
C2    H1    S    
C9    C17   S    
C36   H34   S    
C26   C30   S    
C37   O12   D    
C22   C24   S    
Cu2   O6    S    
C3    C4    S    
Cu2   N1    S    
C5    C30   S    
C24   H15   S    
C1    C10   S    
C35   H31   S    
C32   H25   S    
C24   H14   S    
C31   H21   S    
Cu1   O3    S    
C2    C3    S    
C1    O1    A    
Cu2   O8    S    
O10   C33   S    
C11   C13   A    
C25   O8    A    
Cu1   N2    S    
C9    C15   A    
C34   H30   S    
C17   H9    S    
C10   C11   A    
C16   H7    S    
O11   C35   S    
C5    C37   S    
C4    C5    S    
C6    C29   T    
C27   C28   S    
C14   C15   A    
C5    H19   S    
Cu1   O1    S    
C21   C22   S    
Cu2   O2    S    
