data_mof_unit_48426.cif
_audit_creation_date              2012-12-10T17:12:01-0500
_audit_creation_method            fapswitch 2.2
_symmetry_space_group_name_H-M    P1
_symmetry_Int_Tables_number       1
_space_group_crystal_system       triclinic
_cell_length_a                    11.65699
_cell_length_b                    13.00452
_cell_length_c                    15.814046
_cell_angle_alpha                 92.200956
_cell_angle_beta                  74.054755
_cell_angle_gamma                 99.842234
_cell_volume                      2271.05208875

loop_
_atom_site_label
_atom_site_type_symbol
_atom_type_description
_atom_site_fract_x
_atom_site_fract_y
_atom_site_fract_z
_atom_type_partial_charge
C1    C     C_R   0.520800 0.700881 0.501274 0.810806
C2    C     C_R   0.479198 0.299116 0.498728 0.811697
C3    C     C_R   0.358769 0.530113 0.089028 -0.244964
C4    C     C_R   0.648413 0.559611 0.913136 -0.239908
C5    C     C_R   0.272373 0.523338 0.041552 0.238457
C6    C     C_R   0.735019 0.567738 0.960732 0.242293
C7    C     C_R   0.467195 0.185713 0.497987 -0.053744
C8    C     C_R   0.532798 0.814276 0.502021 -0.052899
C9    C     C_R   0.652000 0.984659 0.508561 -0.213796
C10   C     C_R   0.347989 0.015326 0.491454 -0.214135
C11   C     C_R   0.641146 0.876573 0.508081 -0.195198
C12   C     C_R   0.358845 0.123413 0.491932 -0.194453
C13   C     C_R   0.435200 0.860771 0.496563 -0.265856
C14   C     C_R   0.564791 0.139215 0.503447 -0.265168
C15   C     C_R   0.445364 0.968784 0.496992 0.175622
C16   C     C_R   0.554625 0.031201 0.503021 0.175679
C17   C     C_R   0.940910 0.597061 0.581510 -0.351875
C18   C     C_R   0.059765 0.404078 0.417367 -0.353308
C19   C     C_R   0.822267 0.587437 0.573990 0.083465
C20   C     C_R   0.178115 0.413203 0.425438 0.083294
C21   C     C_R   0.859662 0.458470 0.464333 0.018147
C22   C     C_R   0.140484 0.541843 0.535342 0.018862
C23   C     C_R   0.426948 0.496115 0.668371 0.801288
C24   C     C_R   0.573214 0.505578 0.331687 0.800016
C25   C     C_R   0.979760 0.465276 0.469825 0.071558
C26   C     C_R   0.020605 0.535356 0.529493 0.074573
C27   C     C_R   0.384214 0.500514 0.764849 -0.054637
C28   C     C_R   0.617446 0.516418 0.235493 -0.054357
C29   C     C_R   0.225299 0.506878 0.899460 -0.183057
C30   C     C_R   0.779680 0.553155 0.102033 -0.183400
C31   C     C_R   0.262217 0.499677 0.808175 -0.199784
C32   C     C_R   0.740938 0.537823 0.192778 -0.198278
C33   C     C_R   0.468701 0.509267 0.813726 -0.231047
C34   C     C_R   0.533396 0.509926 0.186506 -0.226863
C35   C     C_R   0.435239 0.522593 0.905419 0.066184
C36   C     C_R   0.569455 0.531742 0.095724 0.067255
C37   C     C_R   0.310353 0.518004 0.949216 0.089233
C38   C     C_R   0.695393 0.551227 0.052409 0.086712
C39   C     C_R   0.522673 0.536694 0.954361 0.008141
C40   C     C_R   0.483058 0.531600 0.047179 0.009094
Cu1   Cu    Cu3+1 0.386820 0.492450 0.493500 0.935521
Cu2   Cu    Cu3+1 0.613180 0.507550 0.506500 0.935210
H1    H     H_    0.239306 0.365738 0.384867 0.122569
H2    H     H_    0.761252 0.635173 0.614387 0.121298
H3    H     H_    0.970159 0.652464 0.627326 0.135128
H4    H     H_    0.031188 0.349658 0.370593 0.138478
H5    H     H_    0.439587 0.485246 0.220635 0.146636
H6    H     H_    0.560365 0.502398 0.778825 0.151259
H7    H     H_    0.807603 0.542805 0.229459 0.151376
H8    H     H_    0.195147 0.492646 0.771648 0.152799
H9    H     H_    0.129582 0.503440 0.930552 0.164345
H10   H     H_    0.876192 0.566829 0.071426 0.148737
H11   H     H_    0.327760 0.540362 0.158902 0.156996
H12   H     H_    0.680712 0.577919 0.844101 0.151634
H13   H     H_    0.648804 0.186831 0.508066 0.152815
H14   H     H_    0.351188 0.813155 0.491942 0.152253
H15   H     H_    0.282494 0.158083 0.487602 0.157180
H16   H     H_    0.717496 0.841902 0.512413 0.156689
H17   H     H_    0.736227 0.031704 0.513234 0.135572
H18   H     H_    0.263761 0.968280 0.486784 0.135132
H19   H     H_    0.173016 0.595245 0.581121 0.115762
H20   H     H_    0.827059 0.405031 0.418613 0.117257
N1    N     N_R   0.216750 0.481110 0.483710 -0.178036
N2    N     N_R   0.783250 0.518890 0.516290 -0.177715
O1    O     O_R   0.419950 0.645670 0.495380 -0.588214
O2    O     O_R   0.580050 0.354330 0.504620 -0.587411
O3    O     O_R   0.611110 0.658410 0.506370 -0.591133
O4    O     O_R   0.388890 0.341590 0.493630 -0.590247
O5    O     O_R   0.350820 0.490050 0.621260 -0.584314
O6    O     O_R   0.649180 0.509950 0.378740 -0.585424
O7    O     O_R   0.541970 0.502800 0.632250 -0.589207
O8    O     O_R   0.458030 0.497200 0.367750 -0.589496
N3    N     N_2   0.147211 0.522834 0.085445 -0.435015
H21   H     H_    0.112089 0.585077 0.070189 0.240189
C41   C     C_3   0.098447 0.485161 0.175340 -0.698862
H22   H     H_    0.998329 0.467155 0.190901 0.224769
H23   H     H_    0.123161 0.545845 0.221561 0.223663
H24   H     H_    0.131937 0.412346 0.184162 0.235828
N4    N     N_2   0.861952 0.593932 0.918122 -0.435998
H25   H     H_    0.905791 0.658874 0.942820 0.243489
C42   C     C_3   0.906975 0.581201 0.824103 -0.709001
H26   H     H_    0.006977 0.587959 0.806075 0.222105
H27   H     H_    0.884055 0.643404 0.788583 0.215016
H28   H     H_    0.868898 0.502878 0.803929 0.244720

loop_
_geom_bond_atom_site_label_1
_geom_bond_atom_site_label_2
_ccdc_geom_bond_type
C8    C13   A    
C5    C37   A    
C1    C8    S    
N3    H21   S    
C23   O5    A    
C10   H18   S    
C2    C7    S    
C42   H28   S    
C42   H26   S    
C24   O6    A    
C27   C33   A    
C17   C26   A    
C35   C37   A    
C9    C16   A    
C17   H3    S    
C2    O4    A    
C10   C15   A    
C15   C16   A    
Cu2   O6    S    
C30   C38   A    
Cu1   Cu2   S    
C21   N2    A    
C30   H10   S    
C33   C35   A    
C22   N1    A    
C7    C14   A    
C1    O1    A    
C6    C38   A    
C23   C27   S    
C11   H16   S    
C34   C36   A    
C13   H14   S    
C14   H13   S    
C28   C34   A    
N3    C41   S    
C18   C25   A    
C18   H4    S    
C42   H27   S    
Cu1   O4    S    
C7    C12   A    
C27   C31   A    
C23   O7    A    
C36   C40   A    
C4    C6    A    
C39   C40   A    
N4    C42   S    
Cu1   O1    S    
C3    C5    A    
C25   C26   A    
C9    H17   S    
C35   C39   A    
C41   H22   S    
C9    C11   A    
C4    C39   A    
C28   C32   A    
C19   N2    A    
C41   H23   S    
C21   H20   S    
C10   C12   A    
Cu1   O8    S    
C12   H15   S    
C3    C40   A    
C13   C15   A    
Cu2   O3    S    
C14   C16   A    
Cu1   N1    S    
C31   H8    S    
Cu2   N2    S    
C20   H1    S    
C19   H2    S    
C24   O8    A    
Cu1   O5    S    
C29   H9    S    
C21   C25   A    
C4    H12   S    
C24   C28   S    
C2    O2    A    
C1    O3    A    
C20   N1    A    
C36   C38   A    
C29   C31   A    
C22   H19   S    
C30   C32   A    
C3    H11   S    
C6    N4    S    
C8    C11   A    
Cu2   O7    S    
C17   C19   A    
C18   C20   A    
C5    N3    S    
C41   H24   S    
C32   H7    S    
N4    H25   S    
C22   C26   A    
C29   C37   A    
Cu2   O2    S    
C33   H6    S    
C34   H5    S    
