data_mof_unit_29721.cif
_audit_creation_date              2012-12-10T17:00:45-0500
_audit_creation_method            fapswitch 2.2
_symmetry_space_group_name_H-M    P1
_symmetry_Int_Tables_number       1
_space_group_crystal_system       triclinic
_cell_length_a                    10.437666
_cell_length_b                    10.860164
_cell_length_c                    10.187298
_cell_angle_alpha                 93.569649
_cell_angle_beta                  104.723026
_cell_angle_gamma                 90.002573
_cell_volume                      1114.54489569

loop_
_atom_site_label
_atom_site_type_symbol
_atom_type_description
_atom_site_fract_x
_atom_site_fract_y
_atom_site_fract_z
_atom_type_partial_charge
C1    C     C_R   0.493303 0.264834 0.493947 0.992667
C2    C     C_2   0.114300 0.467783 0.396951 0.360339
C3    C     C_2   0.034816 0.495105 0.480018 0.283893
C4    C     C_2   0.869404 0.421661 0.590394 0.241098
C5    C     C_2   0.932358 0.402671 0.491439 0.361725
C6    C     C_2   0.553295 0.935183 0.435200 0.362673
C7    C     C_3   0.846736 0.245631 0.338024 -0.049708
C8    C     C_3   0.347459 0.354422 0.829365 -0.084534
C9    C     C_2   0.716906 0.603614 0.194558 0.945297
C10   C     C_2   0.488168 0.370570 0.126812 1.144811
C11   C     C_3   0.098939 0.602279 0.691019 -0.360383
C12   C     C_2   0.513205 0.869348 0.524783 0.215372
C13   C     C_3   0.900483 0.370290 0.812578 -0.200253
C14   C     C_3   0.062816 0.424466 0.165797 -0.201467
C15   C     C_3   0.575417 0.971119 0.217313 -0.148409
C16   C     C_3   0.375901 0.909741 0.668002 -0.181597
C17   C     C_3   0.802638 0.028132 0.565623 -0.166067
C18   C     C_2   0.328518 0.095795 0.416375 0.820075
C19   C     C_2   0.647211 0.674352 0.913882 0.920152
C20   C     C_2   0.576993 0.066318 0.475788 0.350525
C21   C     C_2   0.470274 0.136264 0.471515 -0.268698
C22   C     C_2   0.578428 0.568263 0.950533 0.053987
C23   C     C_2   0.593795 0.551130 0.101044 -0.085186
C24   C     C_R   0.255824 0.500985 0.440884 0.824604
C25   C     C_R   0.500272 0.736957 0.504724 0.872770
C26   C     C_R   0.743202 0.489268 0.557974 0.807006
H1    H     H_    0.862444 0.149186 0.304023 0.161262
H2    H     H_    0.026923 0.643319 0.743970 0.187436
H3    H     H_    0.192351 0.657333 0.725235 0.202849
H4    H     H_    0.806965 0.370049 0.845572 0.234147
H5    H     H_    0.947359 0.463888 0.834638 0.130052
H6    H     H_    0.968991 0.306011 0.875244 0.154253
H7    H     H_    0.136221 0.382790 0.115699 0.210253
H8    H     H_    0.072710 0.527007 0.167848 0.168862
H9    H     H_    0.963327 0.397327 0.101332 0.185489
H10   H     H_    0.673204 0.018525 0.253127 0.135425
H11   H     H_    0.493832 0.038633 0.200799 0.160741
H12   H     H_    0.843799 0.303860 0.251505 0.189076
H13   H     H_    0.571963 0.922780 0.117532 0.228035
H14   H     H_    0.374074 0.830012 0.730455 0.202042
H15   H     H_    0.296489 0.897047 0.571443 0.134534
H16   H     H_    0.351503 0.992961 0.725180 0.184660
H17   H     H_    0.814479 0.972387 0.474351 0.139950
H18   H     H_    0.781388 0.967952 0.642233 0.162818
H19   H     H_    0.898719 0.075999 0.612477 0.234954
H20   H     H_    0.193938 0.978020 0.293818 0.353270
H21   H     H_    0.807581 0.737893 0.861512 0.334534
H22   H     H_    0.749358 0.250590 0.362859 0.186014
H23   H     H_    0.314788 0.346138 0.717659 0.203718
H24   H     H_    0.286710 0.421145 0.873551 0.095305
H25   H     H_    0.329372 0.261881 0.861890 0.151896
H26   H     H_    0.804812 0.722600 0.351175 0.337335
H27   H     H_    0.368898 0.221313 0.111528 0.319327
H28   H     H_    0.120337 0.506922 0.723005 0.145846
N1    N     N_2   0.501330 0.501330 0.852460 0.020487
N2    N     N_2   0.501370 0.501360 0.148130 -0.219366
O1    O     O_R   0.499980 0.319060 0.613030 -0.552487
O2    O     O_3   0.483454 0.383761 0.878260 -0.518236
O3    O     O_2   0.823478 0.571635 0.176609 -0.683788
O4    O     O_R   0.713249 0.693714 0.296692 -0.717036
O5    O     O_2   0.583929 0.306463 0.122705 -0.679842
O6    O     O_R   0.366474 0.314632 0.122047 -0.832501
O7    O     O_3   0.048460 0.610764 0.549587 -0.669032
O8    O     O_3   0.875473 0.325410 0.675347 -0.556765
O9    O     O_3   0.078172 0.375233 0.293984 -0.584497
O10   O     O_3   0.559169 0.882878 0.307971 -0.570855
O11   O     O_3   0.504211 0.926732 0.648699 -0.606549
O12   O     O_R   0.500020 0.319100 0.386910 -0.643771
O13   O     O_3   0.703900 0.117797 0.530267 -0.601521
O14   O     O_2   0.241627 0.155235 0.450930 -0.580405
O15   O     O_R   0.293152 0.993985 0.322831 -0.816590
O16   O     O_2   0.597703 0.776276 0.912194 -0.641339
O17   O     O_R   0.770301 0.658452 0.885225 -0.799295
O18   O     O_R   0.317800 0.500000 0.570840 -0.648853
O19   O     O_R   0.317840 0.500040 0.344720 -0.595352
O20   O     O_R   0.499980 0.680900 0.613090 -0.613703
O21   O     O_R   0.500020 0.680940 0.386970 -0.523608
O22   O     O_R   0.682160 0.499960 0.655280 -0.558100
O23   O     O_R   0.682200 0.500000 0.429160 -0.639864
O24   O     O_3   0.951405 0.281068 0.451914 -0.544788
Zn1   Zn    Zn3+2 0.499970 0.499970 0.650990 1.021039
Zn2   Zn    Zn3+2 0.500030 0.500030 0.349010 1.011844

loop_
_geom_bond_atom_site_label_1
_geom_bond_atom_site_label_2
_ccdc_geom_bond_type
C18   O14   D    
C1    C21   S    
C16   H16   S    
C18   C21   S    
C13   H6    S    
C2    O9    S    
C14   H7    S    
C23   N2    D    
C17   O13   S    
C26   O22   A    
C25   O21   A    
O21   Zn2   S    
C17   H19   S    
C11   O7    S    
C6    C12   D    
C1    O12   A    
C7    H1    S    
C15   H11   S    
H26   O4    S    
C8    O2    S    
C14   O9    S    
N1    Zn1   S    
C10   N2    S    
C19   O16   D    
C10   O6    S    
C12   O11   S    
C13   H4    S    
C19   O17   S    
C19   C22   S    
H21   O17   S    
C14   H9    S    
C9    C23   S    
C15   O10   S    
C9    O3    D    
C17   H17   S    
C1    O1    A    
H27   O6    S    
C24   O19   A    
C16   O11   S    
C5    O24   S    
C8    H25   S    
C15   H13   S    
H20   O15   S    
C11   H28   S    
C16   H14   S    
C2    C24   S    
O1    Zn1   S    
C20   O13   S    
C10   O5    D    
O18   Zn1   S    
C8    H24   S    
C15   H10   S    
C18   O15   S    
C13   H5    S    
C4    C5    D    
C3    C5    S    
O20   Zn1   S    
C14   H8    S    
O23   Zn2   S    
C4    C26   S    
O19   Zn2   S    
N2    Zn2   S    
C22   N1    D    
C3    O7    S    
C6    C20   S    
C4    O8    S    
C26   O23   A    
C12   C25   S    
C25   O20   A    
O12   Zn2   S    
C7    H22   S    
C9    O4    S    
C2    C3    D    
C17   H18   S    
O22   Zn1   S    
C24   O18   A    
C13   O8    S    
C11   H2    S    
C8    H23   S    
C7    H12   S    
C6    O10   S    
C20   C21   D    
C11   H3    S    
N1    O2    S    
C22   C23   S    
C16   H15   S    
C7    O24   S    
