data_mof_unit_33899.cif
_audit_creation_date              2012-12-10T20:37:33-0500
_audit_creation_method            fapswitch 2.2
_symmetry_space_group_name_H-M    P1
_symmetry_Int_Tables_number       1
_space_group_crystal_system       triclinic
_cell_length_a                    15.7084
_cell_length_b                    10.662823
_cell_length_c                    9.89401
_cell_angle_alpha                 90.465673
_cell_angle_beta                  90.605366
_cell_angle_gamma                 90.775902
_cell_volume                      1656.9048696

loop_
_atom_site_label
_atom_site_type_symbol
_atom_type_description
_atom_site_fract_x
_atom_site_fract_y
_atom_site_fract_z
_atom_type_partial_charge
C1    C     C_R   0.497603 0.260044 0.499706 0.897528
C2    C     C_R   0.484083 0.128452 0.501355 -0.158218
C3    C     C_R   0.447065 0.065490 0.390325 -0.175482
C4    C     C_R   0.337942 0.499858 0.499350 0.905439
C5    C     C_R   0.440678 0.934639 0.390800 -0.035440
C6    C     C_R   0.476653 0.870705 0.502680 -0.203747
C7    C     C_R   0.496947 0.937177 0.620684 0.139700
C8    C     C_3   0.572326 0.929816 0.713929 -0.458203
C9    C     C_3   0.575153 0.071850 0.713355 -0.453684
C10   C     C_R   0.446747 0.421175 0.069420 0.107118
C11   C     C_R   0.558441 0.567520 0.075178 -0.066826
C12   C     C_3   0.082655 0.499802 0.498613 0.191206
C13   C     C_R   0.559234 0.568361 0.931338 0.007023
C14   C     C_R   0.446611 0.421427 0.927102 0.190080
C15   C     C_3   0.351697 0.418812 0.919519 -0.561123
C16   C     C_R   0.493818 0.739545 0.500227 0.855352
C17   C     C_3   0.351811 0.418535 0.073514 -0.228990
C18   C     C_R   0.662073 0.500209 0.500653 0.905189
C19   C     C_3   0.971591 0.392747 0.555301 -0.168679
C20   C     C_3   0.026358 0.401287 0.426584 -0.140177
C21   C     C_1   0.248945 0.499832 0.498052 -0.140557
C22   C     C_1   0.751113 0.500189 0.501951 -0.170118
C23   C     C_3   0.973773 0.598452 0.573167 -0.153850
C24   C     C_3   0.029705 0.491261 0.627319 -0.163091
C25   C     C_2   0.624171 0.647894 0.865277 0.384778
C26   C     C_2   0.318018 0.298549 0.132271 0.466110
C27   C     C_2   0.397023 0.868896 0.275968 0.428467
C28   C     C_3   0.917454 0.499944 0.501147 0.195704
C29   C     C_3   0.028529 0.606988 0.444452 -0.167670
C30   C     C_3   0.970415 0.508477 0.372432 -0.156555
C31   C     C_1   0.173576 0.499793 0.497807 -0.046544
C32   C     C_1   0.826503 0.500094 0.502084 -0.060935
C33   C     C_R   0.499832 0.064593 0.620240 0.135911
H1    H     H_    0.050109 0.320806 0.366622 0.162644
H2    H     H_    0.943981 0.515511 0.268300 0.149922
H3    H     H_    0.054016 0.694477 0.399081 0.143711
H4    H     H_    0.950085 0.678975 0.633122 0.147224
H5    H     H_    0.056176 0.484224 0.731433 0.144192
H6    H     H_    0.425141 0.117692 0.303451 0.195824
H7    H     H_    0.554981 0.891001 0.813995 0.219546
H8    H     H_    0.618785 0.672513 0.760817 0.136311
H9    H     H_    0.341229 0.208705 0.096942 0.085904
H10   H     H_    0.373937 0.773207 0.286288 0.082515
H11   H     H_    0.628551 0.886906 0.665312 0.196987
H12   H     H_    0.559256 0.114577 0.812660 0.215062
H13   H     H_    0.632822 0.111537 0.664311 0.198694
H14   H     H_    0.603476 0.624269 0.133311 0.191727
H15   H     H_    0.325439 0.506341 0.876410 0.224803
H16   H     H_    0.326886 0.331009 0.871009 0.198665
H17   H     H_    0.324850 0.505030 0.118873 0.198421
H18   H     H_    0.946126 0.305245 0.600670 0.143038
N1    N     N_R   0.499430 0.499140 0.142800 -0.136426
N2    N     N_R   0.499430 0.499180 0.857150 -0.146913
O1    O     O_R   0.500010 0.316790 0.614690 -0.610945
O2    O     O_2   0.264135 0.301277 0.220136 -0.576423
O3    O     O_2   0.384481 0.922079 0.168857 -0.592588
O4    O     O_R   0.500000 0.316760 0.385350 -0.616573
O5    O     O_R   0.376780 0.500010 0.614650 -0.621044
O6    O     O_R   0.376770 0.499970 0.385310 -0.609084
O7    O     O_R   0.500000 0.683240 0.614650 -0.638971
O8    O     O_R   0.499990 0.683210 0.385310 -0.634329
O9    O     O_R   0.623230 0.500030 0.614690 -0.641468
O10   O     O_R   0.623220 0.499990 0.385350 -0.606152
O11   O     O_2   0.685536 0.689388 0.928890 -0.598660
Zn1   Zn    Zn3+2 0.500010 0.500020 0.653130 0.937667
Zn2   Zn    Zn3+2 0.499990 0.499980 0.346870 0.957001

loop_
_geom_bond_atom_site_label_1
_geom_bond_atom_site_label_2
_ccdc_geom_bond_type
C17   H17   S    
C24   H5    S    
C23   C24   S    
C9    H12   S    
C6    C7    A    
C4    C21   S    
C1    O4    A    
C12   C29   S    
C18   C22   S    
N2    Zn1   S    
C12   C24   S    
O5    Zn1   S    
C11   H14   S    
C19   C20   S    
C14   C15   S    
C28   C32   S    
O4    Zn2   S    
C1    O1    A    
C10   N1    A    
C26   O2    D    
C12   C20   S    
C28   C30   S    
C19   C24   S    
O10   Zn2   S    
C3    H6    S    
C9    H13   S    
O6    Zn2   S    
O1    Zn1   S    
C5    C27   S    
C23   C28   S    
C9    C33   S    
C19   C28   S    
C11   C13   A    
C29   H3    S    
C13   C25   S    
C21   C31   T    
C29   C30   S    
C22   C32   T    
C30   H2    S    
C17   C26   S    
C23   C29   S    
C2    C33   A    
O7    Zn1   S    
C2    C3    A    
C13   N2    A    
C15   H16   S    
C12   C31   S    
C16   O7    A    
C5    C6    A    
C18   O10   A    
C16   O8    A    
C7    C33   A    
C10   C17   S    
C25   H8    S    
C20   H1    S    
C19   H18   S    
C7    C8    S    
C14   N2    A    
N1    Zn2   S    
C4    O6    A    
C15   C17   S    
C1    C2    S    
C10   C14   A    
C4    O5    A    
C26   H9    S    
C27   H10   S    
C27   O3    D    
C18   O9    A    
C20   C30   S    
C11   N1    A    
C8    H7    S    
O9    Zn1   S    
C23   H4    S    
C15   H15   S    
O8    Zn2   S    
C6    C16   S    
C8    H11   S    
C8    C9    S    
C3    C5    A    
C25   O11   D    
