data_mof_unit_41168.cif
_audit_creation_date              2012-12-10T18:42:29-0500
_audit_creation_method            fapswitch 2.2
_symmetry_space_group_name_H-M    P1
_symmetry_Int_Tables_number       1
_space_group_crystal_system       triclinic
_cell_length_a                    8.666769
_cell_length_b                    10.638592
_cell_length_c                    9.898131
_cell_angle_alpha                 89.088374
_cell_angle_beta                  98.195889
_cell_angle_gamma                 92.339303
_cell_volume                      902.508689544

loop_
_atom_site_label
_atom_site_type_symbol
_atom_type_description
_atom_site_fract_x
_atom_site_fract_y
_atom_site_fract_z
_atom_type_partial_charge
C1    C     C_R   0.498115 0.260573 0.500911 0.904687
C2    C     C_R   0.501885 0.739428 0.499088 0.904765
C3    C     C_R   0.201862 0.498209 0.464889 0.934264
C4    C     C_R   0.798138 0.501782 0.535112 0.934287
C5    C     C_2   0.037729 0.480845 0.448965 -0.031919
C6    C     C_2   0.962274 0.519134 0.551043 -0.031916
C7    C     C_R   0.360584 0.060007 0.447897 -0.009130
C8    C     C_R   0.639413 0.939999 0.552104 -0.009155
C9    C     C_R   0.364864 0.930259 0.442732 0.039816
C10   C     C_R   0.635136 0.069748 0.557262 0.039848
C11   C     C_R   0.503382 0.872083 0.495900 -0.159130
C12   C     C_R   0.496622 0.127921 0.504096 -0.159122
C13   C     C_R   0.590915 0.586124 0.080927 -0.045982
C14   C     C_R   0.409099 0.413866 0.919072 -0.045969
C15   C     C_R   0.591302 0.585421 0.936667 0.102519
C16   C     C_R   0.408700 0.414576 0.063330 0.102516
N1    N     N_R   0.499960 0.499970 0.857200 -0.121814
N2    N     N_R   0.500040 0.500030 0.142800 -0.121822
O1    O     O_R   0.499990 0.316750 0.614620 -0.592925
O2    O     O_R   0.500010 0.683250 0.385380 -0.592898
O3    O     O_R   0.499990 0.316780 0.385290 -0.617064
O4    O     O_R   0.500010 0.683220 0.614710 -0.617049
O5    O     O_R   0.271750 0.499990 0.587840 -0.580599
O6    O     O_R   0.728250 0.500010 0.412160 -0.580657
O7    O     O_R   0.271750 0.500010 0.358510 -0.623305
O8    O     O_R   0.728250 0.499990 0.641490 -0.623295
Zn1   Zn    Zn3+2 0.500000 0.499980 0.653120 1.007856
Zn2   Zn    Zn3+2 0.500000 0.500020 0.346880 1.007846
N3    N     N_3   0.959798 0.412368 0.331485 -0.380792
H1    H     H_    0.919138 0.325493 0.365774 0.188659
H2    H     H_    0.036132 0.392672 0.262687 0.213706
N4    N     N_3   0.040202 0.587611 0.668514 -0.380781
H3    H     H_    0.080814 0.674488 0.634222 0.188693
H4    H     H_    0.963863 0.607285 0.737305 0.213705
C17   C     C_2   0.212244 0.122737 0.400222 0.931225
O9    O     O_2   0.167929 0.203968 0.469887 -0.680765
O10   O     O_R   0.121730 0.086764 0.277527 -0.772320
H5    H     H_    0.022768 0.135349 0.256958 0.335935
C18   C     C_2   0.787745 0.877265 0.599816 0.931192
O11   O     O_2   0.832051 0.795972 0.530204 -0.680733
O12   O     O_R   0.878267 0.913290 0.722483 -0.772305
H6    H     H_    0.977205 0.864680 0.743088 0.335943
N5    N     N_3   0.226273 0.857945 0.389444 -0.393747
H7    H     H_    0.249268 0.806229 0.306166 0.229074
H8    H     H_    0.196835 0.795555 0.465085 0.164852
N6    N     N_3   0.773724 0.142064 0.610554 -0.393698
H9    H     H_    0.750726 0.193777 0.693832 0.229101
H10   H     H_    0.803161 0.204456 0.534916 0.164846
C19   C     C_2   0.688156 0.681885 0.162622 0.973812
O13   O     O_2   0.637019 0.785630 0.176067 -0.606098
O14   O     O_R   0.842253 0.657183 0.214981 -0.786219
H11   H     H_    0.898756 0.731272 0.266109 0.365604
C20   C     C_2   0.311918 0.318069 0.837377 0.973606
O15   O     O_2   0.363115 0.214304 0.824015 -0.606082
O16   O     O_R   0.157814 0.342774 0.784897 -0.786096
H12   H     H_    0.101366 0.268659 0.733767 0.365656
N7    N     N_3   0.687765 0.673609 0.872603 -0.384946
H13   H     H_    0.655501 0.764485 0.891928 0.211512
H14   H     H_    0.803614 0.663591 0.916713 0.183114
N8    N     N_3   0.312232 0.326391 0.127390 -0.384942
H15   H     H_    0.344520 0.235515 0.108089 0.211543
H16   H     H_    0.196390 0.336388 0.083247 0.183094

loop_
_geom_bond_atom_site_label_1
_geom_bond_atom_site_label_2
_ccdc_geom_bond_type
C10   N6    S    
C4    O8    A    
N5    H7    S    
C1    O3    A    
O10   H5    S    
C8    C18   S    
O5    Zn1   S    
C15   N7    S    
O12   H6    S    
C3    O5    A    
C17   O9    D    
O16   H12   S    
N4    H3    S    
C2    O4    A    
C13   C15   A    
N7    H13   S    
N2    Zn2   S    
N3    H2    S    
C20   O15   D    
O7    Zn2   S    
N5    H8    S    
C9    C11   A    
C14   N1    A    
O8    Zn1   S    
N3    H1    S    
C1    C12   S    
C10   C12   A    
C13   N2    A    
C8    C11   A    
C13   C19   S    
C2    C11   S    
C4    C6    S    
C17   O10   S    
O3    Zn2   S    
C5    N3    S    
O4    Zn1   S    
C20   O16   S    
N8    H16   S    
C5    C6    D    
C4    O6    A    
C14   C16   A    
C7    C12   A    
N7    H14   S    
C9    N5    S    
C2    O2    A    
O14   H11   S    
N1    Zn1   S    
N6    H10   S    
C3    C5    S    
C3    O7    A    
C14   C20   S    
O1    Zn1   S    
C18   O12   S    
C16   N2    A    
C19   O13   D    
C16   N8    S    
C18   O11   D    
C7    C9    A    
N6    H9    S    
O2    Zn2   S    
C19   O14   S    
C15   N1    A    
C1    O1    A    
C7    C17   S    
C8    C10   A    
O6    Zn2   S    
N8    H15   S    
C6    N4    S    
N4    H4    S    
