data_mof_unit_14227.cif
_audit_creation_date              2013-03-05T16:06:41-0500
_audit_creation_method            fapswitch 2.2
_symmetry_space_group_name_H-M    P1
_symmetry_Int_Tables_number       1
_space_group_crystal_system       triclinic
_cell_length_a                    10.806415
_cell_length_b                    9.641349
_cell_length_c                    15.169976
_cell_angle_alpha                 89.55465
_cell_angle_beta                  93.554298
_cell_angle_gamma                 88.758973
_cell_volume                      1577.05980123

loop_
_atom_site_label
_atom_site_type_symbol
_atom_site_description
_atom_site_fract_x
_atom_site_fract_y
_atom_site_fract_z
_atom_type_partial_charge
O1    O     O_R   0.319640 0.618740 0.499990 -0.545477
O2    O     O_R   0.680360 0.381260 0.500010 -0.545292
O3    O     O_R   0.680360 0.618740 0.500010 -0.558964
O4    O     O_R   0.319640 0.381260 0.499990 -0.539387
N1    N     N_R   0.500000 0.852070 0.500000 -0.316359
N2    N     N_R   0.500000 0.147930 0.500000 -0.312940
C1    C     C_R   0.262533 0.501222 0.501053 0.827207
C2    C     C_R   0.737629 0.499115 0.501437 0.773227
O5    O     O_R   0.499990 0.618780 0.371460 -0.548068
O6    O     O_R   0.500010 0.381220 0.628540 -0.595058
O7    O     O_R   0.500010 0.618780 0.628540 -0.543279
O8    O     O_R   0.499990 0.381220 0.371460 -0.549566
C3    C     C_R   0.510746 0.499869 0.330455 0.827863
C4    C     C_R   0.499904 0.499930 0.669752 0.780176
Cu1   Cu    Cu3+1 0.500000 0.640660 0.500000 1.048817
Cu2   Cu    Cu3+1 0.500000 0.359340 0.500000 1.039972
C5    C     C_R   0.406402 0.076216 0.456675 0.284496
C6    C     C_R   0.586815 0.922512 0.550212 0.295386
C7    C     C_R   0.595114 0.069279 0.541648 0.284682
C8    C     C_R   0.416788 0.930401 0.445993 0.275722
C9    C     C_R   0.070883 0.393536 0.544643 -0.120067
C10   C     C_R   0.929737 0.610614 0.463642 -0.116136
C11   C     C_R   0.942744 0.393239 0.545551 -0.098452
C12   C     C_R   0.057766 0.613586 0.465507 -0.118012
C13   C     C_R   0.549261 0.628325 0.096137 -0.135800
C14   C     C_R   0.600447 0.422575 0.907859 -0.144791
C15   C     C_R   0.435222 0.596238 0.904015 -0.138413
C16   C     C_R   0.519878 0.381392 0.092168 -0.145044
H1    H     H_    0.565156 0.724063 0.061012 0.149394
H2    H     H_    0.667654 0.357461 0.945832 0.147289
H3    H     H_    0.373882 0.663517 0.939176 0.150743
H4    H     H_    0.510301 0.287235 0.053901 0.147473
C17   C     C_R   0.557470 0.624686 0.188549 0.140756
C18   C     C_R   0.592996 0.416532 0.816032 0.072631
C19   C     C_R   0.425173 0.592237 0.811608 0.131091
C20   C     C_R   0.526325 0.374086 0.184175 0.119770
C21   C     C_R   0.530731 0.499499 0.233847 -0.070339
C22   C     C_R   0.504667 0.501307 0.766837 -0.014152
H5    H     H_    0.124778 0.309720 0.577214 0.175864
H6    H     H_    0.876123 0.694891 0.431314 0.175961
H7    H     H_    0.899916 0.312323 0.581451 0.216981
H8    H     H_    0.100091 0.700846 0.435547 0.217074
C23   C     C_R   0.526690 0.507999 0.048303 0.026024
C24   C     C_R   0.521716 0.510930 0.951784 0.033118
C25   C     C_R   0.871724 0.499459 0.502726 -0.032944
C26   C     C_R   0.128733 0.503217 0.503801 -0.057329
N3    N     N_R   0.294106 0.144529 0.422582 0.179452
O9    O     O_R   0.294342 0.230209 0.356128 -0.319735
O10   O     O_R   0.188356 0.099495 0.446235 -0.330010
N4    N     N_R   0.677335 0.847833 0.605864 0.185802
O11   O     O_R   0.791289 0.837915 0.583097 -0.303117
O12   O     O_R   0.654579 0.824405 0.687757 -0.347856
N5    N     N_R   0.713622 0.127388 0.560751 0.151752
O13   O     O_R   0.762682 0.120958 0.641102 -0.368755
O14   O     O_R   0.787736 0.130756 0.496379 -0.338184
N6    N     N_R   0.355524 0.874929 0.367178 0.150639
O15   O     O_R   0.286151 0.767457 0.369248 -0.333115
O16   O     O_R   0.351088 0.947801 0.294363 -0.367015
C27   C     C_3   0.609283 0.750166 0.235500 -0.760131
H9    H     H_    0.684793 0.717792 0.284886 0.217591
H10   H     H_    0.649452 0.823961 0.189047 0.216816
H11   H     H_    0.536026 0.806980 0.268268 0.288034
C28   C     C_3   0.679780 0.318687 0.772533 -0.696976
H12   H     H_    0.624765 0.232943 0.743254 0.268134
H13   H     H_    0.728594 0.374128 0.720911 0.230758
H14   H     H_    0.751318 0.272296 0.820351 0.229085
C29   C     C_3   0.326654 0.681652 0.762725 -0.785042
H15   H     H_    0.268941 0.617188 0.716620 0.212939
H16   H     H_    0.263974 0.732566 0.808623 0.230399
H17   H     H_    0.370365 0.764756 0.725242 0.263835
C30   C     C_3   0.538110 0.230699 0.225053 -0.721026
H18   H     H_    0.617189 0.225066 0.275399 0.239923
H19   H     H_    0.451067 0.202967 0.254055 0.300852
H20   H     H_    0.556827 0.149984 0.175400 0.209105

loop_
_geom_bond_atom_site_label_1
_geom_bond_atom_site_label_2
_geom_bond_distance
_ccdc_geom_bond_type
O4    Cu2   1.955904 S    
C30   H20   1.111327 S    
N4    O12   1.300300 A    
C23   C24   1.461866 S    
C28   H13   1.110926 S    
C11   H7    1.076884 S    
O1    Cu1   1.965006 S    
C4    C22   1.470660 S    
O2    Cu2   1.965005 S    
C16   C23   1.391253 A    
C3    C21   1.494576 S    
N3    O9    1.298516 A    
C9    H5    1.083556 S    
C20   C30   1.510358 S    
C19   C29   1.509625 S    
C18   C28   1.500988 S    
C8    N6    1.442564 S    
C29   H17   1.109517 S    
C10   H6    1.083787 S    
C13   C23   1.391149 A    
N5    O14   1.301417 A    
N4    O11   1.301153 A    
O5    Cu1   1.962949 S    
C28   H14   1.111007 S    
C14   C24   1.393300 A    
C30   H18   1.110388 S    
N3    O10   1.301191 A    
N1    C8    1.385572 A    
O6    Cu2   1.962949 S    
N5    O13   1.299225 A    
N6    O15   1.293336 A    
N2    C7    1.381634 A    
C7    N5    1.423197 S    
O7    Cu1   1.959689 S    
N1    C6    1.366978 A    
O4    C1    1.299778 A    
C11   C25   1.397732 A    
C15   C24   1.395960 A    
C16   H4    1.084717 S    
C20   C21   1.429798 A    
N6    O16   1.302299 A    
C17   C21   1.428041 A    
C14   H2    1.084508 S    
C9    C11   1.385707 A    
C13   H1    1.084436 S    
O7    C4    1.301110 A    
C10   C12   1.382998 A    
O3    C2    1.296421 A    
N1    Cu1   2.038278 S    
Cu1   Cu2   2.712304 S    
N2    Cu2   2.038279 S    
C29   H15   1.110810 S    
C9    C26   1.399789 A    
C1    C26   1.448795 S    
O8    Cu2   1.959689 S    
C27   H9    1.110898 S    
C19   C22   1.420131 A    
C12   H8    1.077051 S    
O8    C3    1.308705 A    
C6    N4    1.430269 S    
C17   C27   1.509201 S    
C6    C7    1.425249 A    
O6    C4    1.308418 A    
C27   H10   1.111188 S    
C29   H16   1.110833 S    
C30   H19   1.100089 S    
N2    C5    1.374048 A    
O5    C3    1.314953 A    
C2    C25   1.448081 S    
C16   C20   1.394316 A    
O3    Cu1   1.955903 S    
C10   C25   1.399414 A    
C15   C19   1.400188 A    
O1    C1    1.302345 A    
C15   H3    1.084085 S    
C5    C8    1.419231 A    
C14   C18   1.392091 A    
O2    C2    1.305298 A    
C28   H12   1.108334 S    
C5    N3    1.433940 S    
C13   C17   1.399317 A    
C12   C26   1.399190 A    
C27   H11   1.099132 S    
C18   C22   1.415809 A    
