data_mof_unit_32354.cif
_audit_creation_date              2012-12-11T14:21:20-0500
_audit_creation_method            fapswitch 2.2
_symmetry_space_group_name_H-M    P1
_symmetry_Int_Tables_number       1
_space_group_crystal_system       triclinic
_cell_length_a                    11.585826
_cell_length_b                    11.495083
_cell_length_c                    19.49897
_cell_angle_alpha                 90.598646
_cell_angle_beta                  89.925927
_cell_angle_gamma                 60.50119
_cell_volume                      2260.04494793

loop_
_atom_site_label
_atom_site_type_symbol
_atom_type_description
_atom_site_fract_x
_atom_site_fract_y
_atom_site_fract_z
_atom_type_partial_charge
C1    C     C_R   0.640168 0.117575 0.599090 0.554027
C2    C     C_1   0.652481 0.150352 0.668503 0.005939
C3    C     C_R   0.641677 0.707632 0.182072 0.030177
C4    C     C_R   0.611882 0.746207 0.598529 0.558590
C5    C     C_R   0.509026 0.773875 0.205919 0.040568
C6    C     C_R   0.484875 0.793916 0.277360 0.001770
C7    C     C_R   0.714130 0.739306 0.291727 -0.159612
C8    C     C_R   0.742620 0.692646 0.225271 -0.144109
C9    C     C_R   0.402017 0.807247 0.160773 -0.080710
C10   C     C_R   0.280389 0.830218 0.185704 -0.109357
C11   C     C_R   0.261379 0.830051 0.255798 -0.059764
C12   C     C_1   0.640343 0.703939 0.667871 0.004221
C13   C     C_R   0.358754 0.819977 0.301241 -0.093910
C14   C     C_R   0.590557 0.780439 0.320649 -0.013436
C15   C     C_R   0.155992 0.193970 0.188221 -0.039710
C16   C     C_R   0.240328 0.145443 0.597978 0.568223
C17   C     C_R   0.239198 0.244486 0.210133 -0.001908
C18   C     C_R   0.274890 0.234094 0.279662 -0.077172
C19   C     C_R   0.151096 0.116745 0.302211 0.339409
C20   C     C_R   0.108212 0.136617 0.235259 -0.117697
C21   C     C_R   0.279874 0.313674 0.165338 -0.125180
C22   C     C_R   0.318836 0.401973 0.191087 -0.050502
C23   C     C_1   0.127272 0.198267 0.859443 0.006211
C24   C     C_R   0.334003 0.412264 0.261199 0.320588
C25   C     C_R   0.329220 0.314849 0.303227 -0.121128
C26   C     C_R   0.245032 0.151820 0.323432 0.017614
C27   C     C_R   0.678818 0.183466 0.195492 0.006234
C28   C     C_R   0.649560 0.111710 0.403400 0.532181
C29   C     C_R   0.746581 0.050416 0.220344 0.015869
C30   C     C_R   0.772144 0.032310 0.290943 -0.045590
C31   C     C_R   0.631386 0.268467 0.312488 -0.128595
C32   C     C_R   0.631997 0.290548 0.242539 -0.137696
C33   C     C_R   0.806317 0.936586 0.176340 0.358510
C34   C     C_1   0.171163 0.170048 0.727639 -0.030581
C35   C     C_R   0.915594 0.818964 0.198280 -0.064123
C36   C     C_R   0.955068 0.804987 0.266494 0.180482
C37   C     C_R   0.884362 0.912261 0.312495 -0.091570
C38   C     C_R   0.689404 0.139370 0.336474 0.015643
C39   C     C_R   0.082367 0.230776 0.928769 0.541762
C40   C     C_R   0.579101 0.804118 0.395316 0.535878
C41   C     C_R   0.684255 0.604422 0.929623 0.548842
C42   C     C_R   0.708908 0.206266 0.930262 0.561556
C43   C     C_R   0.086598 0.234531 0.123558 0.535372
C44   C     C_R   0.678568 0.620396 0.121958 0.548140
C45   C     C_1   0.150403 0.181781 0.798971 -0.029476
C46   C     C_R   0.707658 0.209682 0.126307 0.594073
C47   C     C_R   0.296616 0.119307 0.393338 0.552967
C48   C     C_1   0.671105 0.646595 0.860245 0.010382
C49   C     C_1   0.654324 0.683710 0.728365 -0.030638
C50   C     C_1   0.663773 0.666795 0.799715 -0.029104
C51   C     C_3   0.351894 0.548270 0.351122 -0.106043
C52   C     C_3   0.038008 0.618385 0.334315 -0.118337
C53   C     C_1   0.194637 0.160923 0.667193 0.004308
C54   C     C_1   0.679430 0.190113 0.860938 0.006756
C55   C     C_1   0.658382 0.167445 0.729019 -0.029554
C56   C     C_1   0.666134 0.180166 0.800423 -0.029773
Cr1   Cr    Cr6+3 0.404720 0.198220 0.499960 1.000672
Cr2   Cr    Cr6+3 0.698290 0.897110 0.500380 1.015315
Cr3   Cr    Cr6+3 0.396970 0.904720 0.499610 1.036228
Cr4   Cr    Cr6+3 0.926180 0.151990 0.028120 1.054241
Cr5   Cr    Cr6+3 0.921330 0.451820 0.027470 1.044481
Cr6   Cr    Cr6+3 0.626260 0.446870 0.028710 1.024881
F1    F     F_    0.762238 0.940204 0.111424 -0.629598
F2    F     F_    0.096479 0.067290 0.346927 -0.649671
H1    H     H_    0.791844 0.731871 0.323224 0.144005
H2    H     H_    0.200890 0.848187 0.150777 0.120773
H3    H     H_    0.166596 0.848819 0.275397 0.194393
H4    H     H_    0.330293 0.832457 0.354215 0.185989
H5    H     H_    0.274582 0.306641 0.110208 0.143036
H6    H     H_    0.033550 0.110284 0.220762 0.151330
H7    H     H_    0.430570 0.571965 0.365652 0.144128
H8    H     H_    0.258217 0.643636 0.357067 0.175424
H9    H     H_    0.356398 0.476577 0.389471 0.077702
H10   H     H_    0.993600 0.563528 0.308418 0.132996
H11   H     H_    0.977167 0.681515 0.378140 0.110749
H12   H     H_    0.337842 0.463132 0.155976 0.137643
H13   H     H_    0.129412 0.540390 0.357854 0.142259
H14   H     H_    0.365104 0.305504 0.353463 0.165262
H15   H     H_    0.589615 0.350516 0.348588 0.145326
H16   H     H_    0.597053 0.391582 0.225133 0.185009
H17   H     H_    0.968048 0.736686 0.162377 0.149073
H18   H     H_    0.924494 0.903532 0.363337 0.183658
H19   H     H_    0.414220 0.808786 0.105778 0.133797
H20   H     H_    0.845226 0.636496 0.209124 0.143449
O1    O     O_R   0.267740 0.231960 0.575440 -0.498660
O2    O     O_R   0.596130 0.579390 0.952730 -0.511706
O3    O     O_R   0.639060 0.321160 0.958670 -0.496879
O4    O     O_R   0.527280 0.186640 0.570530 -0.492488
O5    O     O_R   0.821240 0.124200 0.104370 -0.463492
O6    O     O_R   0.036890 0.167040 0.097840 -0.516354
O7    O     O_R   0.056180 0.349610 0.102880 -0.519117
O8    O     O_R   0.797660 0.564870 0.097950 -0.491660
O9    O     O_R   0.595880 0.584250 0.104270 -0.526729
O10   O     O_R   0.638830 0.325670 0.099150 -0.515909
O11   O     O_3   0.824590 0.350230 0.028100 -0.264633
O12   O     O_R   0.685970 0.784660 0.430010 -0.501493
O13   O     O_R   0.728090 0.003450 0.576380 -0.497804
O14   O     O_R   0.682970 0.789190 0.570490 -0.485562
O15   O     O_R   0.499290 0.771880 0.575530 -0.503089
O16   O     O_R   0.285330 0.030870 0.569730 -0.484025
O17   O     O_R   0.270980 0.227080 0.423890 -0.533481
O18   O     O_R   0.530280 0.182120 0.430050 -0.542384
O19   O     O_R   0.731330 0.998570 0.424830 -0.532486
O20   O     O_3   0.373293 0.504878 0.281547 -0.568613
O21   O     O_3   0.068674 0.689938 0.285804 -0.576580
O22   O     O_R   0.502530 0.767000 0.423990 -0.544483
O23   O     O_R   0.288330 0.026350 0.429250 -0.452181
O24   O     O_3   0.499990 0.000020 0.499980 -0.296050
O25   O     O_R   0.821500 0.119340 0.952830 -0.483917
O26   O     O_R   0.037130 0.162530 0.957360 -0.498460
O27   O     O_R   0.056440 0.344740 0.951340 -0.508407
O28   O     O_R   0.797900 0.560360 0.957470 -0.486927

loop_
_geom_bond_atom_site_label_1
_geom_bond_atom_site_label_2
_ccdc_geom_bond_type
C55   C56   S    
C23   C45   T    
C4    O14   A    
C27   C29   A    
Cr3   O15   S    
C19   C20   A    
Cr2   O14   S    
C22   H12   S    
C52   H11   S    
C12   C49   T    
C35   H17   S    
C7    C8    A    
C46   O5    A    
Cr4   O5    S    
C41   O2    A    
Cr6   O2    S    
C47   O17   A    
C36   C37   A    
C42   O25   A    
C52   H10   S    
C2    C55   T    
C5    C6    A    
C32   H16   S    
C29   C33   A    
C7    C14   A    
C30   C38   A    
C1    C2    S    
C19   C26   A    
Cr2   O12   S    
C16   C53   S    
C44   O9    A    
C39   O26   A    
C35   C36   A    
C41   O28   A    
C18   C26   A    
Cr4   O25   S    
C4    C12   S    
C9    C10   A    
C44   O8    A    
Cr5   O8    S    
C1    O4    A    
C39   O27   A    
C27   C32   A    
C21   C22   A    
Cr3   O16   S    
C20   H6    S    
C18   C25   A    
C51   H7    S    
C40   O12   A    
C11   H3    S    
C10   H2    S    
C15   C20   A    
C54   C56   T    
C3    C44   S    
Cr3   O22   S    
C25   H14   S    
C43   O6    A    
C24   C25   A    
C3    C8    A    
C1    O13   A    
C16   O16   A    
C51   O20   S    
Cr3   O23   S    
C30   C37   A    
C21   H5    S    
C24   O20   S    
C5    C9    A    
C29   C30   A    
Cr1   O18   S    
C6    C14   A    
C31   C32   A    
C46   O10   A    
C28   C38   S    
C19   F2    S    
C33   F1    S    
C17   C18   A    
C34   C45   S    
Cr2   O13   S    
C26   C47   S    
C9    H19   S    
C27   C46   S    
C52   O21   S    
C47   O23   A    
Cr6   O10   S    
C16   O1    A    
C22   C24   A    
C37   H18   S    
Cr6   O9    S    
C51   H8    S    
C52   H13   S    
Cr5   O27   S    
Cr1   O4    S    
C40   O22   A    
C15   C17   A    
C36   O21   S    
C8    H20   S    
C7    H1    S    
C51   H9    S    
C3    C5    A    
Cr5   O11   S    
C31   H15   S    
C42   O3    A    
Cr4   O6    S    
Cr1   O17   S    
Cr6   O3    S    
Cr3   O24   S    
C31   C38   A    
C15   C43   S    
C42   C54   S    
C6    C13   A    
C11   C13   A    
C28   O19   A    
C23   C39   S    
C48   C50   T    
C33   C35   A    
C41   C48   S    
Cr1   O1    S    
Cr2   O24   S    
C43   O7    A    
Cr4   O26   S    
C10   C11   A    
C14   C40   S    
Cr4   O11   S    
C28   O18   A    
Cr1   O24   S    
C34   C53   T    
C49   C50   S    
C4    O15   A    
Cr2   O19   S    
Cr6   O11   S    
Cr5   O28   S    
Cr5   O7    S    
C13   H4    S    
C17   C21   A    
