data_mof_unit_25195.cif
_audit_creation_date              2012-10-26T21:02:38-0400
_audit_creation_method            fapswitch 2.2
_symmetry_space_group_name_H-M    P1
_symmetry_Int_Tables_number       1
_space_group_crystal_system       triclinic
_cell_length_a                    12.313633
_cell_length_b                    13.122077
_cell_length_c                    15.063972
_cell_angle_alpha                 77.437074
_cell_angle_beta                  101.292975
_cell_angle_gamma                 116.418005
_cell_volume                      2113.96619141

loop_
_atom_site_label
_atom_site_type_symbol
_atom_type_description
_atom_site_fract_x
_atom_site_fract_y
_atom_site_fract_z
_atom_type_partial_charge
C1    C     C_R   0.855088 0.285839 0.507497 0.544970
C2    C     C_R   0.091508 0.483464 0.832323 -0.138067
C3    C     C_R   0.998542 0.498695 0.768189 -0.013775
C4    C     C_R   0.999359 0.499507 0.671249 0.549008
C5    C     C_R   0.905140 0.512934 0.796971 -0.143288
C6    C     C_R   0.273788 0.025917 0.384113 -0.136032
C7    C     C_R   0.227060 0.835792 0.469838 -0.003038
C8    C     C_R   0.816961 0.077974 0.558743 0.130668
C9    C     C_R   0.734757 0.963266 0.576734 -0.128918
C10   C     C_R   0.611126 0.929448 0.549503 -0.150674
C11   C     C_R   0.565310 0.009122 0.499112 0.023571
C12   C     C_R   0.905094 0.512757 0.075462 0.010851
C13   C     C_R   0.649530 0.123708 0.472310 -0.007482
C14   C     C_R   0.438542 0.977661 0.472306 0.035675
C15   C     C_R   0.398634 0.056865 0.412134 0.052767
C16   C     C_R   0.144869 0.713757 0.487004 0.549710
C17   C     C_R   0.483884 0.164494 0.378148 -0.135743
C18   C     C_R   0.607353 0.196619 0.406270 -0.121142
C19   C     C_R   0.349910 0.869251 0.503317 -0.134372
C20   C     C_R   0.188299 0.915269 0.412062 -0.141602
C21   C     C_R   0.774035 0.161198 0.510383 0.013526
C22   C     C_R   0.348030 0.329085 0.647016 -0.158718
C23   C     C_R   0.185420 0.468325 0.081698 -0.136311
C24   C     C_R   0.758891 0.645493 0.375613 0.043088
C25   C     C_R   0.662023 0.677172 0.348653 -0.164363
C26   C     C_R   0.558803 0.622268 0.395327 -0.139625
C27   C     C_R   0.551195 0.534467 0.470190 -0.007016
C28   C     C_R   0.000218 0.499861 0.328798 0.543176
C29   C     C_R   0.653169 0.505170 0.495520 0.179862
C30   C     C_R   0.447022 0.475069 0.521008 -0.014492
C31   C     C_R   0.447548 0.388345 0.595742 0.035886
C32   C     C_R   0.547498 0.361311 0.619298 -0.177596
C33   C     C_R   0.647822 0.418428 0.570554 -0.102160
C34   C     C_R   0.185101 0.468239 0.989136 -0.135796
C35   C     C_R   0.341560 0.497501 0.501483 0.035120
C36   C     C_R   0.247866 0.355713 0.624590 0.036865
C37   C     C_R   0.906361 0.513275 0.167978 -0.141938
C38   C     C_R   0.999889 0.498949 0.231999 -0.014071
C39   C     C_R   0.092679 0.483731 0.203274 -0.141132
C40   C     C_R   0.092780 0.483123 0.110924 0.011160
C41   C     C_R   0.998709 0.497783 0.046722 0.061609
C42   C     C_3   0.010485 0.102307 0.524465 -0.283576
C43   C     C_R   0.092149 0.482965 0.924914 0.010630
C44   C     C_R   0.998383 0.497697 0.953660 0.061487
C45   C     C_R   0.904433 0.512551 0.889425 0.011307
C46   C     C_R   0.811572 0.526971 0.918693 -0.135826
C47   C     C_R   0.811921 0.527104 0.011266 -0.136354
Cu1   Cu    Cu3+1 0.098270 0.475420 0.521130 0.932187
Cu2   Cu    Cu3+1 0.901730 0.524580 0.478870 0.908580
H1    H     H_    0.834271 0.524738 0.189959 0.124144
H2    H     H_    0.347834 0.262652 0.704226 0.092064
H3    H     H_    0.165108 0.472759 0.252580 0.122920
H4    H     H_    0.333051 0.561593 0.445772 0.118391
H5    H     H_    0.838610 0.688697 0.339006 0.123386
H6    H     H_    0.486685 0.650358 0.371526 0.099636
H7    H     H_    0.666979 0.744595 0.291352 0.102161
H8    H     H_    0.719474 0.391502 0.594762 0.184534
H9    H     H_    0.258083 0.456973 0.130376 0.105252
H10   H     H_    0.257545 0.456820 0.967748 0.105281
H11   H     H_    0.163844 0.472375 0.810346 0.126501
H12   H     H_    0.455153 0.223901 0.328827 0.104736
H13   H     H_    0.832923 0.524242 0.747613 0.126773
H14   H     H_    0.738907 0.538312 0.870008 0.108541
H15   H     H_    0.739504 0.538562 0.032654 0.105065
H16   H     H_    0.093073 0.890628 0.385707 0.119393
H17   H     H_    0.957521 0.065103 0.653971 0.236739
H18   H     H_    0.108436 0.132424 0.551775 0.142347
H19   H     H_    0.002611 0.158271 0.458880 0.168744
H20   H     H_    0.975852 0.012204 0.511587 0.130379
H21   H     H_    0.242788 0.085996 0.338052 0.103528
H22   H     H_    0.373796 0.807722 0.552848 0.119595
H23   H     H_    0.554771 0.838951 0.566005 0.108365
H24   H     H_    0.767078 0.899395 0.613291 0.116171
H25   H     H_    0.669026 0.277828 0.372559 0.151067
H26   H     H_    0.170802 0.310330 0.663933 0.137569
H27   H     H_    0.548519 0.295179 0.676524 0.111025
N1    N     N_R   0.246280 0.438190 0.553160 -0.234479
N2    N     N_R   0.754320 0.561190 0.447410 -0.235546
N3    N     N_2   0.942688 0.108207 0.590122 -0.499144
O1    O     O_R   0.972510 0.318130 0.526570 -0.459761
O2    O     O_R   0.806530 0.359650 0.490890 -0.536359
O3    O     O_R   0.082980 0.479210 0.647590 -0.504462
O4    O     O_R   0.917000 0.520730 0.611900 -0.522181
O5    O     O_R   0.193470 0.640350 0.509110 -0.508129
O6    O     O_R   0.027490 0.681870 0.473430 -0.503034
O7    O     O_R   0.083000 0.479270 0.388100 -0.512319
O8    O     O_R   0.917020 0.520790 0.352410 -0.517483

loop_
_geom_bond_atom_site_label_1
_geom_bond_atom_site_label_2
_ccdc_geom_bond_type
C23   H9    S    
C1    C21   S    
C35   H4    S    
Cu2   O8    S    
C19   H22   S    
C25   H7    S    
C26   H6    S    
C45   C46   A    
H17   N3    S    
C26   C27   A    
C37   C38   A    
C30   C35   A    
C16   O6    A    
C36   N1    A    
C30   C31   A    
C11   C14   A    
C2    H11   S    
C27   C29   A    
C24   H5    S    
C23   C40   A    
C29   C33   A    
C16   O5    A    
Cu2   N2    S    
C6    H21   S    
Cu2   O2    S    
C12   C37   A    
C17   H12   S    
C6    C15   A    
C29   N2    A    
C8    C9    A    
C8    N3    S    
C9    C10   A    
C39   H3    S    
C42   N3    S    
C18   H25   S    
C27   C30   A    
C42   H19   S    
C9    H24   S    
C12   C47   A    
C8    C21   A    
C38   C39   A    
C22   C31   A    
Cu2   O6    S    
C20   H16   S    
C24   C25   A    
C47   H15   S    
C25   C26   A    
C5    C45   A    
C35   N1    A    
C42   H20   S    
Cu1   O5    S    
Cu1   N1    S    
C43   C44   A    
C12   C41   A    
C36   H26   S    
C31   C32   A    
C28   C38   S    
C2    C43   A    
C23   C34   A    
C28   O8    A    
C17   C18   A    
C13   C21   A    
C13   C18   A    
C24   N2    A    
Cu1   Cu2   S    
C7    C19   A    
C28   O7    A    
C42   H18   S    
C41   C44   A    
Cu1   O7    S    
C3    C4    S    
C39   C40   A    
C6    C20   A    
C44   C45   A    
C15   C17   A    
C46   C47   A    
C7    C16   S    
C33   H8    S    
C14   C19   A    
C34   C43   A    
C3    C5    A    
C32   H27   S    
C22   C36   A    
C46   H14   S    
C32   C33   A    
Cu1   O1    S    
C2    C3    A    
C37   H1    S    
C11   C13   A    
Cu2   O4    S    
C34   H10   S    
C4    O4    A    
Cu1   O3    S    
C5    H13   S    
C10   C11   A    
C4    O3    A    
C7    C20   A    
C1    O1    A    
C14   C15   A    
C40   C41   A    
C1    O2    A    
C22   H2    S    
C10   H23   S    
