data_mof_unit_42397.cif
_audit_creation_date              2012-10-26T19:25:52-0400
_audit_creation_method            fapswitch 2.2
_symmetry_space_group_name_H-M    P1
_symmetry_Int_Tables_number       1
_space_group_crystal_system       triclinic
_cell_length_a                    15.081673
_cell_length_b                    13.869671
_cell_length_c                    11.704253
_cell_angle_alpha                 90.029805
_cell_angle_beta                  87.763429
_cell_angle_gamma                 90.263913
_cell_volume                      2446.37923145

loop_
_atom_site_label
_atom_site_type_symbol
_atom_type_description
_atom_site_fract_x
_atom_site_fract_y
_atom_site_fract_z
_atom_type_partial_charge
C1    C     C_R   0.329119 0.499940 0.501661 0.550868
C2    C     C_R   0.570401 0.205953 0.450460 0.365701
C3    C     C_R   0.569950 0.794580 0.449488 0.356987
C4    C     C_R   0.429680 0.205213 0.549358 0.351634
C5    C     C_R   0.573348 0.897233 0.452899 -0.010416
C6    C     C_R   0.425856 0.102745 0.543919 -0.013869
C7    C     C_R   0.426767 0.896539 0.547375 -0.006654
C8    C     C_R   0.574240 0.103477 0.455995 -0.009124
C9    C     C_R   0.500041 0.948412 0.500044 -0.147951
C10   C     C_R   0.500041 0.051508 0.499959 -0.146132
C11   C     C_R   0.647625 0.950098 0.407878 0.280930
C12   C     C_R   0.670841 0.500130 0.498441 0.548059
C13   C     C_R   0.350283 0.050142 0.584586 0.277287
C14   C     C_R   0.352669 0.948756 0.592740 0.279232
C15   C     C_R   0.649930 0.051558 0.415729 0.274183
C16   C     C_R   0.500192 0.499989 0.284151 0.523361
C17   C     C_R   0.499154 0.500011 0.715873 0.518905
C18   C     C_1   0.499886 0.499979 0.162430 -0.028257
C19   C     C_1   0.499042 0.500040 0.837621 -0.029893
C20   C     C_1   0.499550 0.500006 0.059941 -0.044612
C21   C     C_1   0.499206 0.500032 0.940117 -0.044651
C22   C     C_R   0.816767 0.556543 0.417879 0.239988
C23   C     C_R   0.909413 0.564464 0.426791 0.049183
C24   C     C_R   0.183334 0.441421 0.581538 0.227441
C25   C     C_R   0.767465 0.500468 0.498179 -0.024630
C26   C     C_R   0.232408 0.500430 0.504105 -0.027559
C27   C     C_R   0.809734 0.446649 0.581507 0.257474
C28   C     C_R   0.189599 0.560168 0.427229 0.246980
C29   C     C_R   0.903121 0.440811 0.578432 -0.003016
C30   C     C_R   0.096321 0.566486 0.432233 -0.015534
C31   C     C_R   0.953016 0.502500 0.503106 -0.145229
C32   C     C_R   0.046533 0.501991 0.503715 -0.140508
C33   C     C_3   0.736162 0.461530 0.753678 -0.078992
C34   C     C_R   0.090387 0.436596 0.575340 0.044671
C35   C     C_3   0.252969 0.558729 0.248136 -0.062020
C36   C     C_3   0.913039 0.335667 0.835856 -0.090876
C37   C     C_3   0.107747 0.787123 0.381367 -0.076045
C38   C     C_3   0.721192 0.904274 0.243848 -0.039199
C39   C     C_3   0.217907 0.104130 0.526342 -0.036444
C40   C     C_3   0.280610 0.903038 0.757989 -0.065956
C41   C     C_3   0.781563 0.108586 0.474769 -0.043625
C42   C     C_R   0.947380 0.375183 0.649018 0.267566
C43   C     C_R   0.052121 0.635653 0.366856 0.256036
C44   C     C_R   0.040671 0.368300 0.640456 0.266658
C45   C     C_R   0.959177 0.631870 0.359599 0.289308
C46   C     C_R   0.430053 0.793899 0.550723 0.370471
Cu1   Cu    Cu3+1 0.500000 0.597420 0.500000 0.991713
Cu2   Cu    Cu3+1 0.500000 0.402580 0.500000 0.988375
H1    H     H_    0.721889 0.566148 0.309639 0.306544
H2    H     H_    0.971421 0.296715 0.867058 0.144671
H3    H     H_    0.854323 0.311277 0.888303 0.146898
H4    H     H_    0.144682 0.768319 0.458769 0.179372
H5    H     H_    0.041698 0.817564 0.406720 0.116960
H6    H     H_    0.146119 0.844225 0.334819 0.146003
H7    H     H_    0.042739 0.238137 0.703087 0.333715
H8    H     H_    0.958312 0.731825 0.240705 0.345959
H9    H     H_    0.387947 0.696113 0.654262 0.342511
H10   H     H_    0.611049 0.304277 0.346213 0.351861
H11   H     H_    0.611260 0.697780 0.345241 0.349394
H12   H     H_    0.278117 0.427331 0.688694 0.309729
H13   H     H_    0.390047 0.302145 0.654716 0.358534
H14   H     H_    0.730011 0.978605 0.209642 0.137611
H15   H     H_    0.659067 0.871691 0.212354 0.107635
H16   H     H_    0.777486 0.860427 0.209441 0.176352
H17   H     H_    0.198410 0.031669 0.494668 0.107306
H18   H     H_    0.250059 0.147063 0.455710 0.125451
H19   H     H_    0.156294 0.142099 0.554435 0.173336
H20   H     H_    0.272479 0.977517 0.791837 0.154118
H21   H     H_    0.342906 0.870891 0.788673 0.111612
H22   H     H_    0.224405 0.859166 0.793580 0.144244
H23   H     H_    0.795613 0.497362 0.788140 0.097599
H24   H     H_    0.801915 0.036890 0.507128 0.131643
H25   H     H_    0.748352 0.151041 0.544832 0.161230
H26   H     H_    0.842726 0.148212 0.447018 0.150738
H27   H     H_    0.703006 0.420069 0.824338 0.143326
H28   H     H_    0.689032 0.517393 0.726216 0.116458
H29   H     H_    0.293691 0.601510 0.185390 0.148450
H30   H     H_    0.188715 0.541948 0.208704 0.131171
H31   H     H_    0.289596 0.490979 0.264638 0.096376
H32   H     H_    0.921231 0.414469 0.851322 0.101423
N1    N     N_R   0.500000 0.743810 0.500000 -0.261549
N2    N     N_R   0.500000 0.256190 0.500000 -0.266281
O1    O     O_R   0.370260 0.582280 0.500020 -0.435785
O2    O     O_3   0.224065 0.391857 0.667409 -0.584680
O3    O     O_3   0.758820 0.397273 0.663598 -0.493781
O4    O     O_3   0.240152 0.613855 0.348737 -0.495197
O5    O     O_3   0.898963 0.312634 0.720108 -0.540396
O6    O     O_3   0.099495 0.706970 0.308128 -0.553765
O7    O     O_3   0.084148 0.293280 0.691923 -0.626106
O8    O     O_3   0.915449 0.696310 0.291322 -0.618210
O9    O     O_3   0.361392 0.745317 0.605710 -0.633377
O10   O     O_3   0.638088 0.253704 0.392169 -0.631370
O11   O     O_3   0.638313 0.746590 0.394253 -0.594676
O12   O     O_R   0.629740 0.417720 0.499980 -0.445015
O13   O     O_3   0.362327 0.252318 0.607908 -0.592675
O14   O     O_3   0.722339 0.903070 0.364366 -0.488517
O15   O     O_3   0.273275 0.096966 0.620328 -0.491793
O16   O     O_3   0.278331 0.901156 0.637559 -0.518513
O17   O     O_3   0.726996 0.099109 0.380173 -0.520297
O18   O     O_R   0.629740 0.582280 0.499980 -0.476577
O19   O     O_R   0.370260 0.417720 0.500020 -0.484476
O20   O     O_R   0.500010 0.582270 0.337200 -0.518330
O21   O     O_R   0.499990 0.417730 0.662800 -0.514157
O22   O     O_R   0.499990 0.582270 0.662800 -0.532171
O23   O     O_R   0.500010 0.417730 0.337200 -0.528447
O24   O     O_3   0.776203 0.602107 0.328789 -0.593909

loop_
_geom_bond_atom_site_label_1
_geom_bond_atom_site_label_2
_ccdc_geom_bond_type
C11   O14   S    
C23   C45   A    
C24   O2    S    
C29   C42   A    
C27   C29   A    
C37   O6    S    
C40   H22   S    
C43   O6    S    
C19   C21   T    
C17   O22   A    
C24   C26   A    
C5    C11   A    
C40   O16   S    
C35   O4    S    
C39   O15   S    
C46   N1    A    
C27   O3    S    
C33   O3    S    
C41   H26   S    
C11   C15   A    
C33   H27   S    
C7    C14   A    
Cu2   O23   S    
C22   C25   A    
C3    N1    A    
Cu1   Cu2   S    
C41   O17   S    
Cu1   O1    S    
C9    C10   A    
C37   H5    S    
H8    O8    S    
Cu1   O20   S    
C13   C14   A    
C39   H17   S    
C12   O12   A    
C42   C44   A    
C14   O16   S    
C38   H16   S    
C36   O5    S    
C40   H21   S    
C7    C46   A    
C34   C44   A    
C4    C6    A    
C36   H32   S    
C37   H4    S    
C46   O9    S    
C22   O24   S    
Cu2   O21   S    
C35   H29   S    
C24   C34   A    
Cu1   O18   S    
C32   C34   A    
C5    C9    A    
C4    O13   S    
C33   H28   S    
C31   C32   A    
C3    O11   S    
C16   C18   S    
C2    O10   S    
C45   O8    S    
C43   C45   A    
C36   H3    S    
Cu2   O12   S    
C16   O23   A    
C41   H24   S    
C37   H6    S    
C16   O20   A    
C8    C15   A    
C28   O4    S    
C1    C26   S    
C39   H18   S    
C30   C43   A    
C2    N2    A    
C1    O1    A    
C1    O19   A    
C36   H2    S    
C38   H15   S    
C7    C9    A    
Cu1   O22   S    
H9    O9    S    
C39   H19   S    
C2    C8    A    
C15   O17   S    
C3    C5    A    
C6    C10   A    
H13   O13   S    
H1    O24   S    
C25   C27   A    
C35   H30   S    
C26   C28   A    
C12   C25   S    
C28   C30   A    
C17   O21   A    
C29   C31   A    
C6    C13   A    
C30   C32   A    
H12   O2    S    
Cu2   O19   S    
C35   H31   S    
C17   C19   S    
Cu2   N2    S    
C18   C20   T    
Cu1   N1    S    
C13   O15   S    
H7    O7    S    
C12   O18   A    
C33   H23   S    
C41   H25   S    
C4    N2    A    
C20   C21   S    
C8    C10   A    
C40   H20   S    
C38   O14   S    
C22   C23   A    
C42   O5    S    
H11   O11   S    
H10   O10   S    
C44   O7    S    
C23   C31   A    
C38   H14   S    
