data_mof_unit_53733.cif
_audit_creation_date              2012-12-10T20:31:06-0500
_audit_creation_method            fapswitch 2.2
_symmetry_space_group_name_H-M    P1
_symmetry_Int_Tables_number       1
_space_group_crystal_system       triclinic
_cell_length_a                    14.970003
_cell_length_b                    10.675037
_cell_length_c                    9.862893
_cell_angle_alpha                 89.935624
_cell_angle_beta                  89.900694
_cell_angle_gamma                 89.804613
_cell_volume                      1576.13041258

loop_
_atom_site_label
_atom_site_type_symbol
_atom_type_description
_atom_site_fract_x
_atom_site_fract_y
_atom_site_fract_z
_atom_type_partial_charge
C1    C     C_R   0.503058 0.259911 0.500045 0.875463
C2    C     C_R   0.904966 0.572291 0.601559 0.125444
C3    C     C_R   0.955464 0.373562 0.299805 -0.217351
C4    C     C_R   0.048195 0.373895 0.301908 -0.194004
C5    C     C_R   0.093489 0.441519 0.401911 0.126703
C6    C     C_R   0.046142 0.509574 0.501385 0.013084
C7    C     C_R   0.091650 0.579873 0.601376 0.061937
C8    C     C_R   0.042313 0.644988 0.700532 -0.161440
C9    C     C_R   0.949717 0.640508 0.700895 -0.238484
C10   C     C_R   0.185588 0.441054 0.404530 -0.306551
C11   C     C_R   0.230970 0.510412 0.501936 -0.128468
C12   C     C_R   0.326797 0.504221 0.500476 0.945637
C13   C     C_R   0.185106 0.582893 0.599318 0.189597
C14   C     C_R   0.521433 0.063667 0.622630 0.137175
C15   C     C_R   0.518299 0.128544 0.500215 -0.096668
C16   C     C_R   0.533121 0.064759 0.377875 -0.225934
C17   C     C_R   0.533153 0.935224 0.377819 -0.217738
C18   C     C_R   0.518356 0.871278 0.500090 -0.099895
C19   C     C_R   0.521509 0.935828 0.622580 0.110867
C20   C     C_3   0.461365 0.928864 0.743489 -0.429142
C21   C     C_3   0.461222 0.070804 0.743453 -0.497566
C22   C     C_R   0.421742 0.490471 0.071313 0.237200
C23   C     C_R   0.503080 0.740061 0.499913 0.899975
C24   C     C_R   0.576399 0.520642 0.071682 -0.149580
C25   C     C_R   0.576390 0.520726 0.927847 -0.149876
C26   C     C_R   0.421789 0.490449 0.928806 0.287254
C27   C     C_3   0.357310 0.384705 0.922844 -0.500229
C28   C     C_3   0.357094 0.384636 0.076753 -0.526959
C29   C     C_R   0.673116 0.499988 0.499875 0.884764
C30   C     C_R   0.812634 0.568075 0.601374 -0.262680
C31   C     C_R   0.768530 0.502053 0.499811 -0.060699
C32   C     C_R   0.815205 0.438708 0.398247 -0.267282
C33   C     C_R   0.907710 0.439516 0.398757 0.121353
C34   C     C_R   0.952997 0.507202 0.500551 0.077866
H1    H     H_    0.774920 0.617800 0.678611 0.146983
H2    H     H_    0.538062 0.886420 0.281833 0.174321
H3    H     H_    0.395070 0.888164 0.719470 0.249474
H4    H     H_    0.495475 0.887528 0.833114 0.204498
H5    H     H_    0.394806 0.112117 0.719318 0.208937
H6    H     H_    0.495317 0.111625 0.833092 0.204413
H7    H     H_    0.638374 0.535470 0.125277 0.159003
H8    H     H_    0.638360 0.535677 0.873927 0.156047
H9    H     H_    0.292240 0.413632 0.878367 0.232106
H10   H     H_    0.387097 0.298725 0.878178 0.204685
H11   H     H_    0.291776 0.413949 0.119885 0.209757
H12   H     H_    0.779458 0.387222 0.320696 0.151184
H13   H     H_    0.386386 0.298321 0.121954 0.214658
H14   H     H_    0.921146 0.321281 0.221596 0.148577
H15   H     H_    0.084515 0.321723 0.225240 0.149246
H16   H     H_    0.222335 0.384915 0.331719 0.157982
H17   H     H_    0.074115 0.698684 0.779575 0.199104
H18   H     H_    0.913071 0.690707 0.778750 0.150131
H19   H     H_    0.537999 0.113752 0.281901 0.171647
N1    N     N_R   0.499390 0.499140 0.142800 -0.114117
N2    N     N_R   0.499390 0.499180 0.857150 -0.113912
O1    O     O_R   0.500010 0.316790 0.614690 -0.619216
O2    O     O_R   0.500000 0.316760 0.385350 -0.627233
O3    O     O_R   0.367850 0.499990 0.614680 -0.585175
O4    O     O_R   0.367840 0.499950 0.385340 -0.622878
O5    O     O_R   0.500000 0.683240 0.614650 -0.604042
O6    O     O_R   0.499990 0.683210 0.385310 -0.622428
O7    O     O_R   0.632160 0.500050 0.614660 -0.634366
O8    O     O_R   0.632150 0.500010 0.385320 -0.634000
Zn1   Zn    Zn3+2 0.500010 0.500020 0.653130 0.965970
Zn2   Zn    Zn3+2 0.499990 0.499980 0.346870 0.947881
Br1   Br    Br    0.249370 0.692051 0.722097 -0.593009

loop_
_geom_bond_atom_site_label_1
_geom_bond_atom_site_label_2
_ccdc_geom_bond_type
C25   H8    S    
C2    C9    A    
C7    C13   A    
C11   C12   S    
O1    Zn1   S    
C28   H13   S    
C6    C7    A    
C1    C15   S    
C17   H2    S    
C1    O2    A    
C20   H4    S    
C19   C20   S    
C21   H5    S    
O5    Zn1   S    
C4    H15   S    
C2    C30   A    
C12   O3    A    
N2    Zn1   S    
C2    C34   A    
O8    Zn2   S    
C17   C18   A    
C5    C10   A    
C22   N1    A    
N1    Zn2   S    
C22   C28   S    
C4    C5    A    
C32   C33   A    
C20   H3    S    
C11   C13   A    
C8    H17   S    
C26   C27   S    
C5    C6    A    
C9    H18   S    
C24   H7    S    
C30   H1    S    
C15   C16   A    
C14   C19   A    
C14   C21   S    
C29   O8    A    
C26   N2    A    
C33   C34   A    
C13   Br1   S    
O3    Zn1   S    
C23   O5    A    
C28   H11   S    
C7    C8    A    
C10   C11   A    
C3    C33   A    
C24   N1    A    
C18   C23   S    
C10   H16   S    
O6    Zn2   S    
C3    H14   S    
C23   O6    A    
C24   C25   A    
C6    C34   A    
C29   C31   S    
C18   C19   A    
C22   C26   A    
C27   C28   S    
C27   H9    S    
C30   C31   A    
C16   C17   A    
O7    Zn1   S    
C14   C15   A    
C20   C21   S    
C29   O7    A    
C12   O4    A    
C32   H12   S    
C27   H10   S    
C1    O1    A    
C31   C32   A    
O4    Zn2   S    
C3    C4    A    
C25   N2    A    
O2    Zn2   S    
C8    C9    A    
C16   H19   S    
C21   H6    S    
