data_mof_unit_10194.cif
_audit_creation_date              2012-12-11T19:42:15-0500
_audit_creation_method            fapswitch 2.2
_symmetry_space_group_name_H-M    P1
_symmetry_Int_Tables_number       1
_space_group_crystal_system       triclinic
_cell_length_a                    8.230265
_cell_length_b                    15.054972
_cell_length_c                    27.015598
_cell_angle_alpha                 98.438894
_cell_angle_beta                  92.638585
_cell_angle_gamma                 81.128419
_cell_volume                      3270.61192079

loop_
_atom_site_label
_atom_site_type_symbol
_atom_type_description
_atom_site_fract_x
_atom_site_fract_y
_atom_site_fract_z
_atom_type_partial_charge
Ba1   Ba    Ba6+2 0.860050 0.456430 0.522530 1.672112
Ba2   Ba    Ba6+2 0.329780 0.543490 0.477460 1.650473
C1    C     C_3   0.809774 0.139656 0.670670 -0.280106
C2    C     C_R   0.931234 0.589175 0.182337 0.573377
C3    C     C_2   0.756858 0.565257 0.274237 -0.080369
C4    C     C_3   0.234449 0.234004 0.651809 0.279698
C5    C     C_3   0.734648 0.592950 0.329716 -0.055567
C6    C     C_1   0.982048 0.483640 0.342808 0.040768
C7    C     C_2   0.020464 0.475644 0.294638 -0.059580
C8    C     C_2   0.900864 0.516796 0.257167 0.203618
C9    C     C_R   0.025904 0.501160 0.103061 -0.079250
C10   C     C_R   0.030985 0.421266 0.124941 -0.042435
C11   C     C_R   0.075349 0.337261 0.095180 -0.056408
C12   C     C_3   0.748163 0.220815 0.643777 0.321316
C13   C     C_R   0.977519 0.585580 0.132307 -0.023587
C14   C     C_2   0.845216 0.533106 0.361354 -0.287481
C15   C     C_2   0.344976 0.476984 0.641061 -0.238468
C16   C     C_3   0.281387 0.178543 0.694834 -0.168022
C17   C     C_R   0.132435 0.407373 0.969268 0.019236
C18   C     C_R   0.121647 0.573540 0.980872 0.021057
C19   C     C_R   0.145848 0.488465 0.949551 0.051881
C20   C     C_R   0.146059 0.325258 0.935697 -0.098241
C21   C     C_R   0.175582 0.322731 0.885062 -0.056825
C22   C     C_R   0.195731 0.401616 0.865608 -0.028075
C23   C     C_3   0.489555 0.675525 0.630727 0.283315
C24   C     C_R   0.182981 0.484534 0.897926 -0.077423
C25   C     C_R   0.206733 0.563548 0.878600 -0.027447
C26   C     C_R   0.245414 0.558256 0.827557 0.622358
C27   C     C_R   0.226209 0.399290 0.814295 0.626073
C28   C     C_3   0.220002 0.266027 0.414040 0.294356
C29   C     C_2   0.419862 0.419077 0.722756 -0.088033
C30   C     C_3   0.446189 0.404677 0.667012 -0.084985
C31   C     C_1   0.204799 0.521253 0.659832 -0.019429
C32   C     C_2   0.167918 0.525257 0.708313 -0.103897
C33   C     C_2   0.284257 0.472524 0.742465 0.195334
C34   C     C_3   0.470029 0.701302 0.686922 -0.319435
C35   C     C_R   0.103570 0.411140 0.021422 0.019974
C36   C     C_R   0.067460 0.496761 0.051754 0.051202
C37   C     C_R   0.071355 0.578145 0.031217 0.020185
C38   C     C_R   0.109666 0.332143 0.044599 -0.097364
C39   C     C_R   0.974605 0.665190 0.110884 -0.058794
C40   C     C_3   0.256090 0.163670 0.398499 -0.383875
C41   C     C_R   0.149442 0.651288 0.960591 -0.097568
C42   C     C_R   0.192021 0.646145 0.910770 -0.051262
C43   C     C_R   0.021641 0.661743 0.061718 -0.100627
C44   C     C_R   0.842218 0.831270 0.465523 -0.001747
C45   C     C_3   0.043029 0.738682 0.344635 0.337690
C46   C     C_R   0.777295 0.924743 0.470009 -0.035858
C47   C     C_R   0.645151 0.112642 0.481307 -0.041171
C48   C     C_R   0.786506 0.078010 0.452990 -0.019391
C49   C     C_R   0.853257 0.986433 0.448443 -0.093599
C50   C     C_R   0.580905 0.206663 0.489055 0.062300
C51   C     C_R   0.437781 0.236382 0.516266 -0.300794
C52   C     C_3   0.976618 0.734205 0.584865 0.311949
C53   C     C_R   0.615420 0.803848 0.512816 0.019198
C54   C     C_R   0.549531 0.896423 0.518302 -0.034607
C55   C     C_R   0.629995 0.957217 0.496536 0.011315
C56   C     C_3   0.068030 0.763194 0.293105 -0.283684
C57   C     C_R   0.404562 0.929700 0.544633 -0.009418
C58   C     C_R   0.336104 0.020025 0.547902 -0.046653
C59   C     C_R   0.415474 0.082141 0.527937 -0.024173
C60   C     C_R   0.564480 0.050902 0.502319 0.007739
C61   C     C_R   0.349895 0.174733 0.533017 -0.009085
C62   C     C_R   0.755920 0.771884 0.484868 -0.301441
C63   C     C_3   0.955440 0.836948 0.599199 -0.352034
C64   C     C_3   0.748460 0.302759 0.365098 0.296529
C65   C     C_3   0.634208 0.368151 0.336664 -0.350861
C66   C     C_2   0.846995 0.232021 0.328234 0.852835
C67   C     C_3   0.497175 0.791105 0.372906 0.354893
C68   C     C_2   0.015850 0.580853 0.729858 0.952822
C69   C     C_2   0.341039 0.080487 0.676261 0.868316
C70   C     C_3   0.443790 0.885765 0.358965 -0.358637
C71   C     C_R   0.991537 0.427093 0.176085 0.603715
H1    H     H_    0.803448 0.210020 0.606266 0.094489
H2    H     H_    0.834019 0.340983 0.389236 -0.033234
H3    H     H_    0.943357 0.134778 0.678703 0.158133
H4    H     H_    0.532811 0.334590 0.317381 0.136588
H5    H     H_    0.700799 0.393768 0.308260 0.083178
H6    H     H_    0.581670 0.426192 0.364040 0.143211
H7    H     H_    0.613687 0.223221 0.638646 -0.044190
H8    H     H_    0.786373 0.076161 0.646736 0.119748
H9    H     H_    0.371455 0.656824 0.614324 0.010737
H10   H     H_    0.588459 0.616337 0.623822 0.076805
H11   H     H_    0.365170 0.756986 0.694740 0.140695
H12   H     H_    0.350331 0.147330 0.369096 0.147367
H13   H     H_    0.446246 0.641768 0.703800 0.092767
H14   H     H_    0.744926 0.146363 0.706487 0.120978
H15   H     H_    0.380583 0.207174 0.718279 0.059798
H16   H     H_    0.126830 0.674870 0.349079 0.093175
H17   H     H_    0.913514 0.728041 0.347108 -0.050280
H18   H     H_    0.169750 0.803966 0.294006 0.147881
H19   H     H_    0.101176 0.700224 0.266509 0.120424
H20   H     H_    0.633815 0.777311 0.372218 -0.063483
H21   H     H_    0.503516 0.935948 0.384997 0.073947
H22   H     H_    0.308473 0.904802 0.361644 0.149658
H23   H     H_    0.302376 0.129109 0.430876 0.051021
H24   H     H_    0.176753 0.303511 0.667443 0.072772
H25   H     H_    0.480539 0.887944 0.320175 0.128664
H26   H     H_    0.139898 0.440346 0.282199 0.115051
H27   H     H_    0.082472 0.274492 0.110856 0.123436
H28   H     H_    0.504049 0.379862 0.746373 0.098741
H29   H     H_    0.183204 0.257974 0.861059 0.122603
H30   H     H_    0.129473 0.261696 0.947136 0.072572
H31   H     H_    0.144692 0.264825 0.024822 0.071291
H32   H     H_    0.666516 0.595234 0.248563 0.112876
H33   H     H_    0.936431 0.731262 0.132296 0.123654
H34   H     H_    0.142093 0.137243 0.383721 0.139969
H35   H     H_    0.143306 0.717291 0.982744 0.071483
H36   H     H_    0.349024 0.239121 0.633304 -0.068628
H37   H     H_    0.211896 0.707913 0.897361 0.125442
H38   H     H_    0.012573 0.726181 0.048141 0.072757
H39   H     H_    0.823177 0.543161 0.401213 0.087000
H40   H     H_    0.386337 0.487748 0.605100 0.059753
H41   H     H_    0.849375 0.120654 0.434157 0.119684
H42   H     H_    0.964074 0.964774 0.427294 0.114068
H43   H     H_    0.222158 0.040259 0.567563 0.103747
H44   H     H_    0.339625 0.886729 0.562627 0.094612
H45   H     H_    0.856685 0.713017 0.573480 -0.004616
H46   H     H_    0.173431 0.183750 0.718794 0.119063
H47   H     H_    0.805071 0.700348 0.481167 0.065133
H48   H     H_    0.335129 0.291890 0.427002 0.021468
H49   H     H_    0.130997 0.280499 0.444812 0.059912
H50   H     H_    0.003437 0.205786 0.270757 0.333727
H51   H     H_    0.583997 0.724240 0.704283 0.132612
H52   H     H_    0.954010 0.803395 0.279814 0.130404
H53   H     H_    0.455808 0.790773 0.411450 0.074163
H54   H     H_    0.866732 0.701248 0.738254 0.306166
H55   H     H_    0.387373 0.307775 0.521060 0.069584
H56   H     H_    0.062222 0.714780 0.553308 0.069191
H57   H     H_    0.299765 0.950641 0.669539 0.311702
H58   H     H_    0.862871 0.858667 0.628903 0.149338
H59   H     H_    0.913876 0.871514 0.566431 0.055842
H60   H     H_    0.074606 0.858111 0.613247 0.125181
N1    N     N_R   0.942368 0.510647 0.204452 -0.425560
N2    N     N_R   0.251591 0.476943 0.795648 -0.415891
O1    O     O_2   0.906480 0.548660 0.619050 -0.451369
O2    O     O_2   0.180809 0.824657 0.473537 -0.489857
O3    O     O_3   0.079165 0.809614 0.381105 -0.607340
O4    O     O_3   0.138490 0.548590 0.558870 -0.501741
O5    O     O_3   0.572560 0.389960 0.472890 -0.477020
O6    O     O_2   0.345660 0.723580 0.528500 -0.468711
O7    O     O_3   0.530529 0.749647 0.610574 -0.638744
O8    O     O_2   0.403174 0.552843 0.322830 -0.501427
O9    O     O_3   0.425928 0.726923 0.338919 -0.593886
O10   O     O_2   0.998187 0.357661 0.194988 -0.568224
O11   O     O_2   0.228517 0.328028 0.786052 -0.621919
O12   O     O_3   0.649905 0.259654 0.392079 -0.641756
O13   O     O_2   0.880774 0.662799 0.206232 -0.624186
O14   O     O_2   0.273557 0.626030 0.811535 -0.587911
O15   O     O_3   0.686300 0.382310 0.585700 -0.484963
O16   O     O_2   0.741344 0.478080 0.674262 -0.450121
O17   O     O_3   0.037661 0.694365 0.626729 -0.586402
O18   O     O_3   0.790582 0.300715 0.672011 -0.573323
O19   O     O_2   0.844040 0.276390 0.471470 -0.487197
O20   O     O_3   0.101510 0.335500 0.560330 -0.476657
O21   O     O_2   0.009397 0.175520 0.526715 -0.496991
O22   O     O_2   0.843380 0.151201 0.328695 -0.609824
O23   O     O_3   0.121020 0.193498 0.618865 -0.611740
O24   O     O_R   0.942274 0.259127 0.293244 -0.741684
O25   O     O_2   0.934413 0.549654 0.757972 -0.594262
O26   O     O_R   0.969562 0.669906 0.720093 -0.722958
O27   O     O_2   0.471592 0.059024 0.654740 -0.649460
O28   O     O_R   0.247371 0.014033 0.683994 -0.754503
O29   O     O_2   0.283210 0.451310 0.380920 -0.463668
O30   O     O_3   0.051220 0.451340 0.441120 -0.501079
O31   O     O_3   0.503410 0.617620 0.414290 -0.472738
O32   O     O_3   0.155635 0.305902 0.372441 -0.606054
O33   O     O_3   0.617150 0.609960 0.527100 -0.479487
O34   O     O_3   0.088210 0.664420 0.439670 -0.492976
P1    P     P_3+3 0.071950 0.575820 0.612140 1.022127
P2    P     P_3+3 0.664370 0.290050 0.457240 0.983252
P3    P     P_3+3 0.144896 0.218743 0.558721 0.947611
P4    P     P_3+3 0.117760 0.424110 0.387850 1.005173
P5    P     P_3+3 0.046935 0.782457 0.440244 0.933528
P6    P     P_3+3 0.666628 0.393272 0.650527 0.987428
P7    P     P_3+3 0.530791 0.723104 0.545297 0.942095
P8    P     P_3+3 0.516323 0.618598 0.350233 0.942655

loop_
_geom_bond_atom_site_label_1
_geom_bond_atom_site_label_2
_ccdc_geom_bond_type
H57   O28   S    
C64   C66   S    
C53   C54   A    
C69   O27   D    
Ba2   O33   S    
C67   C70   S    
C26   N2    Am   
C23   O7    S    
C65   H4    S    
C19   C24   A    
C18   C41   A    
C15   H40   S    
C55   C60   A    
C52   C63   S    
C3    H32   S    
C67   O9    S    
C24   C25   A    
C69   O28   S    
C40   H23   S    
Ba2   O4    S    
C29   H28   S    
C34   H51   S    
C22   C24   A    
C28   O32   S    
C32   C33   S    
C35   C38   A    
C67   H20   S    
Ba2   P4    S    
C36   C37   A    
C21   H29   S    
O30   P4    S    
C2    O13   D    
C52   O17   S    
Ba1   P1    S    
C54   C55   A    
C5    P8    S    
O4    P1    S    
C59   C61   A    
Ba1   Ba2   S    
C6    C14   D    
Ba1   O20   S    
C22   C27   A    
C11   C38   A    
C71   N1    Am   
C17   C35   A    
C63   H58   S    
C70   H22   S    
C9    C13   A    
C25   C42   A    
C46   C49   A    
C28   H49   S    
C6    C7    D    
C1    H8    S    
O6    P7    D    
O34   P5    S    
C44   P5    S    
C12   H7    S    
Ba1   O1    S    
C7    C8    S    
C32   C68   S    
Ba1   O4    S    
C37   C43   A    
C70   H21   S    
O15   P6    S    
C26   O14   D    
H54   O26   S    
C10   C71   A    
C56   H18   S    
C45   H16   S    
C59   C60   A    
C65   H5    S    
C15   C31   D    
C31   P1    S    
O20   P3    S    
C50   P2    S    
C4    O23   S    
O12   P2    S    
C31   C32   D    
C4    C16   S    
C30   P6    S    
C44   C46   A    
O16   P6    D    
C39   H33   S    
C1    H14   S    
C4    H24   S    
C46   C55   A    
C17   C20   A    
C65   H6    S    
C13   C39   A    
C33   N2    S    
C27   O11   D    
C3    C5    S    
C18   C37   A    
C7    H26   S    
C6    P4    S    
C70   H25   S    
Ba2   O34   S    
Ba1   O33   S    
C34   H13   S    
O21   P3    D    
C49   H42   S    
C20   H30   S    
C71   O10   D    
C58   C59   A    
C48   H41   S    
C9    C36   A    
C41   C42   A    
C57   C58   A    
O3    P5    S    
C35   C36   A    
C51   H55   S    
C38   H31   S    
O17   P1    S    
C29   C30   S    
C28   H48   S    
Ba1   O30   S    
C21   C22   A    
C47   C50   A    
C53   C62   A    
C18   C19   A    
C48   C49   A    
Ba1   O15   S    
C40   H12   S    
C10   C11   A    
C1    H3    S    
Ba1   O5    S    
Ba2   O30   S    
C64   O12   S    
C1    C12   S    
C5    C14   S    
C27   N2    Am   
O1    P1    D    
C67   H53   S    
O5    P2    S    
O31   P8    S    
C52   H45   S    
C12   O18   S    
C23   H9    S    
C15   C30   S    
C45   H17   S    
C29   C33   D    
C58   H43   S    
Ba2   O29   S    
C66   O22   D    
C66   O24   S    
C68   O26   S    
C12   H1    S    
C63   H59   S    
C50   C51   A    
C14   H39   S    
C2    N1    Am   
C40   H34   S    
C16   C69   S    
O33   P7    S    
C52   H56   S    
Ba2   O31   S    
C47   C60   A    
C17   C19   A    
C8    N1    S    
O7    P7    S    
C9    C10   A    
C43   H38   S    
O18   P6    S    
C62   H47   S    
C54   C57   A    
O32   P4    S    
Ba2   O5    S    
C11   H27   S    
C34   H11   S    
O2    P5    D    
C45   C56   S    
C51   C61   A    
O23   P3    S    
C61   P3    S    
H50   O24   S    
C2    C13   A    
C64   H2    S    
C45   O3    S    
C4    H36   S    
Ba1   P2    S    
O19   P2    D    
C64   C65   S    
C68   O25   D    
C41   H35   S    
O8    P8    D    
Ba1   O19   S    
O29   P4    D    
C16   H15   S    
C53   P7    S    
C23   C34   S    
C3    C8    D    
O9    P8    S    
C56   H52   S    
C57   H44   S    
C47   C48   A    
C44   C62   A    
C25   C26   A    
C23   H10   S    
Ba2   O6    S    
C39   C43   A    
C20   C21   A    
C28   C40   S    
C56   H19   S    
C16   H46   S    
C63   H60   S    
C42   H37   S    
