data_mof_unit_23496.cif
_audit_creation_date              2012-10-26T19:57:56-0400
_audit_creation_method            fapswitch 2.2
_symmetry_space_group_name_H-M    P1
_symmetry_Int_Tables_number       1
_space_group_crystal_system       triclinic
_cell_length_a                    7.453014
_cell_length_b                    8.684166
_cell_length_c                    13.014217
_cell_angle_alpha                 88.020457
_cell_angle_beta                  79.535593
_cell_angle_gamma                 102.771308
_cell_volume                      805.366314691

loop_
_atom_site_label
_atom_site_type_symbol
_atom_type_description
_atom_site_fract_x
_atom_site_fract_y
_atom_site_fract_z
_atom_type_partial_charge
C1    C     C_R   0.452814 0.199697 0.503207 0.543336
C2    C     C_R   0.729787 0.544890 0.121433 -0.201987
C3    C     C_R   0.610033 0.525534 0.859486 0.364459
C4    C     C_R   0.389967 0.474466 0.140514 0.364459
C5    C     C_R   0.590646 0.519370 0.967969 0.014726
C6    C     C_R   0.409354 0.480630 0.032031 0.014726
C7    C     C_2   0.426193 0.031878 0.504737 -0.139709
C8    C     C_2   0.573807 0.968122 0.495263 -0.139710
C9    C     C_R   0.547186 0.800303 0.496793 0.543336
C10   C     C_R   0.467324 0.496506 0.701235 0.570612
C11   C     C_R   0.532676 0.503494 0.298765 0.570611
C12   C     C_R   0.550455 0.507159 0.185467 0.015631
C13   C     C_R   0.449545 0.492841 0.814533 0.015631
C14   C     C_R   0.250223 0.448792 0.986575 -0.129075
C15   C     C_R   0.749776 0.551207 0.013425 -0.129075
C16   C     C_R   0.270213 0.455110 0.878567 -0.201987
Cu1   Cu    Cu3+1 0.686350 0.517570 0.488220 1.036485
Cu2   Cu    Cu3+1 0.313650 0.482430 0.511780 1.036485
F1    F     F_    0.215171 0.435830 0.201518 -0.637940
F2    F     F_    0.784829 0.564170 0.798482 -0.637940
H1    H     H_    0.855332 0.570724 0.154656 0.179922
H2    H     H_    0.144668 0.429276 0.845344 0.179922
H3    H     H_    0.110231 0.418611 0.034141 0.184542
H4    H     H_    0.889769 0.581388 0.965859 0.184542
H5    H     H_    0.934082 0.376949 0.582985 0.250984
H6    H     H_    0.065918 0.623051 0.417015 0.250984
H7    H     H_    0.283842 0.960419 0.513666 0.144147
H8    H     H_    0.716158 0.039581 0.486334 0.144147
N1    N     N_2   0.033570 0.455950 0.529530 -0.233138
N2    N     N_2   0.966430 0.544050 0.470470 -0.233138
O1    O     O_R   0.621060 0.286250 0.492350 -0.512300
O2    O     O_R   0.378940 0.713750 0.507650 -0.512300
O3    O     O_R   0.306310 0.256580 0.512240 -0.500083
O4    O     O_R   0.693690 0.743420 0.487760 -0.500083
O5    O     O_R   0.631800 0.512400 0.642670 -0.439355
O6    O     O_R   0.368200 0.487600 0.357330 -0.439355
O7    O     O_R   0.317060 0.482730 0.662570 -0.511256
O8    O     O_R   0.682940 0.517270 0.337430 -0.511256

loop_
_geom_bond_atom_site_label_1
_geom_bond_atom_site_label_2
_ccdc_geom_bond_type
C14   H3    S    
C11   O8    A    
C11   C12   S    
C10   O5    A    
Cu1   N2    S    
C4    C12   A    
C3    C13   A    
C2    C12   A    
C2    H1    S    
Cu1   Cu2   S    
C1    O3    A    
C3    F2    S    
C6    C14   A    
Cu2   N1    S    
C2    C15   A    
N1    N2    D    
C10   O7    A    
Cu1   O1    S    
C5    C6    A    
C11   O6    A    
Cu2   O7    S    
H6    N2    S    
Cu1   O8    S    
H5    N1    S    
C9    O4    A    
C8    H8    S    
Cu2   O3    S    
C14   C16   A    
C5    C15   A    
Cu2   O2    S    
Cu1   O4    S    
C1    O1    A    
C7    H7    S    
C4    C6    A    
C7    C8    D    
C13   C16   A    
C15   H4    S    
C16   H2    S    
Cu1   O5    S    
C9    O2    A    
C1    C7    S    
C4    F1    S    
Cu2   O6    S    
C8    C9    S    
C3    C5    A    
C10   C13   S    
