data_mof_unit_47353.cif
_audit_creation_date              2013-03-05T16:21:59-0500
_audit_creation_method            fapswitch 2.2
_symmetry_space_group_name_H-M    P1
_symmetry_Int_Tables_number       1
_space_group_crystal_system       triclinic
_cell_length_a                    15.283022
_cell_length_b                    13.955935
_cell_length_c                    10.863956
_cell_angle_alpha                 91.807304
_cell_angle_beta                  93.748161
_cell_angle_gamma                 92.032783
_cell_volume                      2309.4172266

loop_
_atom_site_label
_atom_site_type_symbol
_atom_site_description
_atom_site_fract_x
_atom_site_fract_y
_atom_site_fract_z
_atom_type_partial_charge
O1    O     O_R   0.371460 0.581430 0.500010 -0.524910
O2    O     O_R   0.628540 0.418570 0.499990 -0.536855
O3    O     O_R   0.628540 0.581430 0.499990 -0.530495
O4    O     O_R   0.371460 0.418570 0.500010 -0.533891
C1    C     C_R   0.330350 0.499012 0.510335 0.867917
C2    C     C_R   0.669984 0.501821 0.495055 0.868919
O5    O     O_R   0.499990 0.581440 0.319660 -0.575699
O6    O     O_R   0.500010 0.418560 0.680340 -0.565655
O7    O     O_R   0.500010 0.581440 0.680340 -0.562599
O8    O     O_R   0.499990 0.418560 0.319660 -0.559230
C3    C     C_R   0.511611 0.498539 0.264218 0.827172
C4    C     C_R   0.492780 0.501005 0.738030 0.820607
Cu1   Cu    Cu3+1 0.500000 0.596430 0.500000 1.110022
Cu2   Cu    Cu3+1 0.500000 0.403570 0.500000 1.108307
C5    C     C_R   0.585075 0.661141 0.131193 -0.203859
C6    C     C_R   0.443505 0.328192 0.875737 -0.194492
C7    C     C_R   0.496878 0.681149 0.902742 -0.175862
C8    C     C_R   0.524167 0.316073 0.108871 -0.143322
C9    C     C_R   0.580923 0.752404 0.082103 0.313530
C10   C     C_R   0.452167 0.237998 0.926520 0.290841
C11   C     C_R   0.531902 0.763395 0.969147 0.312721
C12   C     C_R   0.494889 0.231477 0.044116 0.281241
C13   C     C_R   0.508851 0.587887 0.946996 0.033480
C14   C     C_R   0.510874 0.407858 0.059994 0.041327
C15   C     C_R   0.541117 0.580765 0.070274 0.034875
C16   C     C_R   0.480548 0.413039 0.935543 0.027721
C17   C     C_R   0.487200 0.502178 0.874834 -0.113554
C18   C     C_R   0.527970 0.494208 0.130957 -0.096577
C19   C     C_R   0.099331 0.586943 0.503382 -0.177341
C20   C     C_R   0.900168 0.428316 0.431911 -0.169634
C21   C     C_R   0.910136 0.580166 0.544658 -0.171390
C22   C     C_R   0.090256 0.415055 0.515815 -0.173437
H1    H     H_    0.068239 0.655027 0.494947 0.195683
H2    H     H_    0.931272 0.370566 0.384579 0.194414
H3    H     H_    0.948182 0.638723 0.591854 0.191562
H4    H     H_    0.050865 0.349873 0.524227 0.201930
C23   C     C_R   0.190114 0.587133 0.526560 0.328205
C24   C     C_R   0.808440 0.429220 0.427287 0.335378
C25   C     C_R   0.819315 0.585353 0.535775 0.295430
C26   C     C_R   0.181774 0.412186 0.531445 0.311974
C27   C     C_R   0.233683 0.498660 0.525285 -0.268040
C28   C     C_R   0.766545 0.506325 0.484564 -0.266276
C29   C     C_R   0.048550 0.501383 0.499050 0.013735
C30   C     C_R   0.951601 0.502924 0.492020 0.019544
C31   C     C_R   0.569052 0.110395 0.551796 -0.204824
C32   C     C_R   0.450515 0.887136 0.403268 -0.188691
C33   C     C_R   0.430968 0.103729 0.435707 -0.184112
C34   C     C_R   0.542027 0.900163 0.588229 -0.188544
C35   C     C_R   0.567326 0.211182 0.558767 0.476292
C36   C     C_R   0.449995 0.786060 0.409196 0.482660
C37   C     C_R   0.432398 0.204738 0.436614 0.466147
C38   C     C_R   0.549668 0.799920 0.587845 0.447560
N1    N     N_R   0.500000 0.258690 0.500000 -0.302126
N2    N     N_R   0.500000 0.741310 0.500000 -0.288172
C39   C     C_R   0.499294 0.054465 0.492636 0.072431
C40   C     C_R   0.496880 0.946041 0.493768 0.051857
N3    N     N_R   0.504347 0.140807 0.102241 0.167820
O9    O     O_R   0.569218 0.129090 0.183441 -0.274699
O10   O     O_R   0.442122 0.074540 0.087585 -0.232820
N4    N     N_R   0.518125 0.856413 0.919485 0.165191
O11   O     O_R   0.447274 0.871341 0.850737 -0.274231
O12   O     O_R   0.579637 0.923557 0.931949 -0.205119
N5    N     N_R   0.423797 0.153886 0.853136 0.161362
O13   O     O_R   0.352134 0.154032 0.781585 -0.251376
O14   O     O_R   0.477019 0.084102 0.840621 -0.244322
N6    N     N_R   0.618074 0.833282 0.155000 0.160631
O15   O     O_R   0.692124 0.825784 0.219582 -0.266867
O16   O     O_R   0.570933 0.907179 0.175634 -0.236276
H5    H     H_    0.620372 0.653861 0.219961 0.192555
H6    H     H_    0.408172 0.330276 0.787823 0.235253
H7    H     H_    0.457260 0.692022 0.818923 0.218150
H8    H     H_    0.558497 0.307923 0.197270 0.238606
N7    N     N_R   0.234908 0.676614 0.565407 0.172174
O17   O     O_R   0.288538 0.680065 0.663747 -0.329894
O18   O     O_R   0.207136 0.756923 0.522449 -0.264790
N8    N     N_R   0.759157 0.356754 0.353167 0.155535
O19   O     O_R   0.701703 0.382664 0.268378 -0.394661
O20   O     O_R   0.784808 0.268833 0.350521 -0.248625
N9    N     N_R   0.783599 0.674245 0.572893 0.175604
O21   O     O_R   0.745721 0.725969 0.488709 -0.279328
O22   O     O_R   0.813321 0.716278 0.676747 -0.244719
N10   N     N_R   0.218461 0.323913 0.570423 0.178487
O23   O     O_R   0.279894 0.326692 0.658682 -0.352566
O24   O     O_R   0.174140 0.243193 0.547571 -0.240298
H9    H     H_    0.625462 0.076862 0.594664 0.199442
H10   H     H_    0.414107 0.918548 0.326897 0.208773
H11   H     H_    0.375591 0.064103 0.389389 0.200411
H12   H     H_    0.573626 0.943378 0.663616 0.223107
N11   N     N_R   0.637109 0.262049 0.629890 0.150745
O25   O     O_R   0.623093 0.296449 0.739090 -0.326572
O26   O     O_R   0.717637 0.248963 0.603113 -0.289501
N12   N     N_R   0.397484 0.732244 0.315415 0.150643
O27   O     O_R   0.413520 0.743941 0.200787 -0.353235
O28   O     O_R   0.318748 0.703263 0.338222 -0.284625
N13   N     N_R   0.360537 0.247873 0.369952 0.150934
O29   O     O_R   0.375451 0.301089 0.277428 -0.342788
O30   O     O_R   0.282564 0.207750 0.371471 -0.270052
N14   N     N_R   0.614633 0.766381 0.679023 0.142583
O31   O     O_R   0.630724 0.677262 0.693526 -0.296416
O32   O     O_R   0.666453 0.828197 0.743051 -0.268122

loop_
_geom_bond_atom_site_label_1
_geom_bond_atom_site_label_2
_geom_bond_distance
_ccdc_geom_bond_type
O5    Cu1   1.963762 S    
N6    O16   1.300821 A    
C39   C40   1.512758 S    
N5    O14   1.300347 A    
N7    O17   1.301916 A    
N13   O29   1.295741 A    
O3    C2    1.299620 A    
C12   N3    1.439550 S    
C24   N8    1.433104 S    
C15   C18   1.408739 A    
C5    C9    1.398149 A    
C16   C17   1.429835 A    
C36   N2    1.386143 A    
O1    C1    1.302469 A    
C22   H4    1.082529 S    
C9    C11   1.410856 A    
C14   C16   1.405217 A    
C24   C28   1.419093 A    
C5    C15   1.410383 A    
N14   O31   1.288872 A    
C19   H1    1.081136 S    
C20   C24   1.400014 A    
C9    N6    1.436287 S    
N4    O12   1.301177 A    
O7    Cu1   1.976884 S    
C23   N7    1.440345 S    
C34   H12   1.078977 S    
C8    C14   1.418199 A    
C13   C17   1.426086 A    
N11   O26   1.300779 A    
O3    Cu1   1.982979 S    
C6    C10   1.397290 A    
C13   C15   1.404379 A    
N6    O15   1.301233 A    
Cu1   Cu2   2.691543 S    
C19   C29   1.398668 A    
C6    C16   1.414436 A    
N7    O18   1.301902 A    
C20   C30   1.400137 A    
O2    C2    1.307709 A    
C38   N2    1.402868 A    
O5    C3    1.310527 A    
C25   C28   1.419818 A    
C8    H8    1.075064 S    
C5    H5    1.083227 S    
C21   C30   1.395567 A    
C20   H2    1.083034 S    
C4    C17   1.493847 S    
C26   N10   1.436039 S    
C6    H6    1.067745 S    
N8    O19   1.299249 A    
C11   N4    1.438514 S    
O8    Cu2   1.976885 S    
C35   N11   1.429115 S    
N9    O22   1.302220 A    
C33   C37   1.408774 A    
C7    C11   1.406465 A    
N9    O21   1.301801 A    
N4    O11   1.301462 A    
C37   N1    1.388404 A    
C25   N9    1.429987 S    
C31   H9    1.081211 S    
C29   C30   1.479602 S    
C31   C35   1.407503 A    
O6    C4    1.304402 A    
N12   O28   1.297601 A    
C7    C13   1.415470 A    
C36   N12   1.431163 S    
C26   C27   1.426313 A    
C10   C12   1.403287 A    
C7    H7    1.077960 S    
N10   O24   1.302209 A    
C21   H3    1.081539 S    
O1    Cu1   1.968212 S    
C19   C23   1.393705 A    
C33   C39   1.392452 A    
Cu1   N2    2.021934 S    
C34   C40   1.385413 A    
C1    C27   1.496632 S    
O6    Cu2   1.963761 S    
C8    C12   1.399272 A    
C14   C18   1.416900 A    
N8    O20   1.301329 A    
O4    C1    1.311090 A    
N13   O30   1.299880 A    
C32   C36   1.413876 A    
N14   O32   1.302679 A    
C10   N5    1.435685 S    
O4    Cu2   1.982979 S    
N3    O9    1.301580 A    
C3    C18   1.484922 S    
C35   N1    1.376641 A    
C38   N14   1.455914 S    
N12   O27   1.298994 A    
C22   C29   1.394306 A    
C21   C25   1.389668 A    
C22   C26   1.400032 A    
C23   C27   1.423579 A    
O2    Cu2   1.968212 S    
O7    C4    1.307579 A    
N3    O10   1.301363 A    
O8    C3    1.297122 A    
N5    O13   1.301040 A    
C34   C38   1.407861 A    
Cu2   N1    2.021934 S    
C31   C39   1.406657 A    
N10   O23   1.296055 A    
C2    C28   1.486821 S    
C32   C40   1.400417 A    
N11   O25   1.299370 A    
C37   N13   1.436476 S    
C32   H10   1.081694 S    
C33   H11   1.081139 S    
