data_mof_unit_50797.cif
_audit_creation_date              2012-12-10T19:29:25-0500
_audit_creation_method            fapswitch 2.2
_symmetry_space_group_name_H-M    P1
_symmetry_Int_Tables_number       1
_space_group_crystal_system       triclinic
_cell_length_a                    22.05088
_cell_length_b                    22.407388
_cell_length_c                    14.960173
_cell_angle_alpha                 89.986638
_cell_angle_beta                  90.259266
_cell_angle_gamma                 90.005529
_cell_volume                      7391.78482077

loop_
_atom_site_label
_atom_site_type_symbol
_atom_type_description
_atom_site_fract_x
_atom_site_fract_y
_atom_site_fract_z
_atom_type_partial_charge
C1    C     C_R   0.418754 0.918798 0.499903 0.905527
C2    C     C_R   0.581858 0.080645 0.500123 0.904371
C3    C     C_R   0.581681 0.919221 0.500052 0.902144
C4    C     C_R   0.418439 0.080934 0.499784 0.905635
C5    C     C_R   0.918573 0.418951 0.499944 0.904003
C6    C     C_R   0.081540 0.580932 0.500200 0.905423
C7    C     C_R   0.081319 0.418885 0.500117 0.904125
C8    C     C_R   0.918207 0.580723 0.499864 0.904952
C9    C     C_1   0.333950 0.160622 0.497831 0.007675
C10   C     C_1   0.665490 0.838962 0.498534 0.005881
C11   C     C_1   0.668652 0.157960 0.500316 0.007968
C12   C     C_1   0.337481 0.836068 0.500228 -0.003776
C13   C     C_1   0.833087 0.659843 0.499567 0.007385
C14   C     C_1   0.163118 0.336712 0.499887 -0.001748
C15   C     C_1   0.166151 0.660432 0.502085 0.008478
C16   C     C_1   0.837334 0.336131 0.501036 -0.000900
C17   C     C_1   0.499673 0.999630 0.189989 0.158491
C18   C     C_1   0.500418 0.999689 0.810005 0.156164
C19   C     C_1   0.000001 0.499814 0.189997 0.160511
C20   C     C_1   0.000472 0.499566 0.810007 0.154167
C21   C     C_3   0.459522 0.960416 0.969540 0.499090
C22   C     C_3   0.541586 0.036815 0.030059 0.433740
C23   C     C_3   0.513575 0.944512 0.030594 0.429237
C24   C     C_3   0.487050 0.052966 0.970368 0.440967
C25   C     C_3   0.956278 0.464333 0.969924 0.497274
C26   C     C_3   0.045561 0.532872 0.029707 0.430860
C27   C     C_3   0.008692 0.443650 0.030844 0.431103
C28   C     C_3   0.992629 0.553934 0.970244 0.439163
C29   C     C_3   0.694937 0.727947 0.517683 0.580436
C30   C     C_3   0.300544 0.270102 0.524240 0.582959
C31   C     C_3   0.304735 0.725879 0.529066 0.588949
C32   C     C_3   0.699827 0.268362 0.514919 0.598503
C33   C     C_3   0.195391 0.226509 0.472012 0.592185
C34   C     C_3   0.802852 0.770436 0.479295 0.597990
C35   C     C_3   0.808455 0.223861 0.487227 0.580256
C36   C     C_3   0.200119 0.769627 0.474722 0.582777
C37   C     C_3   0.252753 0.226576 0.413527 -0.318045
C38   C     C_3   0.765554 0.790262 0.560704 -0.312254
C39   C     C_3   0.768182 0.206786 0.567206 -0.320009
C40   C     C_3   0.257832 0.768864 0.417201 -0.313962
C41   C     C_3   0.732298 0.708067 0.436159 -0.324792
C42   C     C_3   0.243218 0.269845 0.582624 -0.318919
C43   C     C_3   0.246940 0.726508 0.586647 -0.321263
C44   C     C_3   0.739926 0.285364 0.435079 -0.304981
C45   C     C_1   0.372650 0.124044 0.498990 -0.172117
C46   C     C_1   0.627262 0.875970 0.499689 -0.178125
C47   C     C_1   0.628948 0.122411 0.500316 -0.170495
C48   C     C_1   0.374695 0.874063 0.499866 -0.177820
C49   C     C_1   0.871950 0.623398 0.499636 -0.171685
C50   C     C_1   0.125680 0.374473 0.500211 -0.181957
C51   C     C_1   0.127373 0.623955 0.500953 -0.171439
C52   C     C_1   0.874392 0.374293 0.500188 -0.174388
C53   C     C_3   0.230388 0.204266 0.554836 -0.312485
C54   C     C_3   0.747831 0.774301 0.415712 -0.328155
C55   C     C_3   0.755430 0.218512 0.420136 -0.323810
C56   C     C_3   0.234616 0.792039 0.557882 -0.327373
C57   C     C_3   0.749968 0.724088 0.581262 -0.320812
C58   C     C_3   0.265573 0.292213 0.441293 -0.325352
C59   C     C_3   0.270194 0.703372 0.445999 -0.309458
C60   C     C_3   0.752716 0.273699 0.582011 -0.330024
C61   C     C_3   0.288108 0.205612 0.497044 0.073519
C62   C     C_3   0.710231 0.792964 0.497620 0.078116
C63   C     C_3   0.714837 0.202652 0.500374 0.068853
C64   C     C_3   0.292660 0.790186 0.500835 0.072043
C65   C     C_3   0.787745 0.705375 0.499386 0.071435
C66   C     C_3   0.207973 0.290890 0.499253 0.075343
C67   C     C_3   0.212118 0.705261 0.502893 0.074724
C68   C     C_3   0.793218 0.289538 0.501764 0.074898
C69   C     C_3   0.444177 0.014916 0.029348 -0.393729
C70   C     C_3   0.556512 0.982029 0.970219 -0.509145
C71   C     C_3   0.946415 0.520161 0.029535 -0.390204
C72   C     C_3   0.054902 0.476806 0.970062 -0.506651
C73   C     C_3   0.499428 0.998938 0.090119 -0.154811
C74   C     C_3   0.500999 0.998913 0.909868 -0.155728
C75   C     C_3   0.000025 0.499291 0.090146 -0.156332
C76   C     C_3   0.001125 0.498700 0.909875 -0.156103
H1    H     H_    0.602088 0.968576 0.946448 0.169759
H2    H     H_    0.398180 0.027446 0.052508 0.174283
H3    H     H_    0.098833 0.458778 0.946347 0.169993
H4    H     H_    0.901920 0.537128 0.052754 0.174802
H5    H     H_    0.257292 0.207205 0.345622 0.154814
H6    H     H_    0.778720 0.825389 0.609375 0.155301
H7    H     H_    0.779145 0.173251 0.619458 0.155970
H8    H     H_    0.262835 0.787653 0.348966 0.157376
H9    H     H_    0.719404 0.673153 0.386999 0.153924
H10   H     H_    0.238714 0.288989 0.650703 0.153323
H11   H     H_    0.241681 0.707496 0.654675 0.155818
H12   H     H_    0.728718 0.319054 0.383158 0.157816
H13   H     H_    0.746325 0.796646 0.349556 0.159700
H14   H     H_    0.216569 0.166962 0.599134 0.155971
H15   H     H_    0.221099 0.829429 0.602192 0.154161
H16   H     H_    0.755866 0.194510 0.355246 0.154821
H17   H     H_    0.278911 0.329329 0.396324 0.153531
H18   H     H_    0.751250 0.701973 0.647644 0.155023
H19   H     H_    0.752440 0.297924 0.646706 0.153590
H20   H     H_    0.284128 0.665776 0.402368 0.156229
N1    N     N_1   0.500020 0.000000 0.268010 -0.097382
N2    N     N_1   0.499980 0.000000 0.731990 -0.098838
N3    N     N_1   0.000020 0.500000 0.268010 -0.097592
N4    N     N_1   0.999980 0.500000 0.731990 -0.099324
O1    O     O_R   0.438390 0.938390 0.574460 -0.615344
O2    O     O_R   0.561610 0.061610 0.425540 -0.607144
O3    O     O_R   0.561610 0.938390 0.425540 -0.614266
O4    O     O_R   0.438390 0.061610 0.574460 -0.601027
O5    O     O_R   0.938390 0.438390 0.574460 -0.617353
O6    O     O_R   0.061610 0.561610 0.425540 -0.603771
O7    O     O_R   0.061610 0.438390 0.425540 -0.612008
O8    O     O_R   0.938390 0.561610 0.574460 -0.605010
O9    O     O_R   0.438400 0.938390 0.425520 -0.610100
O10   O     O_R   0.561600 0.061610 0.574480 -0.608558
O11   O     O_R   0.561600 0.938390 0.574480 -0.614107
O12   O     O_R   0.438400 0.061610 0.425520 -0.613951
O13   O     O_R   0.938400 0.438390 0.425520 -0.608747
O14   O     O_R   0.061600 0.561610 0.574480 -0.610543
O15   O     O_R   0.061600 0.438390 0.574480 -0.616841
O16   O     O_R   0.938400 0.561610 0.425520 -0.610719
Zn1   Zn    Zn3+2 0.500000 0.000000 0.599450 0.984133
Zn2   Zn    Zn3+2 0.500000 0.000000 0.400550 0.984494
Zn3   Zn    Zn3+2 0.000000 0.500000 0.599450 0.979335
Zn4   Zn    Zn3+2 0.000000 0.500000 0.400550 0.987433
O17   O     O_3   0.634575 0.711720 0.536852 -0.639937
C77   C     C_3   0.631399 0.650211 0.555546 0.066002
H21   H     H_    0.658766 0.639271 0.616113 0.138232
H22   H     H_    0.647928 0.623547 0.497729 0.134218
C78   C     C_3   0.565189 0.633844 0.573096 -0.279403
H23   H     H_    0.547825 0.660737 0.629954 0.230062
H24   H     H_    0.537426 0.644432 0.512930 0.231081
C79   C     C_3   0.558213 0.567778 0.595123 -1.016511
H25   H     H_    0.574759 0.539961 0.538826 0.266844
H26   H     H_    0.509625 0.557407 0.606524 0.268504
H27   H     H_    0.584197 0.556631 0.656675 0.276255
O18   O     O_3   0.358943 0.288709 0.551373 -0.636695
C80   C     C_3   0.357667 0.350048 0.572403 0.070886
H28   H     H_    0.324359 0.359133 0.626487 0.134736
H29   H     H_    0.345650 0.376869 0.512194 0.134813
C81   C     C_3   0.420484 0.369234 0.605077 -0.283880
H30   H     H_    0.433547 0.342112 0.664348 0.228765
H31   H     H_    0.454341 0.361301 0.551529 0.228879
C82   C     C_3   0.421327 0.435157 0.630673 -1.015479
H32   H     H_    0.410355 0.463354 0.571691 0.264730
H33   H     H_    0.467071 0.447525 0.655675 0.273902
H34   H     H_    0.387902 0.443998 0.684399 0.272193
O19   O     O_3   0.363241 0.707091 0.555408 -0.647566
C83   C     C_3   0.361707 0.648200 0.589372 0.068485
H35   H     H_    0.398405 0.622459 0.556385 0.164729
H36   H     H_    0.318552 0.623729 0.575449 0.121927
C84   C     C_3   0.374148 0.649467 0.690027 -0.340773
H37   H     H_    0.419256 0.670055 0.702533 0.233918
H38   H     H_    0.339206 0.677026 0.723797 0.220261
C85   C     C_3   0.373567 0.586836 0.729960 -0.973037
H39   H     H_    0.328853 0.565238 0.718491 0.265847
H40   H     H_    0.381943 0.589500 0.803092 0.269425
H41   H     H_    0.409758 0.559235 0.699401 0.271663
O20   O     O_3   0.639411 0.287262 0.527318 -0.640947
C86   C     C_3   0.637309 0.348247 0.551217 0.068066
H42   H     H_    0.603282 0.370369 0.507361 0.164446
H43   H     H_    0.680905 0.372784 0.541658 0.119754
C87   C     C_3   0.616658 0.353873 0.648302 -0.323088
H44   H     H_    0.571897 0.331672 0.656162 0.235027
H45   H     H_    0.649801 0.331280 0.693040 0.216659
C88   C     C_3   0.610963 0.419075 0.676052 -0.990091
H46   H     H_    0.655523 0.441923 0.670897 0.267831
H47   H     H_    0.595165 0.421757 0.746298 0.271837
H48   H     H_    0.577526 0.442076 0.632466 0.272707
O21   O     O_3   0.136478 0.208382 0.446730 -0.647823
C89   C     C_3   0.136576 0.148837 0.415530 0.064042
H49   H     H_    0.099856 0.124489 0.450784 0.167275
H50   H     H_    0.179489 0.123908 0.429217 0.120928
C90   C     C_3   0.122907 0.148328 0.315209 -0.341716
H51   H     H_    0.079659 0.172392 0.302222 0.233989
H52   H     H_    0.159757 0.171752 0.278939 0.215630
C91   C     C_3   0.117386 0.084796 0.279544 -0.966459
H53   H     H_    0.159940 0.059579 0.292201 0.265199
H54   H     H_    0.108802 0.086029 0.206383 0.269373
H55   H     H_    0.078942 0.061543 0.312179 0.273293
O22   O     O_3   0.862913 0.788414 0.461267 -0.641300
C92   C     C_3   0.864559 0.848439 0.432215 0.067828
H56   H     H_    0.900381 0.871786 0.471261 0.164853
H57   H     H_    0.821601 0.873712 0.443466 0.119443
C93   C     C_3   0.881481 0.850410 0.333200 -0.323988
H58   H     H_    0.926134 0.828318 0.323657 0.233658
H59   H     H_    0.847044 0.825774 0.293287 0.217809
C94   C     C_3   0.885261 0.914454 0.299176 -0.985800
H60   H     H_    0.840716 0.937082 0.306219 0.265560
H61   H     H_    0.898064 0.914385 0.227485 0.269986
H62   H     H_    0.920129 0.939549 0.337412 0.270414
O23   O     O_3   0.869091 0.205881 0.474274 -0.638071
C95   C     C_3   0.871012 0.144459 0.454313 0.069219
H63   H     H_    0.848679 0.135713 0.388718 0.140278
H64   H     H_    0.848271 0.117795 0.507388 0.130921
C96   C     C_3   0.937324 0.124926 0.448772 -0.281179
H65   H     H_    0.961175 0.152309 0.397855 0.233847
H66   H     H_    0.959786 0.132302 0.514526 0.226544
C97   C     C_3   0.942765 0.059199 0.423528 -1.019331
H67   H     H_    0.918983 0.030781 0.473117 0.267637
H68   H     H_    0.991331 0.046218 0.422323 0.266842
H69   H     H_    0.922925 0.051487 0.356144 0.272769
O24   O     O_3   0.141852 0.788007 0.446690 -0.636874
C98   C     C_3   0.143095 0.849202 0.424827 0.070954
H70   H     H_    0.175835 0.857794 0.369817 0.136804
H71   H     H_    0.155839 0.876390 0.484332 0.135031
C99   C     C_3   0.079936 0.868278 0.393490 -0.283834
H72   H     H_    0.066290 0.841102 0.334572 0.228116
H73   H     H_    0.046657 0.860310 0.447817 0.229853
C100  C     C_3   0.078667 0.934177 0.367858 -1.012860
H74   H     H_    0.090586 0.962389 0.426413 0.264204
H75   H     H_    0.032500 0.946489 0.344537 0.272004
H76   H     H_    0.111193 0.943026 0.312943 0.274667
O25   O     O_3   0.523376 0.886055 0.062628 -0.648277
C101  C     C_3   0.581402 0.882120 0.102519 0.082673
H77   H     H_    0.592000 0.921695 0.144960 0.148809
H78   H     H_    0.616388 0.878210 0.049483 0.140850
C102  C     C_3   0.583780 0.826581 0.161758 -0.301691
H79   H     H_    0.547008 0.829004 0.212239 0.237927
H80   H     H_    0.576349 0.786186 0.120000 0.221403
C103  C     C_3   0.644629 0.821179 0.210190 -0.976157
H81   H     H_    0.682220 0.818290 0.161204 0.259744
H82   H     H_    0.644880 0.780168 0.251889 0.274216
H83   H     H_    0.652096 0.860300 0.254523 0.270391
O26   O     O_3   0.474963 0.110184 0.935073 -0.644186
C104  C     C_3   0.458898 0.150474 0.003817 0.105835
H84   H     H_    0.486522 0.191529 0.995255 0.157010
H85   H     H_    0.468299 0.133878 0.072895 0.149085
C105  C     C_3   0.391825 0.166883 0.994726 -0.342431
H86   H     H_    0.383613 0.187221 0.927978 0.236729
H87   H     H_    0.363652 0.125952 0.999981 0.221808
C106  C     C_3   0.372550 0.210868 0.067096 -0.968917
H88   H     H_    0.379028 0.190847 0.134412 0.269048
H89   H     H_    0.323840 0.222092 0.058307 0.265896
H90   H     H_    0.399544 0.252599 0.062362 0.266481
O27   O     O_3   0.413829 0.921396 0.938385 -0.635190
C107  C     C_3   0.439284 0.872809 0.891290 0.127030
H91   H     H_    0.442444 0.833904 0.937184 0.181477
H92   H     H_    0.485542 0.881793 0.864555 0.127743
C108  C     C_3   0.397587 0.857082 0.812779 -0.355261
H93   H     H_    0.351950 0.845062 0.838417 0.229644
H94   H     H_    0.392776 0.896615 0.768374 0.240067
C109  C     C_3   0.422471 0.805021 0.758393 -0.937424
H95   H     H_    0.467238 0.816805 0.729547 0.275648
H96   H     H_    0.390676 0.794513 0.702788 0.290345
H97   H     H_    0.427434 0.764846 0.801302 0.252731
O28   O     O_3   0.583395 0.078052 0.066185 -0.651262
C110  C     C_3   0.619201 0.103686 0.997981 0.117684
H98   H     H_    0.618497 0.152880 0.007167 0.155342
H99   H     H_    0.602374 0.095005 0.928674 0.153437
C111  C     C_3   0.684598 0.081748 0.007213 -0.353595
H100  H     H_    0.702381 0.093822 0.074467 0.232705
H101  H     H_    0.685832 0.032382 0.000705 0.215379
C112  C     C_3   0.725272 0.109274 0.935977 -0.965531
H102  H     H_    0.709080 0.096630 0.868148 0.266361
H103  H     H_    0.772377 0.092703 0.944771 0.267025
H104  H     H_    0.725489 0.158683 0.942068 0.266744
O29   O     O_3   0.013366 0.384761 0.063655 -0.646829
C113  C     C_3   0.070379 0.376252 0.105424 0.080049
H105  H     H_    0.088340 0.417553 0.137719 0.146634
H106  H     H_    0.103613 0.361139 0.054533 0.143510
C114  C     C_3   0.064248 0.328394 0.177730 -0.314125
H107  H     H_    0.028768 0.342219 0.226076 0.241118
H108  H     H_    0.050011 0.285570 0.146555 0.221591
C115  C     C_3   0.123829 0.318992 0.228265 -0.954623
H109  H     H_    0.159777 0.303684 0.181833 0.255506
H110  H     H_    0.117494 0.284608 0.280828 0.286473
H111  H     H_    0.138477 0.361121 0.261028 0.272807
O30   O     O_3   0.985622 0.612008 0.935107 -0.644851
C116  C     C_3   0.975891 0.653882 0.004407 0.104669
H112  H     H_    0.008163 0.691374 0.994640 0.156839
H113  H     H_    0.984362 0.636272 0.073170 0.150773
C117  C     C_3   0.911171 0.678102 0.998137 -0.341498
H114  H     H_    0.904095 0.699089 0.931567 0.235773
H115  H     H_    0.878361 0.640791 0.005119 0.221394
C118  C     C_3   0.898955 0.724254 0.070910 -0.968942
H116  H     H_    0.904386 0.703811 0.138137 0.270344
H117  H     H_    0.851811 0.741140 0.064236 0.266491
H118  H     H_    0.930716 0.762488 0.064526 0.265721
O31   O     O_3   0.907044 0.429574 0.939147 -0.634487
C119  C     C_3   0.927750 0.378859 0.891969 0.129026
H119  H     H_    0.927002 0.339785 0.937737 0.180919
H120  H     H_    0.974745 0.383434 0.865512 0.126736
C120  C     C_3   0.884913 0.367209 0.813176 -0.361752
H121  H     H_    0.838309 0.359198 0.838544 0.228891
H122  H     H_    0.883831 0.407185 0.769149 0.239053
C121  C     C_3   0.905046 0.313373 0.758316 -0.927326
H123  H     H_    0.950774 0.321297 0.729785 0.273064
H124  H     H_    0.872576 0.305961 0.702456 0.274291
H125  H     H_    0.906201 0.272687 0.800716 0.259634
O32   O     O_3   0.091617 0.569909 0.064912 -0.650632
C122  C     C_3   0.128723 0.592508 0.995746 0.116192
H126  H     H_    0.132908 0.641491 0.005460 0.154500
H127  H     H_    0.110079 0.585859 0.926942 0.153746
C123  C     C_3   0.191885 0.564573 0.002304 -0.351542
H128  H     H_    0.212054 0.574989 0.068722 0.233183
H129  H     H_    0.188254 0.515312 0.996018 0.215185
C124  C     C_3   0.233635 0.588097 0.929164 -0.967939
H130  H     H_    0.215033 0.576898 0.862095 0.265932
H131  H     H_    0.279104 0.567261 0.936061 0.267975
H132  H     H_    0.238698 0.637276 0.934863 0.266724

loop_
_geom_bond_atom_site_label_1
_geom_bond_atom_site_label_2
_ccdc_geom_bond_type
C118  H118  S    
C97   H68   S    
C79   H27   S    
C9    C45   T    
O21   C89   S    
C86   H43   S    
C123  C124  S    
C26   C72   S    
C90   H51   S    
C40   H8    S    
C37   C58   S    
C11   C47   T    
C84   H37   S    
O8    Zn3   S    
C103  H83   S    
C22   O28   S    
C72   C76   S    
C83   H36   S    
C79   H25   S    
C88   H46   S    
C36   C67   S    
C89   H50   S    
C5    O5    A    
C100  H74   S    
C91   H53   S    
C109  H97   S    
C112  H102  S    
C124  H130  S    
C78   H23   S    
C99   H73   S    
C95   C96   S    
C9    C61   S    
C24   C69   S    
C84   H38   S    
C58   H17   S    
C103  H82   S    
C26   O32   S    
C104  C105  S    
C11   C63   S    
C94   H61   S    
C42   C53   S    
C53   H14   S    
O29   C113  S    
C12   C64   S    
C82   H34   S    
C100  H76   S    
C97   H69   S    
C2    O2    A    
C31   C59   S    
C110  H98   S    
O13   Zn4   S    
C30   C58   S    
C59   C67   S    
C121  H124  S    
C20   C76   S    
C95   H64   S    
C114  H107  S    
C120  C121  S    
C7    O15   A    
N1    Zn2   S    
C104  H84   S    
C6    O14   A    
C113  H106  S    
C87   C88   S    
C1    O9    A    
N3    Zn4   S    
C29   C62   S    
C53   C61   S    
C58   C66   S    
C56   H15   S    
O31   C119  S    
C3    O11   A    
O18   C80   S    
C92   H57   S    
C99   C100  S    
C55   C63   S    
C10   C46   T    
C98   C99   S    
C120  H121  S    
C122  H127  S    
C5    C52   S    
C69   C73   S    
O24   C98   S    
C42   H10   S    
C15   C51   T    
C6    C51   S    
C23   O25   S    
C116  H112  S    
C111  H100  S    
C123  H129  S    
O14   Zn3   S    
O2    Zn2   S    
C91   H55   S    
C12   C48   T    
C124  H131  S    
O6    Zn4   S    
C92   C93   S    
C100  H75   S    
C97   H67   S    
C4    O12   A    
C98   H70   S    
C18   C74   S    
C40   C59   S    
C71   C75   S    
C105  H86   S    
C70   H1    S    
C87   H45   S    
C90   H52   S    
C23   C70   S    
C37   H5    S    
C69   H2    S    
C10   C62   S    
C23   C73   S    
C83   C84   S    
C27   C75   S    
C8    O8    A    
C34   C65   S    
O26   C104  S    
C88   H47   S    
C93   H59   S    
O9    Zn2   S    
O28   C110  S    
C109  H96   S    
C4    C45   S    
C102  H80   S    
C33   C53   S    
C114  C115  S    
C82   H32   S    
C111  H101  S    
C112  H103  S    
C99   H72   S    
C29   C57   S    
C35   C55   S    
C96   H65   S    
C36   C40   S    
C84   C85   S    
C71   H4    S    
C103  H81   S    
C32   C63   S    
C54   H13   S    
C81   H31   S    
C94   H62   S    
C17   C73   S    
C19   N3    T    
C5    O13   A    
C13   C65   S    
C54   C62   S    
C113  C114  S    
C110  H99   S    
C102  H79   S    
C21   C74   S    
C85   H41   S    
C107  C108  S    
C33   C37   S    
O16   Zn4   S    
C21   C69   S    
C95   H63   S    
C114  H108  S    
C29   O17   S    
C81   C82   S    
C87   H44   S    
C21   O27   S    
C35   C39   S    
C94   H60   S    
C96   H66   S    
C43   C67   S    
C70   C74   S    
C55   H16   S    
C36   C56   S    
C78   C79   S    
C38   C57   S    
C116  H113  S    
C14   C50   T    
C117  C118  S    
C37   C61   S    
C106  H88   S    
C20   N4    T    
C119  C120  S    
C115  H111  S    
C108  H93   S    
C110  C111  S    
C15   C67   S    
C33   C66   S    
C107  H92   S    
O25   C101  S    
C14   C66   S    
C122  C123  S    
N4    Zn3   S    
C25   C71   S    
C119  H119  S    
C27   O29   S    
O20   C86   S    
O17   C77   S    
C13   C49   T    
C31   C43   S    
C121  H125  S    
C80   C81   S    
C32   O20   S    
C24   O26   S    
C115  H110  S    
O22   C92   S    
C106  H89   S    
C117  H115  S    
C34   C54   S    
O15   Zn3   S    
C57   H18   S    
C21   C23   S    
C122  H126  S    
C108  H94   S    
C80   H28   S    
C108  C109  S    
C22   C24   S    
C44   C68   S    
O3    Zn2   S    
C25   C27   S    
C59   H20   S    
C32   C60   S    
C77   H22   S    
C28   C76   S    
C105  C106  S    
C1    O1    A    
O7    Zn4   S    
O27   C107  S    
C88   H48   S    
C41   H9    S    
C93   H58   S    
N2    Zn1   S    
C78   H24   S    
O4    Zn1   S    
C32   C44   S    
C102  C103  S    
C3    O3    A    
C118  H117  S    
C118  H116  S    
C109  H95   S    
C2    O10   A    
C112  H104  S    
C29   C41   S    
C34   C38   S    
C26   C28   S    
C31   C64   S    
C33   O21   S    
C16   C52   T    
C7    C50   S    
C57   C65   S    
C83   H35   S    
C92   H56   S    
C105  H87   S    
C41   C65   S    
C72   H3    S    
C93   C94   S    
C1    C48   S    
C79   H26   S    
C2    C47   S    
C124  H132  S    
C101  C102  S    
C39   C63   S    
C3    C46   S    
C101  H78   S    
C40   C64   S    
O11   Zn1   S    
C104  H85   S    
C16   C68   S    
C43   H11   S    
C7    O7    A    
C25   C76   S    
C113  H105  S    
C26   C75   S    
C27   C72   S    
O30   C116  S    
C96   C97   S    
O1    Zn1   S    
O23   C95   S    
C25   O31   S    
C28   O30   S    
C115  H109  S    
C121  H123  S    
O12   Zn2   S    
C82   H33   S    
C44   C55   S    
C24   C74   S    
C56   C64   S    
O32   C122  S    
C89   H49   S    
C17   N1    T    
C35   C68   S    
C77   C78   S    
C30   O18   S    
C39   C60   S    
C4    O4    A    
C19   C75   S    
C107  H91   S    
C91   H54   S    
C123  H128  S    
C85   H40   S    
C120  H122  S    
C31   O19   S    
C36   O24   S    
C116  C117  S    
C98   H71   S    
C41   C54   S    
C39   H7    S    
C34   O22   S    
C8    O16   A    
O10   Zn1   S    
C28   C71   S    
C60   H19   S    
C43   C56   S    
C106  H90   S    
C117  H114  S    
C60   C68   S    
C89   C90   S    
C35   O23   S    
C101  H77   S    
C30   C61   S    
C86   H42   S    
C42   C66   S    
C80   H29   S    
C85   H39   S    
C30   C42   S    
C90   C91   S    
C18   N2    T    
C22   C73   S    
C38   C62   S    
C77   H21   S    
C44   H12   S    
C119  H120  S    
C8    C49   S    
C22   C70   S    
C38   H6    S    
C81   H30   S    
O19   C83   S    
C6    O6    A    
C86   C87   S    
C111  C112  S    
O5    Zn3   S    
