data_mof_unit_9388.cif
_audit_creation_date              2012-12-11T14:08:05-0500
_audit_creation_method            fapswitch 2.2
_symmetry_space_group_name_H-M    P1
_symmetry_Int_Tables_number       1
_space_group_crystal_system       triclinic
_cell_length_a                    10.979655
_cell_length_b                    10.935058
_cell_length_c                    18.668664
_cell_angle_alpha                 90.714962
_cell_angle_beta                  90.380865
_cell_angle_gamma                 60.499295
_cell_volume                      1950.66589547

loop_
_atom_site_label
_atom_site_type_symbol
_atom_type_description
_atom_site_fract_x
_atom_site_fract_y
_atom_site_fract_z
_atom_type_partial_charge
C1    C     C_R   0.242188 0.643581 0.610342 0.570489
C2    C     C_3   0.668772 0.554120 0.799516 -0.325701
C3    C     C_3   0.698092 0.676252 0.812802 -0.001230
C4    C     C_3   0.666145 0.653646 0.676083 0.048555
C5    C     C_3   0.820340 0.617239 0.692352 0.145744
C6    C     C_3   0.634358 0.551583 0.720050 -0.262682
C7    C     C_2   0.668041 0.171563 0.674403 -0.116715
C8    C     C_2   0.679276 0.180195 0.831974 -0.099225
C9    C     C_2   0.786716 0.153809 0.789122 -0.145502
C10   C     C_2   0.764217 0.186693 0.712482 -0.204082
C11   C     C_2   0.191549 0.661925 0.684728 0.335753
C12   C     C_R   0.652620 0.622898 0.601245 0.558447
C13   C     C_2   0.211773 0.651325 0.846187 -0.091066
C14   C     C_2   0.202171 0.557319 0.803390 -0.074120
C15   C     C_2   0.232405 0.545743 0.726076 0.266416
C16   C     C_2   0.665336 0.675868 0.328618 -0.046594
C17   C     C_2   0.723650 0.734637 0.180973 0.196914
C18   C     C_2   0.806545 0.623548 0.221656 -0.152117
C19   C     C_2   0.792106 0.618685 0.298911 -0.119148
C20   C     C_2   0.599347 0.265423 0.312803 -0.061990
C21   C     C_2   0.629753 0.215654 0.160053 -0.065986
C22   C     C_2   0.508764 0.256596 0.194411 -0.109358
C23   C     C_R   0.626394 0.231173 0.602957 0.564680
C24   C     C_2   0.489504 0.305055 0.268994 -0.152273
C25   C     C_2   0.134640 0.677653 0.339435 -0.095821
C26   C     C_2   0.025844 0.736673 0.195539 -0.104423
C27   C     C_2   0.009412 0.838540 0.242585 0.256344
C28   C     C_2   0.038838 0.807562 0.319332 0.251661
C29   C     C_R   0.701286 0.105134 0.898876 0.575344
C30   C     C_R   0.722017 0.687306 0.889140 0.589984
C31   C     C_R   0.123776 0.703293 0.909797 0.598072
C32   C     C_R   0.672302 0.115832 0.100875 0.584948
C33   C     C_R   0.737173 0.722175 0.103303 0.579490
C34   C     C_R   0.216153 0.651089 0.403933 0.572676
C35   C     C_R   0.019750 0.751887 0.118227 0.572435
C36   C     C_R   0.644447 0.626060 0.395916 0.526763
C37   C     C_R   0.578762 0.296741 0.388359 0.573228
C38   C     C_3   0.570409 0.814154 0.784142 -0.177517
C39   C     C_3   0.557980 0.806235 0.702304 0.145272
C40   C     C_3   0.832817 0.649355 0.771637 0.116080
Cr1   Cr    Cr6+3 0.393010 0.398050 0.501480 1.039290
Cr2   Cr    Cr6+3 0.398820 0.707980 0.501630 1.069367
Cr3   Cr    Cr6+3 0.708140 0.393940 0.496850 1.055908
Cr4   Cr    Cr6+3 0.937950 0.938450 0.008940 1.084327
Cr5   Cr    Cr6+3 0.626180 0.937030 0.994750 1.058329
Cr6   Cr    Cr6+3 0.937790 0.625760 0.001410 1.026764
H1    H     H_    0.579621 0.908700 0.797614 0.159756
H2    H     H_    0.697040 0.443590 0.699649 0.130683
H3    H     H_    0.925840 0.555512 0.793639 0.120180
H4    H     H_    0.881114 0.500237 0.688927 0.108083
H5    H     H_    0.893594 0.099034 0.808921 0.174433
H6    H     H_    0.833458 0.216561 0.686280 0.125898
H7    H     H_    0.572698 0.237711 0.811749 0.127023
H8    H     H_    0.606091 0.131267 0.699545 0.128259
H9    H     H_    0.158769 0.494406 0.823731 0.128295
H10   H     H_    0.263837 0.707976 0.828190 0.146007
H11   H     H_    0.473075 0.829621 0.810609 0.151222
H12   H     H_    0.886747 0.526665 0.197244 0.139957
H13   H     H_    0.883895 0.544012 0.328522 0.152580
H14   H     H_    0.571224 0.741868 0.298446 0.181157
H15   H     H_    0.428694 0.236948 0.171545 0.188587
H16   H     H_    0.383862 0.358924 0.290382 0.141177
H17   H     H_    0.705586 0.243958 0.180129 0.143540
H18   H     H_    0.706404 0.206505 0.293903 0.190197
H19   H     H_    0.041401 0.636771 0.214309 0.045842
H20   H     H_    0.175674 0.588971 0.302743 0.032988
H21   H     H_    0.585441 0.881323 0.678289 0.090448
H22   H     H_    0.761972 0.452591 0.814216 0.130310
H23   H     H_    0.579274 0.567224 0.832815 0.130297
H24   H     H_    0.522726 0.579167 0.714072 0.183873
O1    O     O_R   0.507110 0.256280 0.580300 -0.489329
O2    O     O_R   0.524640 0.695370 0.425100 -0.497943
O3    O     O_R   0.735890 0.504390 0.415980 -0.513459
O4    O     O_R   0.690560 0.277820 0.422350 -0.446018
O5    O     O_3   0.499990 0.499990 0.499980 -0.302571
O6    O     O_R   0.089190 0.825870 0.932320 -0.492754
O7    O     O_R   0.819070 0.053960 0.931440 -0.483959
O8    O     O_R   0.607070 0.076440 0.916460 -0.521026
O9    O     O_R   0.647110 0.806550 0.917690 -0.493549
O10   O     O_R   0.837080 0.593860 0.915300 -0.516197
O11   O     O_R   0.064770 0.636080 0.932550 -0.485044
O12   O     O_R   0.280830 0.527190 0.577940 -0.482678
O13   O     O_R   0.068250 0.829200 0.092940 -0.442529
O14   O     O_R   0.799650 0.057040 0.080330 -0.482213
O15   O     O_R   0.586130 0.079760 0.077080 -0.495285
O16   O     O_R   0.627700 0.809630 0.066580 -0.452965
O17   O     O_R   0.816140 0.597180 0.075920 -0.542570
O18   O     O_R   0.045360 0.639170 0.081440 -0.534572
O19   O     O_3   0.833980 0.833750 0.001700 -0.301242
O20   O     O_R   0.261360 0.738990 0.584270 -0.495769
O21   O     O_R   0.532590 0.694780 0.574370 -0.464780
O22   O     O_R   0.744470 0.503750 0.577000 -0.528136
O23   O     O_R   0.698520 0.277230 0.571620 -0.498510
O24   O     O_R   0.498530 0.256920 0.419280 -0.483830
O25   O     O_R   0.272880 0.527780 0.428680 -0.535697
O26   O     O_R   0.252780 0.739630 0.423250 -0.452704
O27   O     O_3   0.308135 0.411321 0.697508 -0.579475
C41   C     C_3   0.216266 0.358920 0.682598 -0.110968
H25   H     H_    0.126249 0.432121 0.649161 0.171218
H26   H     H_    0.179639 0.333358 0.732636 0.078635
H27   H     H_    0.273852 0.261194 0.650624 0.131431
O28   O     O_3   0.137719 0.792828 0.718253 -0.573373
C42   C     C_3   0.034469 0.903637 0.677555 -0.061756
H28   H     H_    0.931824 0.925924 0.696444 0.194067
H29   H     H_    0.034323 0.887859 0.618982 0.114308
H30   H     H_    0.043481 0.998548 0.687776 0.113091
Cl1   Cl    Cl    0.616661 0.904708 0.217636 -0.598794
Cl2   Cl    Cl    0.973403 0.007297 0.215349 -0.534780
O29   O     O_3   0.418596 0.839896 0.685088 -0.527362
C43   C     C_3   0.337783 0.983338 0.667932 -0.094306
H31   H     H_    0.382680 0.010356 0.621448 0.104988
H32   H     H_    0.327334 0.050346 0.715347 0.092189
H33   H     H_    0.232241 0.005521 0.651410 0.146621
Cl3   Cl    Cl    0.964984 0.948306 0.382140 -0.522820
Cl4   Cl    Cl    0.864992 0.792726 0.786039 -0.650593
O30   O     O_3   0.894389 0.657252 0.643660 -0.572075
C44   C     C_3   0.816112 0.788783 0.610448 -0.083957
H34   H     H_    0.774640 0.876192 0.649629 0.131862
H35   H     H_    0.732872 0.794155 0.574873 0.114026
H36   H     H_    0.887550 0.804198 0.574788 0.144626

loop_
_geom_bond_atom_site_label_1
_geom_bond_atom_site_label_2
_ccdc_geom_bond_type
Cr3   O3    S    
C7    C10   D    
C37   O4    A    
C1    O20   A    
C12   O21   A    
C1    C11   S    
Cr4   O13   S    
C10   H6    S    
O27   C41   S    
Cr6   O19   S    
C25   C28   D    
C26   C27   D    
C6    H2    S    
Cr2   O26   S    
C8    C29   S    
Cr4   O7    S    
C34   O26   A    
C18   C19   S    
C2    H22   S    
C17   Cl1   S    
C38   C39   S    
C40   Cl4   S    
Cr1   O12   S    
C40   H3    S    
Cr6   O11   S    
O30   C44   S    
Cr2   O21   S    
C16   H14   S    
Cr4   O6    S    
C43   H31   S    
C11   C15   D    
C18   H12   S    
C29   O8    A    
C20   C24   D    
C3    C38   S    
C8    C9    D    
C9    H5    S    
Cr5   O8    S    
C13   C14   D    
C4    C12   S    
C2    H23   S    
Cr5   O19   S    
C9    C10   S    
C25   C34   S    
Cr1   O1    S    
C13   H10   S    
C30   O10   A    
Cr3   O4    S    
C14   H9    S    
C21   C22   D    
C2    C6    S    
C17   C33   S    
C15   O27   S    
C13   C31   S    
Cr6   O18   S    
Cr3   O5    S    
C32   O14   A    
C21   C32   S    
C23   O1    A    
C34   O25   A    
C4    C6    S    
C44   H36   S    
C35   O13   A    
C19   H13   S    
C1    O12   A    
C23   O23   A    
Cr2   O20   S    
C20   H18   S    
C3    C30   S    
Cr5   O15   S    
C33   O16   A    
Cr1   O5    S    
C38   H11   S    
C35   O18   A    
Cr1   O24   S    
C4    C39   S    
Cr2   O2    S    
C17   C18   D    
Cr2   O5    S    
Cr5   O9    S    
C43   H33   S    
C38   H1    S    
C28   Cl3   S    
C30   O9    A    
C3    C40   S    
C41   H26   S    
C5    O30   S    
C42   H29   S    
C22   C24   S    
C5    H4    S    
C27   C28   S    
Cr6   O17   S    
C6    H24   S    
C24   H16   S    
C26   H19   S    
C39   H21   S    
C11   O28   S    
C12   O22   A    
C25   H20   S    
C4    C5    S    
Cr4   O14   S    
C8    H7    S    
C41   H27   S    
Cr3   O22   S    
C31   O11   A    
C44   H35   S    
C2    C3    S    
C33   O17   A    
C44   H34   S    
C16   C36   S    
C22   H15   S    
Cr6   O10   S    
C20   C37   S    
C31   O6    A    
Cr1   O25   S    
C27   Cl2   S    
C16   C19   D    
C7    C23   S    
C32   O15   A    
Cr3   O23   S    
C37   O24   A    
Cr5   O16   S    
C42   H30   S    
O28   C42   S    
C43   H32   S    
C21   H17   S    
C36   O3    A    
C26   C35   S    
C39   O29   S    
C29   O7    A    
C41   H25   S    
C5    C40   S    
C42   H28   S    
C14   C15   S    
C7    H8    S    
O29   C43   S    
Cr4   O19   S    
C36   O2    A    
