data_mof_unit_11143.cif
_audit_creation_date              2012-12-10T19:45:02-0500
_audit_creation_method            fapswitch 2.2
_symmetry_space_group_name_H-M    P1
_symmetry_Int_Tables_number       1
_space_group_crystal_system       triclinic
_cell_length_a                    14.95982
_cell_length_b                    11.009765
_cell_length_c                    13.870533
_cell_angle_alpha                 89.335651
_cell_angle_beta                  91.148107
_cell_angle_gamma                 85.222156
_cell_volume                      2275.93650959

loop_
_atom_site_label
_atom_site_type_symbol
_atom_type_description
_atom_site_fract_x
_atom_site_fract_y
_atom_site_fract_z
_atom_type_partial_charge
C1    C     C_R   0.497046 0.262682 0.500618 0.804602
C2    C     C_R   0.568158 0.863662 0.670369 0.057137
C3    C     C_R   0.475218 0.148826 0.239618 0.003008
C4    C     C_R   0.524926 0.851102 0.760369 0.003056
C5    C     C_R   0.427714 0.213468 0.163816 -0.185425
C6    C     C_R   0.572499 0.786422 0.836108 -0.185426
C7    C     C_R   0.340568 0.265651 0.176242 -0.096881
C8    C     C_R   0.659644 0.734289 0.823591 -0.096699
C9    C     C_R   0.484959 0.940373 0.412452 -0.056921
C10   C     C_R   0.515016 0.059627 0.587546 -0.056922
C11   C     C_R   0.506121 0.871380 0.498194 -0.135657
C12   C     C_R   0.502947 0.737319 0.499381 0.804613
C13   C     C_R   0.493859 0.128623 0.501803 -0.135665
C14   C     C_R   0.525299 0.932001 0.584988 0.009522
C15   C     C_R   0.474693 0.068001 0.415005 0.009482
C16   C     C_R   0.329145 0.500341 0.499252 0.814900
C17   C     C_R   0.670855 0.499654 0.500748 0.814934
C18   C     C_R   0.571535 0.443778 0.796675 0.143335
C19   C     C_R   0.428464 0.556216 0.203324 0.143351
C20   C     C_R   0.429605 0.559110 0.791104 0.073838
C21   C     C_R   0.570398 0.440896 0.208895 0.073872
C22   C     C_R   0.424208 0.553047 0.894170 -0.098118
C23   C     C_R   0.059804 0.288951 0.563497 -0.024411
C24   C     C_R   0.575794 0.446954 0.105829 -0.098221
C25   C     C_R   0.499095 0.499229 0.948296 0.069195
C26   C     C_R   0.500908 0.500773 0.051702 0.069231
C27   C     C_R   0.572486 0.443832 0.899228 -0.077403
C28   C     C_R   0.427515 0.556166 0.100770 -0.077372
C29   C     C_R   0.348490 0.602018 0.945944 -0.009080
C30   C     C_R   0.651508 0.397973 0.054053 -0.009114
C31   C     C_R   0.353318 0.608785 0.046358 -0.191199
C32   C     C_R   0.646680 0.391205 0.953639 -0.191230
C33   C     C_R   0.805492 0.604875 0.471123 -0.199235
C34   C     C_R   0.940197 0.711037 0.436493 -0.024433
C35   C     C_R   0.194509 0.395115 0.528871 -0.199207
C36   C     C_R   0.767109 0.500475 0.501864 -0.043313
C37   C     C_R   0.232891 0.499518 0.498134 -0.043311
C38   C     C_R   0.819986 0.395885 0.530374 -0.203476
C39   C     C_R   0.180015 0.604107 0.469625 -0.203481
C40   C     C_R   0.913046 0.395211 0.529930 0.085959
C41   C     C_R   0.086955 0.604780 0.470068 0.085955
C42   C     C_R   0.953057 0.500477 0.499398 0.058219
C43   C     C_R   0.046944 0.499514 0.500598 0.058221
C44   C     C_R   0.899019 0.606411 0.467825 0.046373
C45   C     C_R   0.298727 0.253601 0.264188 -0.058230
C46   C     C_R   0.100982 0.393579 0.532169 0.046383
C47   C     C_R   0.966145 0.290872 0.560501 -0.218420
C48   C     C_R   0.033856 0.709118 0.439495 -0.218421
C49   C     C_1   0.479052 0.883688 0.318747 0.385644
C50   C     C_1   0.520918 0.116307 0.681253 0.385752
C51   C     C_2   0.653701 0.393910 0.748558 0.874598
C52   C     C_2   0.346293 0.606073 0.251439 0.874584
C53   C     C_1   0.366787 0.639627 0.735501 0.372080
C54   C     C_1   0.633223 0.360387 0.264499 0.372010
C55   C     C_2   0.258889 0.635320 0.901253 0.841940
C56   C     C_R   0.701418 0.746426 0.735617 -0.058255
C57   C     C_2   0.741107 0.364651 0.098741 0.841994
C58   C     C_2   0.111353 0.177105 0.602005 0.842404
C59   C     C_2   0.888651 0.822882 0.397981 0.842421
C60   C     C_2   0.568886 0.097715 0.221721 0.812191
C61   C     C_2   0.431264 0.902160 0.778368 0.812142
C62   C     C_R   0.343761 0.189079 0.340085 -0.148845
C63   C     C_R   0.656315 0.810981 0.659779 -0.148967
C64   C     C_R   0.431914 0.136343 0.329584 0.057149
Cu1   Cu    Cu3+1 0.500010 0.499980 0.597420 1.009292
Cu2   Cu    Cu3+1 0.499990 0.500020 0.402580 1.009292
H1    H     H_    0.761211 0.684473 0.451958 0.161679
H2    H     H_    0.694725 0.683772 0.882315 0.170116
H3    H     H_    0.231144 0.294332 0.273665 0.163230
H4    H     H_    0.769002 0.705733 0.726069 0.163128
H5    H     H_    0.309849 0.180252 0.407793 0.124938
H6    H     H_    0.690175 0.819875 0.592047 0.124992
H7    H     H_    0.458360 0.225423 0.094655 0.191764
H8    H     H_    0.541908 0.774401 0.905291 0.191754
H9    H     H_    0.786066 0.406518 0.729293 0.333298
H10   H     H_    0.213930 0.593441 0.270702 0.333305
H11   H     H_    0.151264 0.758073 0.889771 0.350986
H12   H     H_    0.238789 0.315515 0.548033 0.161660
H13   H     H_    0.848705 0.241859 0.110244 0.350970
H14   H     H_    0.210797 0.103126 0.690137 0.365757
H15   H     H_    0.789203 0.896859 0.309852 0.365760
H16   H     H_    0.665928 0.060348 0.124716 0.366130
H17   H     H_    0.334284 0.939371 0.875472 0.366138
H18   H     H_    0.295472 0.651940 0.081762 0.191527
H19   H     H_    0.704524 0.348042 0.918235 0.191518
H20   H     H_    0.788380 0.315297 0.552872 0.166640
H21   H     H_    0.211621 0.684696 0.447130 0.166645
H22   H     H_    0.934241 0.211209 0.584549 0.187071
H23   H     H_    0.065761 0.788781 0.415447 0.187083
H24   H     H_    0.305540 0.316139 0.117471 0.170071
N1    N     N_R   0.499960 0.499900 0.743810 -0.247447
N2    N     N_R   0.500040 0.500100 0.256190 -0.247426
N3    N     N_1   0.476274 0.841065 0.242941 -0.233575
N4    N     N_1   0.523694 0.158927 0.757060 -0.233599
N5    N     N_1   0.315859 0.703896 0.691089 -0.221446
N6    N     N_1   0.684156 0.296126 0.308910 -0.221450
O1    O     O_R   0.500000 0.319630 0.582270 -0.557233
O2    O     O_R   0.733092 0.450939 0.761853 -0.796607
O3    O     O_2   0.346668 0.697087 0.300712 -0.591399
O4    O     O_R   0.266908 0.549032 0.238138 -0.796615
O5    O     O_2   0.224402 0.563531 0.848302 -0.565000
O6    O     O_R   0.212047 0.746217 0.923762 -0.743852
O7    O     O_2   0.775615 0.436447 0.151670 -0.564999
O8    O     O_R   0.787921 0.253726 0.076258 -0.743805
O9    O     O_2   0.089728 0.076839 0.578155 -0.557371
O10   O     O_R   0.181754 0.185813 0.668774 -0.742073
O11   O     O_2   0.910287 0.923149 0.421813 -0.557368
O12   O     O_R   0.500000 0.680370 0.417730 -0.557231
O13   O     O_R   0.818241 0.814173 0.331224 -0.742089
O14   O     O_2   0.618336 0.058636 0.288266 -0.592210
O15   O     O_R   0.601361 0.096019 0.127800 -0.746594
O16   O     O_2   0.381764 0.941304 0.711884 -0.592187
O17   O     O_R   0.398853 0.903730 0.872317 -0.746687
O18   O     O_R   0.499990 0.319660 0.417730 -0.586798
O19   O     O_R   0.500010 0.680340 0.582270 -0.586804
O20   O     O_R   0.370260 0.499960 0.582280 -0.576257
O21   O     O_R   0.629740 0.500040 0.417720 -0.576257
O22   O     O_R   0.370250 0.499990 0.417740 -0.572865
O23   O     O_R   0.629750 0.500010 0.582260 -0.572854
O24   O     O_2   0.653318 0.302892 0.699289 -0.591402

loop_
_geom_bond_atom_site_label_1
_geom_bond_atom_site_label_2
_ccdc_geom_bond_type
C40   C47   A    
C38   C40   A    
C22   C29   A    
C53   N5    T    
C41   C43   A    
H17   O17   S    
C39   H21   S    
C8    C56   A    
C52   O3    D    
C39   C41   A    
C3    C64   A    
C55   O6    S    
C38   H20   S    
C18   N1    A    
C7    C45   A    
C35   C37   A    
C24   C26   A    
C21   C54   S    
C11   C14   A    
C30   C57   S    
H14   O10   S    
C45   C62   A    
C33   C36   A    
C22   C25   A    
C62   C64   A    
C19   N2    A    
C19   C52   S    
Cu2   O21   S    
C15   C64   S    
C17   C36   S    
C42   C43   A    
C54   N6    T    
C17   O21   A    
C16   C37   S    
C12   O19   A    
Cu2   O12   S    
C3    C60   S    
C51   O2    S    
C40   C42   A    
C23   C46   A    
Cu1   O19   S    
H11   O6    S    
C42   C44   A    
C16   O20   A    
C18   C51   S    
C6    H8    S    
C57   O7    D    
C20   N1    A    
C23   C47   A    
C45   H3    S    
H10   O4    S    
C34   C44   A    
C4    C6    A    
C10   C14   A    
C1    O1    A    
C5    C7    A    
C50   N4    T    
Cu2   N2    S    
C29   C55   S    
C25   C26   A    
C7    H24   S    
C4    C61   S    
C52   O4    S    
H9    O2    S    
C59   O11   D    
C31   H18   S    
C58   O10   S    
C2    C4    A    
C16   O22   A    
C51   O24   D    
Cu1   O23   S    
C56   C63   A    
C9    C49   S    
C19   C28   A    
C9    C11   A    
C20   C22   A    
C8    H2    S    
C56   H4    S    
C48   H23   S    
C13   C15   A    
C61   O17   S    
C34   C59   S    
Cu1   O20   S    
H13   O8    S    
C1    C13   S    
C1    O18   A    
C10   C50   S    
C2    C63   A    
C33   H1    S    
C12   O12   A    
Cu1   N1    S    
C57   O8    S    
Cu2   O18   S    
C27   C32   A    
C33   C44   A    
C28   C31   A    
C18   C27   A    
H15   O13   S    
C20   C53   S    
C3    C5    A    
C10   C13   A    
C6    C8    A    
C11   C12   S    
C25   C27   A    
C55   O5    D    
C35   H12   S    
C26   C28   A    
C58   O9    D    
H16   O15   S    
C36   C38   A    
C9    C15   A    
Cu1   O1    S    
C37   C39   A    
C60   O15   S    
C47   H22   S    
C30   C32   A    
C61   O16   D    
C32   H19   S    
C59   O13   S    
C41   C48   A    
C62   H5    S    
C23   C58   S    
C5    H7    S    
C2    C14   S    
C43   C46   A    
C24   C30   A    
C60   O14   D    
C17   O23   A    
C34   C48   A    
C63   H6    S    
C29   C31   A    
Cu1   Cu2   S    
Cu2   O22   S    
C21   C24   A    
C49   N3    T    
C35   C46   A    
C21   N2    A    
