data_mof_unit_42303.cif
_audit_creation_date              2012-12-11T15:48:48-0500
_audit_creation_method            fapswitch 2.2
_symmetry_space_group_name_H-M    P1
_symmetry_Int_Tables_number       1
_space_group_crystal_system       triclinic
_cell_length_a                    11.152582
_cell_length_b                    11.139277
_cell_length_c                    18.788529
_cell_angle_alpha                 89.377937
_cell_angle_beta                  89.200864
_cell_angle_gamma                 59.396116
_cell_volume                      2008.78947275

loop_
_atom_site_label
_atom_site_type_symbol
_atom_type_description
_atom_site_fract_x
_atom_site_fract_y
_atom_site_fract_z
_atom_type_partial_charge
C1    C     C_R   0.290080 0.621686 0.615141 0.538446
C2    C     C_R   0.586629 0.130049 0.707065 -0.130024
C3    C     C_R   0.598533 0.105558 0.778889 -0.118157
C4    C     C_R   0.628961 0.588780 0.610059 0.535011
C5    C     C_3   0.928485 0.135845 0.788620 -0.285210
C6    C     C_3   0.914201 0.173014 0.708964 -0.299288
C7    C     C_R   0.669971 0.172984 0.672550 0.031166
C8    C     C_R   0.169544 0.677185 0.834253 0.029610
C9    C     C_R   0.158452 0.579442 0.793791 0.017937
C10   C     C_R   0.198460 0.557473 0.723750 0.016209
C11   C     C_R   0.239813 0.748364 0.727957 -0.128722
C12   C     C_3   0.764191 0.530201 0.799376 -0.214431
C13   C     C_R   0.211180 0.762414 0.800244 -0.128950
C14   C     C_3   0.186668 0.434861 0.806462 -0.279856
C15   C     C_3   0.239192 0.407084 0.729533 -0.285851
C16   C     C_R   0.627371 0.231184 0.602567 0.524931
C17   C     C_R   0.248235 0.636413 0.689776 0.045366
C18   C     C_R   0.708636 0.708347 0.180849 0.013254
C19   C     C_R   0.803007 0.586743 0.216235 0.017398
C20   C     C_R   0.790181 0.568448 0.287506 -0.023410
C21   C     C_R   0.585438 0.798558 0.293715 -0.171618
C22   C     C_R   0.602363 0.818191 0.220794 -0.174446
C23   C     C_3   0.730579 0.685658 0.804249 0.018947
C24   C     C_3   0.849669 0.437017 0.200110 0.157023
C25   C     C_3   0.840899 0.415558 0.279317 -0.241271
C26   C     C_R   0.675780 0.669158 0.326384 0.007173
C27   C     C_R   0.666377 0.130749 0.180251 0.017296
C28   C     C_R   0.220660 0.651185 0.402617 0.544206
C29   C     C_R   0.556078 0.137563 0.218109 0.009244
C30   C     C_R   0.548825 0.151762 0.290484 0.030757
C31   C     C_R   0.775803 0.129409 0.291960 -0.179101
C32   C     C_R   0.782525 0.115123 0.218189 -0.132895
C33   C     C_3   0.404099 0.233150 0.207746 -0.288177
C34   C     C_3   0.657779 0.624038 0.682532 0.058954
C35   C     C_3   0.394399 0.251110 0.287564 -0.262458
C36   C     C_R   0.652785 0.160112 0.327739 0.013349
C37   C     C_R   0.113917 0.691505 0.189710 0.010714
C38   C     C_R   0.115612 0.799469 0.225688 0.038862
C39   C     C_R   0.129004 0.797558 0.297420 0.025979
C40   C     C_R   0.644558 0.624878 0.393765 0.544696
C41   C     C_R   0.116239 0.587762 0.304207 -0.168498
C42   C     C_R   0.102148 0.590855 0.229955 -0.171905
C43   C     C_3   0.200245 0.866584 0.211740 -0.276139
C44   C     C_3   0.217636 0.863717 0.291307 -0.268480
C45   C     C_3   0.797723 0.625742 0.673660 0.147452
C46   C     C_R   0.144511 0.683912 0.336988 0.014997
C47   C     C_R   0.724780 0.051220 0.889695 0.547323
C48   C     C_R   0.756438 0.710051 0.881291 0.541376
C49   C     C_R   0.113379 0.709451 0.905311 0.528259
C50   C     C_R   0.678305 0.098988 0.105562 0.544642
C51   C     C_R   0.731180 0.716767 0.105055 0.575618
C52   C     C_R   0.617362 0.228795 0.395877 0.542798
C53   C     C_R   0.085457 0.712987 0.114468 0.531574
C54   C     C_3   0.575138 0.789089 0.785112 -0.208193
C55   C     C_3   0.548268 0.772338 0.707158 -0.247180
C56   C     C_3   0.670131 0.519521 0.743331 0.123328
C57   C     C_3   0.824150 0.692540 0.741345 0.133570
C58   C     C_3   0.993474 0.478774 0.598603 0.004813
C59   C     C_3   0.069176 0.328630 0.571906 -0.344756
C60   C     C_3   0.619796 0.473429 0.179057 0.005385
C61   C     C_3   0.526626 0.501857 0.115159 -0.357339
C62   C     C_3   0.862548 0.829366 0.657221 -0.020769
C63   C     C_3   0.946797 0.897777 0.652344 -0.381396
C64   C     C_3   0.565340 0.471462 0.841353 -0.015507
C65   C     C_3   0.468181 0.421208 0.859871 -0.383570
C66   C     C_R   0.709611 0.098471 0.817211 0.052760
C67   C     C_R   0.797102 0.133837 0.781490 0.016286
C68   C     C_R   0.776676 0.174120 0.712131 0.016561
Cr1   Cr    Cr6+3 0.392960 0.397920 0.502240 0.978867
Cr2   Cr    Cr6+3 0.398340 0.708480 0.501250 0.986540
Cr3   Cr    Cr6+3 0.708670 0.393570 0.496460 0.980407
Cr4   Cr    Cr6+3 0.937650 0.938540 0.007610 1.009481
Cr5   Cr    Cr6+3 0.625330 0.937370 0.994520 0.993413
Cr6   Cr    Cr6+3 0.937940 0.625230 0.001190 1.002098
H1    H     H_    0.547721 0.896869 0.793678 0.132797
H2    H     H_    0.245067 0.831561 0.701323 0.111034
H3    H     H_    0.504902 0.770925 0.820366 0.170878
H4    H     H_    0.089952 0.431270 0.814643 0.141918
H5    H     H_    0.265577 0.373166 0.847118 0.134769
H6    H     H_    0.351628 0.339055 0.723355 0.140718
H7    H     H_    0.179110 0.374059 0.698144 0.165366
H8    H     H_    0.497146 0.879686 0.322687 0.128377
H9    H     H_    0.527848 0.914294 0.194922 0.143348
H10   H     H_    0.958871 0.379789 0.179889 0.121292
H11   H     H_    0.763003 0.387044 0.296037 0.156368
H12   H     H_    0.717140 0.418820 0.719382 0.147014
H13   H     H_    0.444193 0.789669 0.701814 0.146478
H14   H     H_    0.944919 0.349477 0.303752 0.093395
H15   H     H_    0.860611 0.129174 0.319496 0.126533
H16   H     H_    0.876067 0.097931 0.190946 0.163943
H17   H     H_    0.351706 0.177803 0.188124 0.136185
H18   H     H_    0.379925 0.329645 0.177960 0.136740
H19   H     H_    0.366349 0.357855 0.303631 0.166356
H20   H     H_    0.334073 0.208664 0.314213 0.129982
H21   H     H_    0.119304 0.502849 0.334368 0.125894
H22   H     H_    0.088395 0.512284 0.204270 0.122382
H23   H     H_    0.931649 0.624312 0.757054 0.155900
H24   H     H_    0.552755 0.853298 0.673815 0.124345
H25   H     H_    0.299154 0.797521 0.182570 0.135829
H26   H     H_    0.327582 0.792944 0.307190 0.163626
H27   H     H_    0.166210 0.969485 0.315293 0.127365
H28   H     H_    0.772969 0.691088 0.625221 0.108843
H29   H     H_    0.874587 0.458191 0.784181 0.110994
H30   H     H_    0.768305 0.481066 0.850514 0.132066
H31   H     H_    0.071716 0.508402 0.609237 0.143977
H32   H     H_    0.929446 0.546830 0.554029 0.143958
H33   H     H_    0.993216 0.298850 0.554472 0.170514
H34   H     H_    0.505055 0.123479 0.679898 0.122306
H35   H     H_    0.137458 0.318372 0.525952 0.091802
H36   H     H_    0.134190 0.255212 0.614410 0.123747
H37   H     H_    0.217112 0.843167 0.828649 0.122651
H38   H     H_    0.578633 0.572485 0.208483 0.130441
H39   H     H_    0.610105 0.398566 0.214382 0.132912
H40   H     H_    0.562579 0.404450 0.084564 0.163569
H41   H     H_    0.417714 0.541577 0.133380 0.083109
H42   H     H_    0.529383 0.581162 0.079939 0.176928
H43   H     H_    0.137171 0.973959 0.189859 0.142005
H44   H     H_    0.774711 0.882813 0.619251 0.132532
H45   H     H_    0.516853 0.095480 0.804238 0.122108
H46   H     H_    0.939122 0.724643 0.637554 0.117197
H47   H     H_    0.978596 0.907509 0.706099 0.192879
H48   H     H_    0.037624 0.836799 0.618814 0.147797
H49   H     H_    0.894322 0.992515 0.619153 0.126683
H50   H     H_    0.558288 0.541580 0.885066 0.155086
H51   H     H_    0.667266 0.372953 0.842097 0.127833
H52   H     H_    0.444714 0.386837 0.810493 0.181545
H53   H     H_    0.518439 0.331895 0.897202 0.136699
H54   H     H_    0.378942 0.500178 0.890512 0.133853
H55   H     H_    0.017665 0.032068 0.800883 0.145102
H56   H     H_    0.916482 0.220668 0.823847 0.125482
H57   H     H_    0.913776 0.270120 0.697257 0.180061
H58   H     H_    0.998731 0.089568 0.676835 0.122732
O1    O     O_R   0.507380 0.255700 0.581440 -0.534512
O2    O     O_R   0.837170 0.593410 0.915250 -0.535501
O3    O     O_R   0.065200 0.635530 0.931570 -0.516642
O4    O     O_R   0.280320 0.527350 0.578930 -0.519885
O5    O     O_R   0.068260 0.828890 0.091840 -0.518492
O6    O     O_R   0.798870 0.057410 0.079340 -0.498686
O7    O     O_R   0.584930 0.080350 0.076780 -0.527192
O8    O     O_R   0.626960 0.809650 0.067060 -0.508108
O9    O     O_R   0.816040 0.596610 0.076510 -0.474044
O10   O     O_R   0.045610 0.638500 0.081060 -0.528511
O11   O     O_3   0.833640 0.833710 0.001100 -0.307105
O12   O     O_R   0.524480 0.695810 0.424040 -0.506851
O13   O     O_R   0.260510 0.739590 0.584590 -0.553524
O14   O     O_R   0.532300 0.695080 0.573820 -0.529029
O15   O     O_R   0.744840 0.503500 0.576370 -0.502228
O16   O     O_R   0.699120 0.276560 0.571960 -0.520256
O17   O     O_R   0.498940 0.256500 0.419860 -0.521672
O18   O     O_R   0.272500 0.528080 0.429150 -0.513652
O19   O     O_R   0.252060 0.740380 0.423010 -0.520554
O20   O     O_3   0.916198 0.489068 0.661918 -0.609924
O21   O     O_3   0.759958 0.415247 0.155044 -0.527019
O22   O     O_3   0.808625 0.826383 0.726828 -0.580643
O23   O     O_R   0.736390 0.504290 0.414790 -0.527277
O24   O     O_3   0.540917 0.542862 0.774097 -0.571709
O25   O     O_R   0.691300 0.277290 0.422170 -0.514750
O26   O     O_3   0.499990 0.499990 0.499980 -0.274616
O27   O     O_R   0.089400 0.825690 0.930570 -0.530046
O28   O     O_R   0.818460 0.054440 0.929850 -0.499028
O29   O     O_R   0.606060 0.077150 0.915510 -0.552942
O30   O     O_R   0.646550 0.806680 0.917570 -0.508322

loop_
_geom_bond_atom_site_label_1
_geom_bond_atom_site_label_2
_ccdc_geom_bond_type
C8    C9    A    
Cr4   O11   S    
Cr3   O15   S    
Cr6   O11   S    
C28   O18   A    
C8    C13   A    
C27   C29   A    
C11   C13   A    
C41   C42   A    
C1    O13   A    
C2    C7    A    
C5    C67   S    
C15   H7    S    
C41   H21   S    
C34   C56   S    
C12   C23   S    
C45   C57   S    
C37   C38   A    
Cr4   O27   S    
C30   C35   S    
C42   H22   S    
Cr1   O18   S    
C65   H53   S    
C48   O2    A    
C43   H25   S    
C12   H30   S    
C10   C15   S    
C33   H17   S    
C5    C6    S    
C48   O30   A    
C20   C25   S    
C10   C17   A    
C29   C33   S    
C59   H36   S    
C53   O10   A    
C2    H34   S    
C37   C42   A    
C60   O21   S    
Cr5   O29   S    
C33   C35   S    
C7    C68   A    
C32   H16   S    
C57   H23   S    
C15   H6    S    
C52   O17   A    
C31   H15   S    
C61   H41   S    
C41   C46   A    
C40   O23   A    
Cr2   O14   S    
C1    O4    A    
C9    C10   A    
C47   C66   S    
C62   H46   S    
C36   C52   S    
C27   C50   S    
C56   O24   S    
C54   H3    S    
C37   C53   S    
C51   O8    A    
C6    C68   S    
C66   C67   A    
C49   O3    A    
Cr3   O23   S    
C34   C55   S    
C21   C22   A    
Cr3   O16   S    
C60   H39   S    
C16   O1    A    
C63   H47   S    
C21   C26   A    
C58   O20   S    
C18   C51   S    
C47   O28   A    
C51   O9    A    
Cr3   O25   S    
C4    C34   S    
C67   C68   A    
C65   H54   S    
C24   C25   S    
C12   H29   S    
C6    H58   S    
C33   H18   S    
C34   C45   S    
C50   O7    A    
C18   C19   A    
Cr5   O7    S    
C58   C59   S    
C64   H50   S    
C4    O15   A    
C25   H14   S    
C59   H33   S    
C62   O22   S    
C60   C61   S    
Cr2   O26   S    
C9    C14   S    
C62   C63   S    
C60   H38   S    
C35   H19   S    
C56   H12   S    
C31   C32   A    
C14   C15   S    
C28   C46   S    
Cr6   O3    S    
C61   H42   S    
C25   H11   S    
Cr1   O26   S    
Cr2   O13   S    
C14   H5    S    
C12   C56   S    
C3    H45   S    
C43   H43   S    
C39   C46   A    
Cr4   O5    S    
Cr6   O9    S    
Cr1   O4    S    
C40   O12   A    
C43   C44   S    
C53   O5    A    
C5    H55   S    
C3    C66   A    
C63   H48   S    
C24   O21   S    
C23   C54   S    
Cr5   O11   S    
C35   H20   S    
C52   O25   A    
C23   C57   S    
Cr3   O26   S    
C54   C55   S    
C7    C16   S    
Cr1   O1    S    
C23   C48   S    
C27   C32   A    
C18   C22   A    
Cr2   O12   S    
Cr2   O19   S    
C6    H57   S    
C11   C17   A    
C63   H49   S    
C44   H27   S    
C50   O6    A    
C39   C44   S    
Cr5   O8    S    
C57   O22   S    
C64   O24   S    
C1    C17   S    
Cr4   O28   S    
C30   C36   A    
C11   H2    S    
C58   H31   S    
Cr1   O17   S    
C64   C65   S    
C45   O20   S    
C19   C20   A    
C19   C24   S    
C24   H10   S    
C38   C43   S    
C13   H37   S    
C65   H52   S    
C22   H9    S    
C44   H26   S    
C26   C40   S    
C16   O16   A    
C38   C39   A    
C20   C26   A    
Cr6   O2    S    
C55   H24   S    
Cr4   O6    S    
C59   H35   S    
C2    C3    A    
C14   H4    S    
C55   H13   S    
Cr5   O30   S    
C62   H44   S    
C45   H28   S    
C29   C30   A    
C54   H1    S    
C47   O29   A    
C5    H56   S    
Cr6   O10   S    
C21   H8    S    
C28   O19   A    
C64   H51   S    
C61   H40   S    
C4    O14   A    
C49   O27   A    
C31   C36   A    
C58   H32   S    
C8    C49   S    
