data_mof_unit_22925.cif
_audit_creation_date              2013-03-05T16:41:05-0500
_audit_creation_method            fapswitch 2.2
_symmetry_space_group_name_H-M    P1
_symmetry_Int_Tables_number       1
_space_group_crystal_system       triclinic
_cell_length_a                    8.592536
_cell_length_b                    10.719183
_cell_length_c                    9.867759
_cell_angle_alpha                 91.510122
_cell_angle_beta                  98.209988
_cell_angle_gamma                 91.339425
_cell_volume                      898.904152992

loop_
_atom_site_label
_atom_site_type_symbol
_atom_site_description
_atom_site_fract_x
_atom_site_fract_y
_atom_site_fract_z
_atom_type_partial_charge
O1    O     O_R   0.500020 0.316790 0.614690 -0.620289
O2    O     O_R   0.500000 0.316760 0.385350 -0.632636
C1    C     C_R   0.500063 0.260174 0.497733 0.880291
O3    O     O_R   0.271760 0.500010 0.587850 -0.624509
O4    O     O_R   0.271740 0.499970 0.358500 -0.624624
C2    C     C_R   0.201263 0.499715 0.464283 0.975506
Zn1   Zn    Zn3+2 0.500010 0.500020 0.653130 0.915530
Zn2   Zn    Zn3+2 0.499990 0.499980 0.346870 0.930116
O5    O     O_R   0.500000 0.683240 0.614650 -0.648518
O6    O     O_R   0.499980 0.683210 0.385310 -0.619085
O7    O     O_R   0.728260 0.500030 0.641500 -0.624396
O8    O     O_R   0.728240 0.499990 0.412150 -0.619608
C3    C     C_R   0.501963 0.739823 0.502454 0.885558
C4    C     C_R   0.798605 0.500938 0.535480 0.959579
C5    C     C_2   0.036252 0.498377 0.444517 -0.399620
H1    H     H_    0.975186 0.492188 0.339957 0.179855
C6    C     C_2   0.963309 0.503636 0.554195 -0.396818
C7    C     C_R   0.393690 0.063866 0.561985 0.036669
C8    C     C_R   0.496635 0.127721 0.489341 -0.136213
C9    C     C_R   0.596878 0.062256 0.411261 0.054975
C10   C     C_R   0.595848 0.932426 0.418370 -0.226956
H2    H     H_    0.667950 0.877092 0.359931 0.150408
C11   C     C_R   0.507699 0.871848 0.507093 -0.135455
C12   C     C_R   0.405141 0.937595 0.578139 0.062243
C13   C     C_3   0.389039 0.951159 0.729759 0.223068
C14   C     C_3   0.358469 0.088868 0.703353 -0.530334
H3    H     H_    0.233188 0.114715 0.698103 0.172280
C15   C     C_R   0.423051 0.406918 0.059392 0.213742
N1    N     N_R   0.498950 0.499140 0.142680 -0.105471
C16   C     C_R   0.592798 0.581978 0.085902 -0.123595
C17   C     C_R   0.594292 0.580879 0.942029 -0.173879
H4    H     H_    0.669443 0.646661 0.899072 0.145407
N2    N     N_R   0.498950 0.499180 0.857030 -0.111869
C18   C     C_R   0.422318 0.407141 0.916957 0.222157
C19   C     C_3   0.250592 0.374449 0.891658 -0.527331
C20   C     C_3   0.252760 0.372687 0.045688 -0.514063
H5    H     H_    0.181934 0.446753 0.085979 0.219041
H6    H     H_    0.232523 0.277814 0.083745 0.203010
H7    H     H_    0.180035 0.449870 0.842342 0.219403
H8    H     H_    0.224366 0.281266 0.841999 0.196991
H9    H     H_    0.024069 0.510828 0.658095 0.175498
C21   C     C_3   0.709211 0.131722 0.330178 -0.361280
C22   C     C_3   0.836907 0.053270 0.277462 -0.386353
C23   C     C_3   0.949055 0.134721 0.208425 -0.879957
H10   H     H_    0.883435 0.182391 0.120136 0.266390
H11   H     H_    0.010162 0.205903 0.282544 0.262656
H12   H     H_    0.038882 0.075503 0.170286 0.249450
H13   H     H_    0.906228 0.006011 0.364306 0.225928
H14   H     H_    0.780963 0.981821 0.201198 0.217230
H15   H     H_    0.638693 0.174215 0.240668 0.218349
H16   H     H_    0.770663 0.207926 0.397457 0.204091
C24   C     C_3   0.239009 0.887759 0.772601 -0.440352
C25   C     C_3   0.261112 0.758768 0.836005 -0.320136
C26   C     C_3   0.115003 0.716351 0.895760 -0.927514
H17   H     H_    0.082383 0.788357 0.968784 0.271149
H18   H     H_    0.015284 0.696747 0.812717 0.259835
H19   H     H_    0.139671 0.630649 0.954084 0.254705
H20   H     H_    0.284682 0.689201 0.757371 0.271477
H21   H     H_    0.360185 0.761781 0.921316 0.222185
H22   H     H_    0.197932 0.950338 0.851178 0.209033
H23   H     H_    0.143494 0.880691 0.683540 0.200042
C27   C     C_3   0.544104 0.930216 0.829765 -0.372972
C28   C     C_3   0.686983 0.016259 0.813832 -0.340143
C29   C     C_3   0.840976 0.958031 0.871969 -0.941810
H24   H     H_    0.837225 0.927364 0.977974 0.267883
H25   H     H_    0.861980 0.876594 0.806011 0.272215
H26   H     H_    0.939135 0.027442 0.872970 0.254732
H27   H     H_    0.693211 0.035062 0.705016 0.244024
H28   H     H_    0.678425 0.106736 0.869563 0.216475
H29   H     H_    0.520195 0.942649 0.937087 0.182370
H30   H     H_    0.577038 0.832151 0.815675 0.217466
H31   H     H_    0.439825 0.155719 0.766783 0.215269
H32   H     H_    0.664855 0.650113 0.151050 0.141510

loop_
_geom_bond_atom_site_label_1
_geom_bond_atom_site_label_2
_geom_bond_distance
_ccdc_geom_bond_type
C24   H23   1.113213 S    
C5    H1    1.088318 S    
O4    Zn2   1.980891 S    
C9    C21   1.531225 S    
C25   H20   1.104810 S    
C17   N2    1.368606 A    
C1    C8    1.419396 S    
N1    C16   1.369097 A    
C14   H31   1.105406 S    
C22   H13   1.112194 S    
C28   H27   1.106238 S    
C19   H7    1.103334 S    
C8    C9    1.420303 A    
C7    C14   1.487968 S    
C23   H12   1.110667 S    
C21   H16   1.112629 S    
Zn2   O8    1.974994 S    
C29   H24   1.109298 S    
C9    C10   1.395172 A    
C20   H6    1.111746 S    
N2    C18   1.366818 A    
C25   H21   1.107712 S    
C13   C24   1.559586 S    
C15   C18   1.404692 A    
O1    Zn1   1.990535 S    
C25   C26   1.526244 S    
C24   C25   1.537287 S    
Zn1   O7    1.980891 S    
Zn1   N2    2.013612 S    
C4    C6    1.400342 S    
C3    C11   1.414203 S    
C14   H3    1.112219 S    
C27   C28   1.546757 S    
C21   H15   1.111770 S    
O3    Zn1   1.974994 S    
C7    C12   1.371211 A    
Zn2   N1    2.013423 S    
O3    C2    1.281592 A    
C20   H5    1.110769 S    
O8    C4    1.278921 A    
C27   H30   1.105360 S    
O2    C1    1.277897 A    
C26   H18   1.109866 S    
C13   C27   1.565139 S    
C10   C11   1.399364 A    
C22   C23   1.527901 S    
O4    C2    1.279431 A    
C18   C19   1.492793 S    
O7    C4    1.280943 A    
C6    H9    1.082012 S    
C2    C5    1.403033 S    
C21   C22   1.537784 S    
C5    C6    1.326454 D    
C11   C12   1.394343 A    
C19   H8    1.104869 S    
C28   C29   1.519937 S    
C15   N1    1.360866 A    
C29   H26   1.110380 S    
C28   H28   1.111397 S    
C12   C13   1.525558 S    
C15   C20   1.486519 S    
Zn2   O6    1.990534 S    
C7    C8    1.394075 A    
O2    Zn2   2.010138 S    
Zn1   O5    2.010139 S    
C16   H32   1.081880 S    
O5    C3    1.278328 A    
C26   H17   1.109973 S    
C22   H14   1.110436 S    
C27   H29   1.112423 S    
C24   H22   1.112470 S    
C13   C14   1.527970 S    
C10   H2    1.081366 S    
O6    C3    1.289069 A    
C17   H4    1.080050 S    
C16   C17   1.421327 A    
C23   H10   1.111158 S    
C19   C20   1.518004 S    
C23   H11   1.111306 S    
O1    C1    1.289754 A    
C26   H19   1.105543 S    
C29   H25   1.108683 S    
