data_mof_unit_65867.cif
_audit_creation_date              2013-03-05T16:41:29-0500
_audit_creation_method            fapswitch 2.2
_symmetry_space_group_name_H-M    P1
_symmetry_Int_Tables_number       1
_space_group_crystal_system       triclinic
_cell_length_a                    17.873254
_cell_length_b                    16.553863
_cell_length_c                    14.339627
_cell_angle_alpha                 90.000712
_cell_angle_beta                  92.183113
_cell_angle_gamma                 89.998301
_cell_volume                      4239.60609083

loop_
_atom_site_label
_atom_site_type_symbol
_atom_site_description
_atom_site_fract_x
_atom_site_fract_y
_atom_site_fract_z
_atom_type_partial_charge
O1    O     O_R   0.391260 0.567930 0.500000 -0.535203
O2    O     O_R   0.608740 0.432070 0.500000 -0.535306
O3    O     O_R   0.608740 0.567930 0.500000 -0.535217
O4    O     O_R   0.391260 0.432070 0.500000 -0.535288
C1    C     C_R   0.355150 0.500003 0.502160 0.893519
C2    C     C_R   0.644850 0.500001 0.497843 0.893516
O5    O     O_R   0.500000 0.567920 0.376050 -0.542331
O6    O     O_R   0.500000 0.432080 0.623950 -0.542166
O7    O     O_R   0.500000 0.567920 0.623950 -0.542331
O8    O     O_R   0.500000 0.432080 0.376050 -0.542179
C3    C     C_R   0.499765 0.500000 0.330848 0.824165
C4    C     C_R   0.500235 0.500000 0.669152 0.824166
Cu1   Cu    Cu3+1 0.500000 0.580420 0.500000 1.065641
Cu2   Cu    Cu3+1 0.500000 0.419580 0.500000 1.065657
C5    C     C_1   0.499777 0.499999 0.228620 -0.065633
C6    C     C_1   0.500223 0.500001 0.771380 -0.065627
C7    C     C_1   0.499830 0.499999 0.143255 0.068633
C8    C     C_1   0.500170 0.500000 0.856745 0.068635
C9    C     C_1   0.499944 0.499999 0.042686 0.065035
C10   C     C_1   0.500056 0.500000 0.957314 0.065036
C11   C     C_R   0.847457 0.573695 0.495723 0.268110
C12   C     C_R   0.152472 0.426450 0.503797 0.268128
C13   C     C_R   0.152539 0.573699 0.504266 0.268104
C14   C     C_R   0.847533 0.426445 0.496241 0.268122
C15   C     C_R   0.768645 0.573999 0.491941 0.024125
C16   C     C_R   0.231287 0.426060 0.507549 0.023791
C17   C     C_R   0.231351 0.574004 0.508048 0.024105
C18   C     C_R   0.768718 0.426055 0.492486 0.023780
C19   C     C_R   0.728340 0.500015 0.494121 -0.112516
C20   C     C_R   0.271661 0.500019 0.505887 -0.112515
C21   C     C_R   0.886237 0.500098 0.499300 -0.162110
C22   C     C_R   0.113763 0.500101 0.500713 -0.162105
C23   C     C_1   0.966476 0.500137 0.499858 0.196507
C24   C     C_1   0.033525 0.500138 0.500153 0.196507
C25   C     C_R   0.533227 0.829974 0.574562 -0.005827
C26   C     C_R   0.466975 0.170010 0.425311 -0.005834
C27   C     C_R   0.466828 0.829976 0.425405 -0.005828
C28   C     C_R   0.533061 0.170009 0.574664 -0.005834
C29   C     C_R   0.532779 0.744243 0.573572 0.456828
C30   C     C_R   0.467387 0.255743 0.426318 0.456713
C31   C     C_R   0.467232 0.744245 0.426421 0.456817
C32   C     C_R   0.532623 0.255742 0.573675 0.456723
N1    N     N_R   0.500000 0.701220 0.500000 -0.319495
N2    N     N_R   0.500000 0.298780 0.500000 -0.319387
C33   C     C_R   0.500041 0.873814 0.499975 -0.070645
C34   C     C_R   0.500026 0.126171 0.499982 -0.070626
C35   C     C_1   0.500046 0.963019 0.499972 0.003159
C36   C     C_1   0.500039 0.036967 0.499974 0.003158
N3    N     N_R   0.888104 0.648596 0.498097 0.142806
O9    O     O_R   0.880480 0.699840 0.429628 -0.294364
O10   O     O_R   0.934306 0.664806 0.567894 -0.262846
N4    N     N_R   0.111751 0.351594 0.500953 0.142963
O11   O     O_R   0.119443 0.299951 0.569010 -0.294091
O12   O     O_R   0.065388 0.335836 0.431176 -0.263381
N5    N     N_R   0.111887 0.648600 0.501867 0.142812
O13   O     O_R   0.119513 0.699866 0.570314 -0.294359
O14   O     O_R   0.065679 0.664788 0.432069 -0.262838
N6    N     N_R   0.888260 0.351590 0.499119 0.142974
O15   O     O_R   0.880552 0.299908 0.431103 -0.294119
O16   O     O_R   0.934637 0.335866 0.568892 -0.263372
N7    N     N_3   0.729635 0.649727 0.486383 -0.496698
H1    H     H_    0.749754 0.687283 0.540335 0.288155
H2    H     H_    0.740381 0.676978 0.422556 0.259334
N8    N     N_3   0.270229 0.350273 0.512506 -0.496329
H3    H     H_    0.250033 0.313029 0.458303 0.288159
H4    H     H_    0.259513 0.322685 0.576150 0.259411
N9    N     N_3   0.270356 0.649732 0.513587 -0.496650
H5    H     H_    0.250232 0.687279 0.459629 0.288180
H6    H     H_    0.259612 0.676994 0.577410 0.259342
N10   N     N_3   0.729780 0.350268 0.487558 -0.496318
H7    H     H_    0.749980 0.313037 0.541771 0.288168
H8    H     H_    0.740492 0.322662 0.423921 0.259411
N11   N     N_3   0.568701 0.871357 0.652283 -0.488094
H9    H     H_    0.529006 0.908549 0.682483 0.242267
H10   H     H_    0.611199 0.907983 0.627329 0.238528
N12   N     N_3   0.431661 0.128621 0.347485 -0.488093
H11   H     H_    0.471421 0.091423 0.317422 0.242312
H12   H     H_    0.389102 0.092003 0.372301 0.238477
N13   N     N_3   0.431391 0.871361 0.347662 -0.488088
H13   H     H_    0.471156 0.908386 0.317344 0.242338
H14   H     H_    0.389007 0.908158 0.372608 0.238468
N14   N     N_3   0.568381 0.128620 0.652485 -0.488098
H15   H     H_    0.528624 0.091421 0.682549 0.242311
H16   H     H_    0.610941 0.092001 0.627666 0.238482
N15   N     N_R   0.566425 0.703495 0.652435 0.169802
O17   O     O_R   0.632604 0.671825 0.646958 -0.331341
O18   O     O_R   0.538296 0.712667 0.734137 -0.326397
N16   N     N_R   0.433870 0.296469 0.347358 0.169748
O19   O     O_R   0.367773 0.328360 0.352726 -0.331374
O20   O     O_R   0.462063 0.287192 0.265708 -0.326347
N17   N     N_R   0.433572 0.703498 0.347566 0.169810
O21   O     O_R   0.367398 0.671824 0.353061 -0.331311
O22   O     O_R   0.461689 0.712660 0.265857 -0.326445
N18   N     N_R   0.566122 0.296465 0.652647 0.169746
O23   O     O_R   0.632214 0.328369 0.647297 -0.331377
O24   O     O_R   0.537919 0.287176 0.734289 -0.326352

loop_
_geom_bond_atom_site_label_1
_geom_bond_atom_site_label_2
_geom_bond_distance
_ccdc_geom_bond_type
N5    O13   1.300749 A    
N11   H10   1.045644 S    
N11   H9    1.045632 S    
C9    C10   1.224279 T    
O3    C2    1.297483 A    
C11   N3    1.436837 S    
N15   O17   1.298900 A    
O5    C3    1.297719 A    
C11   C21   1.401638 A    
C12   C22   1.401687 A    
O1    C1    1.297490 A    
C12   N4    1.436898 S    
C18   C19   1.421827 A    
N12   H12   1.045634 S    
C28   C32   1.419288 A    
N6    O16   1.301037 A    
N7    H2    1.044744 S    
C16   N8    1.435128 S    
O7    Cu1   1.789404 S    
C26   N12   1.435130 S    
C3    C5    1.465931 S    
C4    C6    1.465932 S    
N3    O10   1.301031 A    
C21   C23   1.433839 S    
C26   C34   1.404963 A    
N10   H7    1.045542 S    
C13   C17   1.407617 A    
O3    Cu1   1.954498 S    
N15   O18   1.301258 A    
Cu1   Cu2   2.662525 S    
C28   N14   1.435126 S    
C17   C20   1.421842 A    
O4    Cu2   1.954500 S    
C31   N1    1.384350 A    
O2    C2    1.297536 A    
C32   N2    1.384472 A    
N4    O12   1.301038 A    
C33   C35   1.476676 S    
C15   C19   1.421841 A    
C34   C36   1.476682 S    
N9    H5    1.045540 S    
C26   C30   1.419290 A    
N12   H11   1.045630 S    
O8    Cu2   1.789404 S    
N17   O21   1.298908 A    
N13   H14   1.045701 S    
C29   N1    1.384349 A    
N6    O15   1.300749 A    
N9    H6    1.044744 S    
C22   C24   1.433838 S    
C25   C29   1.419260 A    
N17   O22   1.301252 A    
C27   N13   1.435099 S    
C35   C36   1.224127 T    
O5    Cu1   1.789399 S    
O6    C4    1.297719 A    
C23   C24   1.198230 T    
N18   O23   1.298901 A    
C15   N7    1.435160 S    
N18   O24   1.301257 A    
C14   N6    1.436906 S    
C31   N17   1.429572 S    
N16   O20   1.301260 A    
C16   C20   1.421829 A    
N14   H16   1.045641 S    
N5    O14   1.301030 A    
N3    O9    1.300747 A    
O1    Cu1   1.954512 S    
C29   N15   1.429567 S    
C27   C33   1.405017 A    
C25   C33   1.405020 A    
Cu1   N1    1.999705 S    
N4    O11   1.300748 A    
Cu2   N2    1.999705 S    
C1    C20   1.495214 S    
C5    C7    1.224129 T    
C11   C15   1.407610 A    
C25   N11   1.435115 S    
O6    Cu2   1.789399 S    
C32   N18   1.429580 S    
C18   N10   1.435127 S    
C14   C18   1.407680 A    
O4    C1    1.297530 A    
C13   N5    1.436836 S    
N8    H3    1.045544 S    
C30   N16   1.429583 S    
C14   C21   1.401694 A    
C13   C22   1.401641 A    
C7    C9    1.442207 S    
C8    C10   1.442207 S    
C27   C31   1.419276 A    
N7    H1    1.045540 S    
O2    Cu2   1.954511 S    
O7    C4    1.297720 A    
C28   C34   1.404960 A    
C17   N9    1.435155 S    
O8    C3    1.297722 A    
N13   H13   1.045646 S    
C30   N2    1.384475 A    
C2    C19   1.495215 S    
N16   O19   1.298897 A    
C6    C8    1.224127 T    
N14   H15   1.045634 S    
C12   C16   1.407669 A    
N10   H8    1.044740 S    
N8    H4    1.044741 S    
