data_mof_unit_61569.cif
_audit_creation_date              2013-03-05T15:46:24-0500
_audit_creation_method            fapswitch 2.2
_symmetry_space_group_name_H-M    P1
_symmetry_Int_Tables_number       1
_space_group_crystal_system       triclinic
_cell_length_a                    30.65298
_cell_length_b                    30.566406
_cell_length_c                    24.813276
_cell_angle_alpha                 89.461379
_cell_angle_beta                  128.729935
_cell_angle_gamma                 89.99371
_cell_volume                      18135.1639631

loop_
_atom_site_label
_atom_site_type_symbol
_atom_site_description
_atom_site_fract_x
_atom_site_fract_y
_atom_site_fract_z
_atom_type_partial_charge
O1    O     O_R   0.678340 0.230070 0.500020 -0.627182
O2    O     O_R   0.321660 0.230070 0.499980 -0.627067
O3    O     O_R   0.178340 0.730070 0.500020 -0.620339
O4    O     O_R   0.821660 0.730070 0.499980 -0.620601
O5    O     O_R   0.730080 0.178340 0.500000 -0.587850
O6    O     O_R   0.269920 0.178340 0.500000 -0.585379
O7    O     O_R   0.230080 0.678340 0.500000 -0.587371
O8    O     O_R   0.769920 0.678340 0.500000 -0.586051
C1    C     C_R   0.691959 0.189984 0.503940 0.920832
C2    C     C_R   0.308126 0.190049 0.496348 0.917977
C3    C     C_R   0.192551 0.689971 0.504593 0.919625
C4    C     C_R   0.809100 0.690022 0.498565 0.909453
O9    O     O_R   0.673200 0.275870 0.398140 -0.613872
O10   O     O_R   0.326800 0.275870 0.601860 -0.623872
O11   O     O_R   0.173200 0.775870 0.398140 -0.610365
O12   O     O_R   0.826800 0.775870 0.601860 -0.622734
O13   O     O_R   0.724950 0.224150 0.398130 -0.574590
O14   O     O_R   0.275050 0.224150 0.601870 -0.566989
O15   O     O_R   0.224950 0.724150 0.398130 -0.577683
O16   O     O_R   0.775050 0.724150 0.601870 -0.566409
C5    C     C_R   0.681957 0.249632 0.365503 0.912377
C6    C     C_R   0.317706 0.249465 0.634534 0.908539
C7    C     C_R   0.182012 0.749660 0.365600 0.915531
C8    C     C_R   0.817793 0.749378 0.634618 0.898575
Zn1   Zn    Zn3+2 0.715460 0.284550 0.500010 1.023556
Zn2   Zn    Zn3+2 0.284540 0.284550 0.499990 0.988657
Zn3   Zn    Zn3+2 0.215460 0.784550 0.500010 1.044362
Zn4   Zn    Zn3+2 0.784540 0.784550 0.499990 1.011481
Zn5   Zn    Zn3+2 0.784560 0.215470 0.499990 1.065545
Zn6   Zn    Zn3+2 0.215440 0.215470 0.500010 1.085433
Zn7   Zn    Zn3+2 0.284560 0.715470 0.499990 1.046433
Zn8   Zn    Zn3+2 0.715440 0.715470 0.500010 1.084113
O17   O     O_R   0.769940 0.321680 0.500000 -0.611019
O18   O     O_R   0.230060 0.321680 0.500000 -0.619256
O19   O     O_R   0.269940 0.821680 0.500000 -0.609637
O20   O     O_R   0.730060 0.821680 0.500000 -0.609918
O21   O     O_R   0.821690 0.269960 0.499980 -0.622741
O22   O     O_R   0.178310 0.269960 0.500020 -0.619502
O23   O     O_R   0.321690 0.769960 0.499980 -0.623589
O24   O     O_R   0.678310 0.769960 0.500020 -0.622073
O25   O     O_R   0.775070 0.275880 0.601870 -0.614927
O26   O     O_R   0.224930 0.275880 0.398130 -0.621158
O27   O     O_R   0.275070 0.775880 0.601870 -0.600959
O28   O     O_R   0.724930 0.775880 0.398130 -0.616687
O29   O     O_R   0.826820 0.224150 0.601850 -0.623201
O30   O     O_R   0.173180 0.224150 0.398150 -0.617569
O31   O     O_R   0.326820 0.724150 0.601850 -0.640053
O32   O     O_R   0.673180 0.724150 0.398150 -0.618988
C9    C     C_R   0.808202 0.310200 0.496555 0.839589
C10   C     C_R   0.191339 0.310032 0.502610 0.835622
C11   C     C_R   0.308273 0.810186 0.496704 0.839298
C12   C     C_R   0.691205 0.809991 0.502308 0.836379
C13   C     C_R   0.818148 0.250373 0.634576 0.841088
C14   C     C_R   0.181989 0.250732 0.365411 0.836023
C15   C     C_R   0.318145 0.750356 0.634567 0.834676
C16   C     C_R   0.681900 0.750805 0.365379 0.832144
C17   C     C_R   0.628894 0.209600 0.253470 0.310083
C18   C     C_R   0.367181 0.209802 0.747820 0.327046
C19   C     C_R   0.124945 0.709139 0.254089 0.308846
C20   C     C_R   0.864013 0.710346 0.748017 0.335522
C21   C     C_R   0.593365 0.211199 0.181417 -0.192402
C22   C     C_R   0.400433 0.211573 0.819621 -0.171897
C23   C     C_R   0.089298 0.710524 0.181960 -0.190739
C24   C     C_R   0.897320 0.712263 0.819787 -0.163978
H1    H     H_    0.582738 0.180919 0.153477 0.199073
H2    H     H_    0.409520 0.181485 0.848432 0.196221
H3    H     H_    0.075648 0.680023 0.154078 0.198781
H4    H     H_    0.903839 0.682676 0.848426 0.194901
C25   C     C_R   0.570362 0.251056 0.145518 0.005728
C26   C     C_R   0.423448 0.251235 0.854287 0.019900
C27   C     C_R   0.070127 0.750649 0.145911 0.005195
C28   C     C_R   0.923596 0.751260 0.854638 0.018097
C29   C     C_R   0.583766 0.289844 0.182404 -0.111228
C30   C     C_R   0.412141 0.289722 0.816293 -0.124357
C31   C     C_R   0.087387 0.789822 0.182668 -0.105799
C32   C     C_R   0.915492 0.789032 0.816819 -0.120903
H5    H     H_    0.566496 0.321017 0.155934 0.183559
H6    H     H_    0.429483 0.320739 0.841809 0.167443
H7    H     H_    0.073152 0.821207 0.156135 0.184162
H8    H     H_    0.935365 0.819546 0.842488 0.170614
C33   C     C_R   0.619549 0.288741 0.254173 -0.209336
C34   C     C_R   0.378479 0.288514 0.744665 -0.223565
C35   C     C_R   0.123255 0.788883 0.254394 -0.206077
C36   C     C_R   0.881780 0.787740 0.745170 -0.214087
H9    H     H_    0.629953 0.319098 0.281773 0.209808
H10   H     H_    0.369605 0.318746 0.716198 0.172051
H11   H     H_    0.136800 0.819460 0.281943 0.203422
H12   H     H_    0.875464 0.817498 0.716938 0.179044
C37   C     C_R   0.642624 0.248994 0.290154 -0.167215
C38   C     C_R   0.355545 0.248897 0.709945 -0.146256
C39   C     C_R   0.142552 0.748920 0.290444 -0.163364
C40   C     C_R   0.855605 0.748739 0.710181 -0.149017
N1    N     N_R   0.514745 0.289908 0.033591 -0.156731
N2    N     N_R   0.479948 0.289961 0.964886 -0.158416
N3    N     N_R   0.018089 0.789371 0.034135 -0.154870
N4    N     N_R   0.983401 0.789559 0.965437 -0.155233
C41   C     C_R   0.460736 0.251742 0.930015 0.325375
C42   C     C_R   0.531700 0.251627 0.069778 0.325134
C43   C     C_R   0.960836 0.751692 0.930379 0.327829
C44   C     C_R   0.031580 0.751297 0.070158 0.326482
N5    N     N_R   0.477537 0.213587 0.966312 -0.146124
N6    N     N_R   0.512325 0.213529 0.034819 -0.145916
N7    N     N_R   0.974192 0.713748 0.966501 -0.145629
N8    N     N_R   0.008877 0.713547 0.035023 -0.145381
H13   H     H_    0.664994 0.114096 0.443146 0.240641
H14   H     H_    0.341609 0.116210 0.565065 0.240532
H15   H     H_    0.084574 0.689798 0.429212 0.204373
H16   H     H_    0.854005 0.621325 0.578977 0.237239
C45   C     C_R   0.658134 0.199165 0.591292 -0.148368
C46   C     C_R   0.335267 0.198027 0.402406 -0.154166
C47   C     C_R   0.246962 0.615286 0.600599 -0.145697
C48   C     C_R   0.817808 0.690935 0.389073 -0.150694
H17   H     H_    0.690629 0.221293 0.603582 0.144553
H18   H     H_    0.303492 0.220461 0.391966 0.144402
H19   H     H_    0.274374 0.641887 0.610814 0.147552
H20   H     H_    0.787823 0.713457 0.383001 0.141609
C49   C     C_R   0.634443 0.206310 0.623493 -0.134481
C50   C     C_R   0.355354 0.204507 0.365775 -0.135441
C51   C     C_R   0.271706 0.576824 0.639106 -0.112367
C52   C     C_R   0.826841 0.693618 0.340769 -0.158237
H21   H     H_    0.647600 0.233873 0.657494 0.145713
H22   H     H_    0.340037 0.231755 0.329816 0.145717
H23   H     H_    0.316792 0.574115 0.676526 0.156267
H24   H     H_    0.804912 0.718027 0.299815 0.143875
C53   C     C_R   0.593670 0.178209 0.611645 -0.103211
C54   C     C_R   0.395524 0.176265 0.375972 -0.105667
C55   C     C_R   0.238527 0.541729 0.628924 -0.125320
C56   C     C_R   0.864560 0.665248 0.345731 -0.034345
H25   H     H_    0.574545 0.184242 0.635658 0.152287
H26   H     H_    0.412037 0.181886 0.348665 0.154370
H27   H     H_    0.257844 0.511542 0.657795 0.150158
H28   H     H_    0.872478 0.667880 0.308991 0.192391
C57   C     C_R   0.578236 0.141798 0.569976 -0.146831
C58   C     C_R   0.413958 0.140382 0.420587 -0.150068
C59   C     C_R   0.180428 0.545517 0.582025 -0.130697
C60   C     C_R   0.892160 0.633370 0.397855 -0.082513
H29   H     H_    0.546421 0.120841 0.562365 0.132004
H30   H     H_    0.445600 0.119651 0.427200 0.140164
H31   H     H_    0.156494 0.517081 0.575093 0.151384
H32   H     H_    0.921874 0.613249 0.399840 0.205842
C61   C     C_R   0.603357 0.133067 0.538843 0.052398
C62   C     C_R   0.392275 0.132143 0.456107 0.057212
C63   C     C_R   0.154365 0.584921 0.544298 0.072349
C64   C     C_R   0.881687 0.628533 0.445739 0.029710
C65   C     C_R   0.640936 0.163592 0.545939 0.109402
C66   C     C_R   0.355308 0.162859 0.450257 0.107071
C67   C     C_R   0.188099 0.619177 0.550934 0.093786
C68   C     C_R   0.846198 0.659229 0.443032 0.107960
C69   C     C_R   0.660778 0.157020 0.508235 -0.192966
C70   C     C_R   0.339106 0.157099 0.492051 -0.188746
C71   C     C_R   0.161731 0.656555 0.508060 -0.175759
C72   C     C_R   0.839373 0.657007 0.493940 -0.170410
C73   C     C_R   0.648192 0.119222 0.470175 -0.205331
C74   C     C_R   0.355218 0.120285 0.534194 -0.214106
C75   C     C_R   0.104037 0.661142 0.462643 -0.183541
C76   C     C_R   0.862003 0.623115 0.542232 -0.223397
C77   C     C_R   0.615052 0.087353 0.467362 0.300189
C78   C     C_R   0.388271 0.088326 0.536917 0.282869
C79   C     C_R   0.070534 0.628802 0.457507 0.323011
C80   C     C_R   0.893819 0.590923 0.542987 0.292348
C81   C     C_R   0.592023 0.094597 0.500874 -0.242002
C82   C     C_R   0.406958 0.094341 0.497959 -0.243761
C83   C     C_R   0.095499 0.590903 0.499306 -0.240834
C84   C     C_R   0.905449 0.594263 0.496342 -0.246001
C85   C     C_R   0.915453 0.248294 0.748397 -0.137772
C86   C     C_R   0.084468 0.251582 0.252061 -0.148722
C87   C     C_R   0.415464 0.748422 0.748313 -0.137491
C88   C     C_R   0.584295 0.750426 0.251987 -0.146775
C89   C     C_R   0.950087 0.245327 0.821194 0.298714
C90   C     C_R   0.049221 0.250957 0.179179 0.298377
C91   C     C_R   0.450152 0.745359 0.821105 0.297264
C92   C     C_R   0.549053 0.749723 0.179109 0.298057
C93   C     C_R   0.926181 0.244951 0.854779 -0.095823
C94   C     C_R   0.072679 0.250721 0.145003 -0.097886
C95   C     C_R   0.426281 0.744607 0.854730 -0.096097
C96   C     C_R   0.572463 0.750731 0.144892 -0.097327
C97   C     C_R   0.867433 0.246533 0.815913 -0.031537
C98   C     C_R   0.131390 0.252196 0.183316 -0.033448
C99   C     C_R   0.367530 0.745847 0.815899 -0.035736
C100  C     C_R   0.631057 0.753648 0.183110 -0.035534
C101  C     C_R   0.833681 0.249562 0.744139 -0.254366
C102  C     C_R   0.165643 0.252569 0.255245 -0.254571
C103  C     C_R   0.333726 0.749024 0.744135 -0.258626
C104  C     C_R   0.665306 0.754160 0.255022 -0.254591
H33   H     H_    0.788565 0.250283 0.713925 0.138793
H34   H     H_    0.210694 0.253219 0.285016 0.138400
H35   H     H_    0.288604 0.749482 0.713928 0.153692
H36   H     H_    0.710249 0.756083 0.284620 0.140780
C105  C     C_R   0.856785 0.249942 0.710251 -0.126916
C106  C     C_R   0.143057 0.251917 0.289726 -0.126920
C107  C     C_R   0.356796 0.749843 0.710225 -0.132547
C108  C     C_R   0.642855 0.752074 0.289632 -0.127074
N9    N     N_R   0.962337 0.280434 0.963213 -0.103784
N10   N     N_R   0.036210 0.214719 0.036652 -0.097953
N11   N     N_R   0.461568 0.779808 0.963037 -0.101747
N12   N     N_R   0.536908 0.714984 0.036717 -0.100108
N13   N     N_R   0.997451 0.282085 0.031790 -0.099646
N14   N     N_R   0.001096 0.213082 0.968040 -0.090383
N15   N     N_R   0.496567 0.781537 0.031606 -0.097714
N16   N     N_R   0.501893 0.713262 0.968113 -0.093529
C109  C     C_R   0.035055 0.249352 0.069496 0.417711
C110  C     C_R   0.963488 0.245830 0.930337 0.414145
C111  C     C_R   0.534893 0.749254 0.069421 0.418019
C112  C     C_R   0.463562 0.745565 0.930286 0.413950
H37   H     H_    0.917383 0.310141 0.567761 0.168563
H38   H     H_    0.146889 0.380373 0.423505 0.167015
H39   H     H_    0.417580 0.810858 0.569600 0.167507
H40   H     H_    0.639671 0.876489 0.416480 0.168575
C113  C     C_R   0.752783 0.386441 0.403058 -0.255113
C114  C     C_R   0.175932 0.306071 0.607332 -0.253998
C115  C     C_R   0.252556 0.885454 0.401501 -0.257254
C116  C     C_R   0.681628 0.808731 0.611819 -0.248396
H41   H     H_    0.725977 0.359509 0.393254 0.181907
H42   H     H_    0.207677 0.284844 0.615114 0.183707
H43   H     H_    0.225976 0.858544 0.392443 0.179741
H44   H     H_    0.713059 0.787660 0.618518 0.179370
C117  C     C_R   0.727348 0.425664 0.366011 0.359178
C118  C     C_R   0.162138 0.300849 0.651299 0.358496
C119  C     C_R   0.226778 0.924187 0.363056 0.358245
C120  C     C_R   0.671008 0.804712 0.659027 0.358372
C121  C     C_R   0.761215 0.460321 0.375427 -0.194466
C122  C     C_R   0.121634 0.328536 0.642400 -0.193761
C123  C     C_R   0.260332 0.958744 0.371396 -0.196308
C124  C     C_R   0.630540 0.831960 0.651008 -0.186996
H45   H     H_    0.742883 0.491199 0.348445 0.193586
H46   H     H_    0.109073 0.324682 0.674373 0.197720
H47   H     H_    0.241714 0.989243 0.343210 0.193877
H48   H     H_    0.620295 0.828886 0.685446 0.198076
C125  C     C_R   0.819156 0.455664 0.419642 -0.178097
C126  C     C_R   0.097215 0.361909 0.592695 -0.235105
C127  C     C_R   0.318325 0.954540 0.416239 -0.169554
C128  C     C_R   0.602985 0.863767 0.598797 -0.232402
H49   H     H_    0.843237 0.483717 0.425540 0.182843
H50   H     H_    0.065636 0.381833 0.587516 0.167991
H51   H     H_    0.342011 0.982591 0.421201 0.188763
H52   H     H_    0.571263 0.883086 0.594195 0.164947
C129  C     C_R   0.845072 0.416068 0.456262 0.114442
C130  C     C_R   0.112738 0.368607 0.550287 0.110191
C131  C     C_R   0.344681 0.915517 0.454667 0.118400
C132  C     C_R   0.615393 0.869429 0.553064 0.099227
C133  C     C_R   0.811773 0.381872 0.450661 0.047718
C134  C     C_R   0.149926 0.338766 0.554934 0.045403
C135  C     C_R   0.311587 0.881350 0.449633 0.046100
C136  C     C_R   0.652651 0.839914 0.557229 0.052139
C137  C     C_R   0.838788 0.343898 0.492500 -0.076776
C138  C     C_R   0.160593 0.342911 0.507329 -0.075011
C139  C     C_R   0.338819 0.843853 0.492611 -0.075161
C140  C     C_R   0.660238 0.842693 0.506703 -0.074470
C141  C     C_R   0.896833 0.339114 0.535610 -0.175352
C142  C     C_R   0.138446 0.377420 0.459789 -0.195475
C143  C     C_R   0.396922 0.839508 0.536632 -0.175498
C144  C     C_R   0.634047 0.874981 0.455476 -0.198762
H53   H     H_    0.974045 0.367358 0.571648 0.152334
H54   H     H_    0.088318 0.435009 0.421163 0.176277
H55   H     H_    0.474115 0.868154 0.573383 0.153882
H56   H     H_    0.580011 0.930162 0.413246 0.214761
C145  C     C_R   0.929078 0.371876 0.538856 -0.188033
C146  C     C_R   0.104378 0.407884 0.457584 -0.188770
C147  C     C_R   0.429059 0.872317 0.539764 -0.191836
C148  C     C_R   0.599523 0.904984 0.453111 -0.107443
C149  C     C_R   0.903636 0.409819 0.499259 -0.057973
C150  C     C_R   0.091589 0.403847 0.502353 -0.090699
C151  C     C_R   0.403431 0.909812 0.498952 -0.052193
C152  C     C_R   0.590848 0.903064 0.502034 -0.114913
O33   O     O_R   0.017100 0.454190 0.442490 -0.606878
O34   O     O_R   0.982900 0.454190 0.557510 -0.590434
O35   O     O_R   0.517100 0.954190 0.442490 -0.599368
O36   O     O_R   0.482900 0.954190 0.557510 -0.593587
O37   O     O_R   0.074600 0.454200 0.557500 -0.639716
O38   O     O_R   0.925400 0.454200 0.442500 -0.632972
O39   O     O_R   0.574600 0.954200 0.557500 -0.620241
O40   O     O_R   0.425400 0.954200 0.442500 -0.641048
C153  C     C_R   0.059054 0.438495 0.500597 0.839502
C154  C     C_R   0.938882 0.440936 0.499954 0.881293
C155  C     C_R   0.558679 0.938095 0.500567 0.915478
C156  C     C_R   0.438796 0.940971 0.499890 0.883229
O41   O     O_R   0.517070 0.045810 0.442480 -0.598776
O42   O     O_R   0.482930 0.045810 0.557520 -0.587051
O43   O     O_R   0.017070 0.545810 0.442480 -0.568928
O44   O     O_R   0.982930 0.545810 0.557520 -0.565128
O45   O     O_R   0.574570 0.045820 0.557490 -0.615075
O46   O     O_R   0.425430 0.045820 0.442510 -0.639511
O47   O     O_R   0.074570 0.545820 0.557490 -0.628935
O48   O     O_R   0.925430 0.545820 0.442510 -0.648031
C157  C     C_R   0.559372 0.060720 0.499990 0.930088
C158  C     C_R   0.440194 0.060604 0.499527 0.897642
C159  C     C_R   0.060570 0.559655 0.499744 0.878442
C160  C     C_R   0.940222 0.561032 0.499178 0.911621
Zn9   Zn    Zn3+2 0.961620 0.500000 0.423200 1.038005
Zn10  Zn    Zn3+2 0.038380 0.500000 0.576800 1.045212
Zn11  Zn    Zn3+2 0.461620 0.000000 0.423200 1.027840
Zn12  Zn    Zn3+2 0.538380 0.000000 0.576800 1.053747
N17   N     N_R   0.648193 0.167756 0.288026 0.221916
O49   O     O_R   0.659460 0.136528 0.263045 -0.336029
O50   O     O_R   0.645677 0.158506 0.337292 -0.386761
N18   N     N_R   0.348054 0.167981 0.714881 0.224718
O51   O     O_R   0.334201 0.137894 0.739036 -0.314177
O52   O     O_R   0.353098 0.157443 0.668330 -0.387929
N19   N     N_R   0.140692 0.667389 0.289077 0.217880
O53   O     O_R   0.147306 0.633662 0.263139 -0.347548
O54   O     O_R   0.140207 0.661364 0.340688 -0.376137
N20   N     N_R   0.841421 0.668887 0.715127 0.225863
O55   O     O_R   0.823686 0.641637 0.738107 -0.313618
O56   O     O_R   0.847299 0.655301 0.670462 -0.387179
N21   N     N_R   0.606908 0.047190 0.432533 0.218689
O57   O     O_R   0.615299 0.009885 0.463424 -0.414627
O58   O     O_R   0.600850 0.047801 0.375727 -0.328883
N22   N     N_R   0.401919 0.049915 0.578948 0.227318
O59   O     O_R   0.395964 0.011156 0.554072 -0.405700
O60   O     O_R   0.411854 0.053318 0.637980 -0.314812
N23   N     N_R   0.011263 0.635681 0.410090 0.179442
O61   O     O_R   0.981190 0.612401 0.354344 -0.366012
O62   O     O_R   0.991074 0.672790 0.411250 -0.422293
N24   N     N_R   0.912135 0.554301 0.589616 0.229335
O63   O     O_R   0.902563 0.514569 0.566473 -0.394356
O64   O     O_R   0.929196 0.560482 0.651931 -0.319788
C161  C     C_2   0.939882 0.253193 0.712199 0.503298
H57   H     H_    0.915537 0.268214 0.661209 0.038450
O65   O     O_2   0.987130 0.240513 0.738269 -0.471742
C162  C     C_2   0.060589 0.252776 0.289022 0.529817
H58   H     H_    0.082900 0.269101 0.338313 0.044676
O66   O     O_2   0.016552 0.234764 0.265825 -0.474078
C163  C     C_2   0.439808 0.753626 0.712056 0.498946
H59   H     H_    0.415307 0.768611 0.661034 0.041263
O67   O     O_2   0.487155 0.741231 0.738103 -0.475834
C164  C     C_2   0.560357 0.750443 0.288897 0.530163
H60   H     H_    0.581885 0.767097 0.337820 0.044133
O68   O     O_2   0.517162 0.731123 0.266049 -0.476034
N25   N     N_R   0.009758 0.245509 0.861681 0.238871
O69   O     O_R   0.037665 0.280710 0.894103 -0.316550
O70   O     O_R   0.036528 0.209115 0.873264 -0.278648
N26   N     N_R   0.989511 0.251459 0.139504 0.239426
O71   O     O_R   0.959525 0.219700 0.097540 -0.302127
O72   O     O_R   0.964808 0.284900 0.142408 -0.316628
N27   N     N_R   0.509812 0.745862 0.861544 0.239544
O73   O     O_R   0.537433 0.781172 0.893885 -0.313143
O74   O     O_R   0.536873 0.709642 0.873109 -0.283989
N28   N     N_R   0.489360 0.748914 0.139472 0.239292
O75   O     O_R   0.460421 0.716876 0.097536 -0.303750
O76   O     O_R   0.463581 0.781481 0.142374 -0.314939
C165  C     C_2   0.838871 0.243763 0.847013 0.465642
H61   H     H_    0.794853 0.252393 0.815987 0.059065
O77   O     O_2   0.862917 0.230513 0.906029 -0.500532
C166  C     C_2   0.159405 0.254636 0.151478 0.468362
H62   H     H_    0.204068 0.248370 0.183170 0.057529
O78   O     O_2   0.134130 0.264979 0.090976 -0.500108
C167  C     C_2   0.339055 0.742567 0.847061 0.464646
H63   H     H_    0.295089 0.751294 0.816299 0.070903
O79   O     O_2   0.363113 0.728753 0.905802 -0.501248
C168  C     C_2   0.658916 0.757446 0.151179 0.473720
H64   H     H_    0.703799 0.752355 0.182910 0.054092
O80   O     O_2   0.633203 0.767593 0.090522 -0.498026
N29   N     N_R   0.667394 0.430475 0.319699 0.215903
O81   O     O_R   0.635979 0.401152 0.318385 -0.395399
O82   O     O_R   0.643718 0.464944 0.279948 -0.350812
N30   N     N_R   0.188847 0.267368 0.704326 0.220783
O83   O     O_R   0.227015 0.241923 0.713262 -0.359396
O84   O     O_R   0.175560 0.262218 0.744576 -0.328253
N31   N     N_R   0.166783 0.928637 0.316465 0.215047
O85   O     O_R   0.135658 0.899971 0.316978 -0.388573
O86   O     O_R   0.142802 0.962331 0.274949 -0.348587
N32   N     N_R   0.700772 0.772800 0.714343 0.221468
O87   O     O_R   0.738817 0.747723 0.722318 -0.364285
O88   O     O_R   0.690447 0.768758 0.757663 -0.328806

loop_
_geom_bond_atom_site_label_1
_geom_bond_atom_site_label_2
_geom_bond_distance
_ccdc_geom_bond_type
C43   N7    1.355464 A    
C57   H29   1.081220 S    
C62   C66   1.406405 A    
C148  C152  1.396551 A    
C46   C50   1.393384 A    
C21   C25   1.402984 A    
C59   H31   1.080919 S    
O35   C155  1.277277 A    
C145  C149  1.392207 A    
C74   C78   1.377793 A    
C147  C151  1.392373 A    
N4    C43   1.356868 A    
C121  H45   1.082602 S    
C44   N8    1.354875 A    
Zn6   O22   2.017279 S    
O38   C154  1.272575 A    
C66   C70   1.412152 A    
C72   C76   1.388031 A    
O43   Zn9   2.018461 S    
C26   C30   1.401099 A    
C164  H60   1.085153 S    
C71   C75   1.385773 A    
O36   Zn12  2.019031 S    
C92   N28   1.436872 S    
C60   H32   1.073993 S    
C25   C42   1.466027 S    
C20   C40   1.414735 A    
C77   N21   1.437467 S    
C64   C84   1.426544 A    
O33   Zn9   2.012522 S    
C96   C111  1.462267 S    
C124  H48   1.082558 S    
C63   C83   1.418145 A    
N29   O82   1.301628 A    
C23   H3    1.082990 S    
C85   C89   1.412605 A    
C163  H59   1.084393 S    
C114  C134  1.415321 A    
Zn1   O25   2.001395 S    
C48   C52   1.390469 A    
C87   C91   1.412582 A    
C116  C120  1.402740 A    
N2    C41   1.357130 A    
Zn3   O19   2.019355 S    
N24   O63   1.301193 A    
C42   N6    1.354906 A    
N10   C109  1.355897 A    
C75   C79   1.373639 A    
Zn4   O28   2.007730 S    
C94   C109  1.462822 S    
O13   C5    1.285210 A    
Zn5   O29   2.013063 S    
C15   C107  1.464432 S    
O15   C7    1.284710 A    
O6    C2    1.280691 A    
O11   Zn3   2.013275 S    
C1    C69   1.437268 S    
C104  H36   1.084207 S    
O9    C5    1.286563 A    
O2    Zn2   2.016857 S    
C19   C39   1.412509 A    
O10   Zn2   2.006965 S    
C98   C102  1.394120 A    
C82   C158  1.432561 S    
N18   O51   1.301350 A    
O6    Zn6   2.019157 S    
C23   C27   1.403984 A    
O19   C11   1.277289 A    
C133  C137  1.418529 A    
C125  C129  1.413307 A    
C35   C39   1.399773 A    
O5    Zn5   2.019362 S    
Zn8   O24   2.017279 S    
C87   C107  1.414781 A    
C144  C148  1.373129 A    
C49   C53   1.389747 A    
C90   C94   1.413971 A    
C45   C65   1.416850 A    
C36   H12   1.083472 S    
C17   C21   1.395302 A    
C51   H23   1.082511 S    
C20   N20   1.436671 S    
C19   C23   1.396602 A    
C88   C108  1.414244 A    
C20   C24   1.394309 A    
C113  C117  1.404457 A    
O24   C12   1.276708 A    
C120  N32   1.440659 S    
C126  H50   1.080340 S    
C168  H64   1.085895 S    
H38   C142  1.084317 S    
C55   H27   1.082543 S    
O3    C3    1.280771 A    
N27   O73   1.300763 A    
C21   H1    1.083028 S    
C54   C58   1.393617 A    
N31   O85   1.301286 A    
C29   H5    1.082887 S    
C131  C135  1.406948 A    
C102  C106  1.397337 A    
C10   C138  1.432500 S    
C31   H7    1.082920 S    
O26   C14   1.287375 A    
C140  C144  1.390521 A    
O43   C159  1.271490 A    
O23   C11   1.282084 A    
C4    C72   1.424036 S    
C132  C136  1.406841 A    
O38   Zn9   2.018636 S    
C22   C26   1.402763 A    
C24   H4    1.083053 S    
C95   C112  1.463495 S    
C123  H47   1.082621 S    
N32   O87   1.301851 A    
C128  H52   1.080230 S    
C47   C51   1.393638 A    
H40   C144  1.084461 S    
C89   N25   1.433754 S    
C69   C73   1.392901 A    
N21   O58   1.301395 A    
N14   C110  1.356001 A    
C98   C166  1.488277 S    
C46   H18   1.080174 S    
O20   C12   1.278499 A    
O8    C4    1.274575 A    
C59   C63   1.417048 A    
O29   C13   1.286389 A    
N25   O70   1.300821 A    
C131  C151  1.414613 A    
C146  C150  1.394756 A    
C88   C164  1.489323 S    
C132  C152  1.417620 A    
C8    C40   1.462616 S    
N22   O60   1.301475 A    
N11   N15   1.328988 A    
C165  O77   1.220603 D    
O47   Zn10  2.018555 S    
O33   C153  1.276525 A    
N20   O56   1.300656 A    
C22   H2    1.083003 S    
C129  C149  1.413099 A    
C76   C80   1.377059 A    
N26   O71   1.301178 A    
C113  C133  1.417270 A    
C149  C154  1.431591 S    
O41   C157  1.273750 A    
C163  O67   1.220298 D    
C162  O66   1.220850 D    
C67   C71   1.411154 A    
O5    C1    1.282666 A    
N17   O49   1.301360 A    
C53   H25   1.082535 S    
N16   C112  1.356012 A    
O36   C156  1.275718 A    
N30   O84   1.301593 A    
O34   Zn10  2.019031 S    
O25   C13   1.287281 A    
C3    C71   1.429477 S    
C86   C90   1.412063 A    
N28   O76   1.301111 A    
N23   O62   1.301214 A    
O4    C4    1.277450 A    
C121  C125  1.391803 A    
C48   H20   1.079823 S    
Zn2   O26   2.007730 S    
O16   Zn8   2.007773 S    
O27   C15   1.287539 A    
C137  C141  1.395276 A    
C78   N22   1.439462 S    
C14   C106  1.465162 S    
O14   C6    1.285005 A    
Zn6   O30   2.006753 S    
C68   C72   1.404682 A    
O41   Zn11  2.018461 S    
C61   C65   1.406401 A    
C115  C119  1.404055 A    
C129  C133  1.406830 A    
O10   C6    1.287241 A    
O3    Zn3   2.017061 S    
N10   N14   1.329701 A    
C97   C101  1.393573 A    
H56   C148  1.083405 S    
C79   C83   1.409736 A    
C125  H49   1.081135 S    
H15   C75   1.085462 S    
H53   C145  1.084187 S    
C96   C100  1.415456 A    
C166  H62   1.085969 S    
C122  C126  1.393939 A    
C119  N31   1.440021 S    
C89   C93   1.412637 A    
C164  O68   1.220866 D    
C36   C40   1.402390 A    
C46   C66   1.416280 A    
H39   C143  1.084103 S    
C9    C137  1.437501 S    
C92   C96   1.413713 A    
Zn1   O17   2.019355 S    
C28   C43   1.466749 S    
C51   C55   1.390237 A    
C18   C22   1.394814 A    
C35   H11   1.081727 S    
C16   C108  1.466420 S    
N5    N6    1.326069 A    
O13   Zn5   2.001431 S    
C90   N26   1.436803 S    
O15   Zn7   2.001431 S    
C32   C36   1.390168 A    
N29   O81   1.301204 A    
C45   C49   1.393837 A    
C5    C37   1.459328 S    
C134  C138  1.413790 A    
C17   C37   1.413149 A    
C80   C84   1.411105 A    
C55   C59   1.394049 A    
C56   C60   1.394604 A    
O40   Zn11  2.018636 S    
C54   H26   1.082532 S    
O17   C9    1.277485 A    
C12   C140  1.429495 S    
C102  H34   1.084860 S    
N24   O64   1.301402 A    
C29   C33   1.389335 A    
C161  O65   1.220296 D    
C143  C147  1.374052 A    
C101  C105  1.397743 A    
H14   C74   1.083673 S    
C85   C105  1.414801 A    
C104  C108  1.397745 A    
C25   C29   1.400756 A    
C94   C98   1.415833 A    
C26   C41   1.466505 S    
C80   N24   1.438648 S    
C33   C37   1.400944 A    
N18   O52   1.300903 A    
Zn7   O31   2.013063 S    
N15   C111  1.355496 A    
Zn8   O32   2.006753 S    
C30   C34   1.389744 A    
C123  C127  1.391717 A    
N28   O75   1.301179 A    
O45   C157  1.271261 A    
C83   C159  1.439900 S    
C84   C160  1.441320 S    
O47   C159  1.278774 A    
C115  C135  1.417487 A    
O48   C160  1.270246 A    
O1    C1    1.277450 A    
C117  C121  1.398551 A    
N12   N16   1.329667 A    
N3    C44   1.357273 A    
N11   C112  1.355687 A    
C99   C167  1.487575 S    
C34   H10   1.083588 S    
O44   Zn10  2.011952 S    
N9    C110  1.355641 A    
C136  C140  1.412782 A    
C93   C110  1.463441 S    
C63   C67   1.408262 A    
N19   O53   1.301478 A    
O44   C160  1.281328 A    
C100  C168  1.488422 S    
C47   C67   1.415361 A    
C58   C62   1.418031 A    
O21   C9    1.282563 A    
O28   C16   1.287753 A    
H16   C76   1.083142 S    
O40   C156  1.271779 A    
O30   C14   1.286524 A    
C6    C38   1.459656 S    
N12   C111  1.355846 A    
C168  O80   1.220462 D    
C18   C38   1.413449 A    
C19   N19   1.438710 S    
O48   Zn9   2.024628 S    
C139  C143  1.394893 A    
C130  C150  1.416373 A    
C77   C81   1.405963 A    
O39   Zn12  2.024702 S    
C167  H63   1.085786 S    
O42   Zn12  2.011952 S    
N27   O74   1.300823 A    
C150  C153  1.436181 S    
O42   C158  1.272838 A    
C141  C145  1.374189 A    
C62   C82   1.417235 A    
C52   C56   1.386924 A    
C27   C44   1.466253 S    
C57   C61   1.417447 A    
C34   C38   1.401705 A    
O37   C153  1.273582 A    
O35   Zn11  2.012522 S    
C60   C64   1.417973 A    
C2    C70   1.433885 S    
C31   C35   1.388414 A    
N32   O88   1.301583 A    
O34   C154  1.274388 A    
C73   C77   1.377860 A    
C113  H41   1.079724 S    
H37   C141  1.084124 S    
O45   Zn12  2.018555 S    
C119  C123  1.398040 A    
Zn3   O27   2.001395 S    
O46   Zn11  2.024628 S    
C88   C92   1.412049 A    
Zn4   O20   2.019155 S    
C116  C136  1.415048 A    
N21   O57   1.300297 A    
C30   H6    1.082822 S    
Zn5   O21   2.017480 S    
N7    N8    1.326323 A    
H54   C146  1.084237 S    
C65   C69   1.414607 A    
O12   Zn4   2.006965 S    
C85   C161  1.492966 S    
N23   O61   1.300979 A    
C61   C81   1.415062 A    
N1    N2    1.329901 A    
N25   O69   1.300765 A    
C11   C139  1.436427 S    
N3    N4    1.329731 A    
C64   C68   1.405514 A    
C165  H61   1.085885 S    
O7    C3    1.275714 A    
N26   O72   1.301110 A    
O39   C155  1.275411 A    
C103  H35   1.085171 S    
C124  C128  1.394269 A    
C50   H22   1.082593 S    
C115  H43   1.079565 S    
C122  H46   1.082569 S    
C127  C131  1.413905 A    
C49   H21   1.082569 S    
C79   N23   1.431750 S    
Zn2   O18   2.019155 S    
O16   C8    1.285048 A    
N13   C109  1.355637 A    
O14   Zn6   2.007773 S    
C45   H17   1.080088 S    
O11   C7    1.285186 A    
O12   C8    1.288866 A    
O1    Zn1   2.017061 S    
O9    Zn1   2.013275 S    
C56   H28   1.082599 S    
O4    Zn4   2.016857 S    
C81   C157  1.430950 S    
C118  C122  1.399872 A    
C99   C103  1.393514 A    
H55   C147  1.084375 S    
O18   C10   1.278895 A    
C152  C155  1.440259 S    
O7    Zn7   2.019362 S    
C91   N27   1.433724 S    
O8    Zn8   2.019157 S    
C116  H44   1.080801 S    
C117  N29   1.440057 S    
C101  H33   1.085089 S    
C95   C99   1.414582 A    
H13   C73   1.083435 S    
C114  H42   1.080529 S    
C91   C95   1.412654 A    
C48   C68   1.416563 A    
C86   C106  1.413822 A    
C167  O79   1.220641 D    
C18   N18   1.437376 S    
C93   C97   1.414688 A    
C28   C32   1.401136 A    
N31   O86   1.301756 A    
N19   O54   1.301362 A    
C118  N30   1.440641 S    
C166  O78   1.220468 D    
O46   C158  1.273399 A    
C86   C162  1.489563 S    
C7    C39   1.455877 S    
C126  C130  1.413554 A    
C32   H8    1.082818 S    
O2    C2    1.277516 A    
C97   C165  1.487732 S    
C120  C124  1.399930 A    
C100  C104  1.393863 A    
N22   O59   1.300270 A    
O31   C15   1.285950 A    
C138  C142  1.392635 A    
C53   C57   1.393261 A    
O32   C16   1.286863 A    
N20   O55   1.301333 A    
C103  C107  1.397469 A    
C58   H30   1.080752 S    
C127  H51   1.080614 S    
O22   C10   1.278028 A    
C130  C134  1.406411 A    
C135  C139  1.417960 A    
C114  C118  1.403020 A    
C162  H58   1.085136 S    
O37   Zn10  2.024702 S    
N17   O50   1.300675 A    
C27   C31   1.400835 A    
C13   C105  1.464777 S    
N9    N13   1.329065 A    
N30   O83   1.301859 A    
Zn7   O23   2.017480 S    
C24   C28   1.401954 A    
C161  H57   1.084461 S    
C33   H9    1.081870 S    
C17   N17   1.437210 S    
C78   C82   1.409237 A    
C151  C156  1.432450 S    
C70   C74   1.391114 A    
C128  C132  1.413776 A    
C47   H19   1.081159 S    
C50   C54   1.389656 A    
C87   C163  1.492961 S    
N1    C42   1.357116 A    
C142  C146  1.374019 A    
C41   N5    1.355070 A    
C52   H24   1.082611 S    
