data_mof_unit_27754.cif
_audit_creation_date              2013-03-05T15:46:46-0500
_audit_creation_method            fapswitch 2.2
_symmetry_space_group_name_H-M    P1
_symmetry_Int_Tables_number       1
_space_group_crystal_system       triclinic
_cell_length_a                    10.200707
_cell_length_b                    10.590518
_cell_length_c                    12.24725
_cell_angle_alpha                 91.372727
_cell_angle_beta                  109.484541
_cell_angle_gamma                 95.33805
_cell_volume                      1239.76686257

loop_
_atom_site_label
_atom_site_type_symbol
_atom_site_description
_atom_site_fract_x
_atom_site_fract_y
_atom_site_fract_z
_atom_type_partial_charge
O1    O     O_R   0.936910 0.692950 0.509080 -0.552494
O2    O     O_R   0.138320 0.658600 0.480130 -0.616785
C1    C     C_R   0.054726 0.734046 0.499509 0.956225
O3    O     O_R   0.002900 0.525670 0.675280 -0.594408
O4    O     O_R   0.204310 0.491320 0.646330 -0.609105
C2    C     C_R   0.132444 0.505112 0.714371 0.863690
Zn1   Zn    Zn3+2 0.865520 0.522940 0.519330 0.981844
Zn2   Zn    Zn3+2 0.134480 0.477060 0.480670 0.961181
O5    O     O_R   0.861680 0.341400 0.519870 -0.595248
O6    O     O_R   0.063090 0.307050 0.490920 -0.594501
O7    O     O_R   0.795690 0.508680 0.353670 -0.621655
O8    O     O_R   0.997100 0.474330 0.324720 -0.579517
C3    C     C_R   0.951432 0.266271 0.511190 0.948435
C4    C     C_R   0.864871 0.483850 0.285678 0.923578
C5    C     C_R   0.713951 0.288075 0.004349 0.438555
C6    C     C_R   0.784857 0.447223 0.164922 -0.243145
C7    C     C_R   0.158060 0.575514 0.914176 -0.206693
C8    C     C_R   0.241446 0.597558 0.029679 -0.195504
C9    C     C_R   0.371067 0.550739 0.069177 -0.181080
C10   C     C_R   0.416138 0.475231 0.993905 0.134615
C11   C     C_R   0.322086 0.437902 0.882734 0.020310
C12   C     C_R   0.551384 0.435503 0.025942 -0.004443
C13   C     C_R   0.582650 0.337746 0.959487 -0.175923
C14   C     C_R   0.480429 0.291463 0.852841 0.320690
C15   C     C_R   0.351686 0.340535 0.816898 -0.295335
C16   C     C_R   0.657165 0.494673 0.121622 -0.315494
C17   C     C_R   0.817054 0.346952 0.104329 0.352731
C18   C     C_R   0.201627 0.501525 0.839046 -0.085194
H1    H     H_    0.641066 0.577439 0.166968 0.175186
H2    H     H_    0.061495 0.618927 0.882675 0.166986
H3    H     H_    0.431695 0.570782 0.159807 0.136611
H4    H     H_    0.207606 0.654384 0.087905 0.145308
H5    H     H_    0.274812 0.301677 0.735894 0.186204
H6    H     H_    0.156127 0.123442 0.575674 0.216100
C19   C     C_2   0.093051 0.870001 0.515204 -0.416495
C20   C     C_2   0.049849 0.939716 0.587373 0.553368
H7    H     H_    0.837558 0.085491 0.531489 0.179824
C21   C     C_2   0.938668 0.134033 0.537772 -0.392038
C22   C     C_2   0.055500 0.075450 0.571513 -0.321964
H8    H     H_    0.147762 0.914604 0.461230 0.126203
H9    H     H_    0.563905 0.412721 0.426945 0.162365
H10   H     H_    0.436108 0.586967 0.573332 0.168199
N1    N     N_2   0.313640 0.446500 0.454900 -0.184814
C23   C     C_2   0.432946 0.511983 0.510266 -0.107038
H11   H     H_    0.684977 0.623747 0.604297 0.175791
N2    N     N_2   0.686360 0.553430 0.545150 -0.178812
C24   C     C_2   0.567098 0.487720 0.490021 -0.098523
H12   H     H_    0.315304 0.375995 0.396117 0.166391
O9    O     O_3   0.941441 0.294142 0.150675 -0.590962
C25   C     C_3   0.034584 0.339947 0.093843 0.175716
H13   H     H_    0.080598 0.437903 0.128996 0.141931
H14   H     H_    0.983236 0.340705 0.997884 0.156698
C26   C     C_3   0.151725 0.254649 0.116292 -0.817278
H15   H     H_    0.107894 0.156620 0.080121 0.252107
H16   H     H_    0.227242 0.290972 0.073929 0.214081
H17   H     H_    0.207485 0.252339 0.210901 0.243824
O10   O     O_3   0.989975 0.881229 0.663491 -0.594384
C27   C     C_3   0.995698 0.965055 0.757317 0.143484
H18   H     H_    0.909054 0.026313 0.729594 0.180610
H19   H     H_    0.097923 0.025506 0.792172 0.147118
C28   C     C_3   0.977473 0.888921 0.855838 -0.847252
H20   H     H_    0.071649 0.839384 0.895731 0.243176
H21   H     H_    0.964920 0.953914 0.923344 0.220849
H22   H     H_    0.883449 0.818368 0.823160 0.261107
N3    N     N_R   0.508812 0.204200 0.774269 0.219730
O11   O     O_R   0.419085 0.106180 0.726829 -0.459724
O12   O     O_R   0.608434 0.235939 0.732745 -0.366406
O13   O     O_3   0.743685 0.180528 0.954229 -0.578379
C29   C     C_3   0.680100 0.069873 0.987096 0.164666
H23   H     H_    0.659727 0.994676 0.916918 0.190861
H24   H     H_    0.576835 0.082329 0.996355 0.114898
C30   C     C_3   0.777184 0.022000 0.098675 -0.853136
H25   H     H_    0.786512 0.086918 0.173997 0.265634
H26   H     H_    0.733702 0.926311 0.113232 0.204856
H27   H     H_    0.882400 0.015421 0.092308 0.271993

loop_
_geom_bond_atom_site_label_1
_geom_bond_atom_site_label_2
_geom_bond_distance
_ccdc_geom_bond_type
O4    Zn2   1.909910 S    
C25   H14   1.116317 S    
C13   C14   1.413921 A    
Zn2   N1    2.008549 S    
H7    C21   1.086500 S    
C1    C19   1.447339 S    
C28   H22   1.111141 S    
N1    H12   1.029986 S    
C9    C10   1.420049 A    
C26   H16   1.109781 S    
C5    C17   1.405905 A    
C19   C20   1.345244 D    
N3    O12   1.301419 A    
C23   C24   1.512911 S    
Zn2   O8    1.953686 S    
N1    C23   1.300673 D    
C9    H3    1.079776 S    
C27   C28   1.519524 S    
C5    C13   1.423554 A    
C7    C8    1.386953 A    
H9    C24   1.085217 S    
C29   H24   1.115658 S    
O1    Zn1   1.901500 S    
C26   H15   1.110600 S    
C10   C11   1.400979 A    
Zn1   O7    1.909910 S    
C7    H2    1.081553 S    
O10   C27   1.417293 S    
O4    C2    1.294132 A    
H10   C23   1.085118 S    
C14   N3    1.434205 S    
C6    C17   1.405695 A    
C30   H27   1.110109 S    
C5    O13   1.386015 S    
O3    C2    1.288136 A    
O7    C4    1.294847 A    
C11   C18   1.408153 A    
C3    C21   1.449290 S    
C19   H8    1.087919 S    
O2    C1    1.294055 A    
C29   H23   1.110577 S    
O3    Zn1   1.953686 S    
C6    C16   1.379908 A    
C28   H20   1.108940 S    
Zn2   O6    1.901502 S    
O9    C25   1.412139 S    
C4    C6    1.453350 S    
C25   C26   1.520869 S    
C8    H4    1.082664 S    
C27   H19   1.115886 S    
H6    C22   1.086895 S    
Zn1   N2    2.008651 S    
Zn1   O5    1.919571 S    
O8    C4    1.286661 A    
C29   C30   1.526113 S    
C21   C22   1.340646 D    
C14   C15   1.393140 A    
C20   O10   1.401020 S    
C16   H1    1.080751 S    
C30   H26   1.110520 S    
N3    O11   1.300952 A    
C12   C16   1.387672 A    
C26   H17   1.109503 S    
O2    Zn2   1.919569 S    
C28   H21   1.110608 S    
O5    C3    1.295750 A    
N2    C24   1.300832 D    
C8    C9    1.391026 A    
C11   C15   1.408944 A    
C25   H13   1.111340 S    
C27   H18   1.111021 S    
H11   N2    1.030745 S    
C7    C18   1.400419 A    
C15   H5    1.081618 S    
C30   H25   1.109780 S    
C20   C22   1.453571 S    
C2    C18   1.455992 S    
C12   C13   1.424861 A    
C17   O9    1.382648 S    
C10   C12   1.410347 A    
O13   C29   1.418241 S    
O1    C1    1.283199 A    
O6    C3    1.283622 A    
