data_mof_unit_55556.cif
_audit_creation_date              2012-12-10T18:19:09-0500
_audit_creation_method            fapswitch 2.2
_symmetry_space_group_name_H-M    P1
_symmetry_Int_Tables_number       1
_space_group_crystal_system       triclinic
_cell_length_a                    14.956322
_cell_length_b                    14.028536
_cell_length_c                    11.540923
_cell_angle_alpha                 90.022765
_cell_angle_beta                  89.100928
_cell_angle_gamma                 90.421859
_cell_volume                      2421.09840295

loop_
_atom_site_label
_atom_site_type_symbol
_atom_type_description
_atom_site_fract_x
_atom_site_fract_y
_atom_site_fract_z
_atom_type_partial_charge
C1    C     C_R   0.327001 0.499670 0.503245 0.899324
C2    C     C_R   0.672999 0.500330 0.496753 0.899324
C3    C     C_R   0.909941 0.536341 0.399198 0.077276
C4    C     C_R   0.090059 0.463666 0.600804 0.077276
C5    C     C_R   0.945993 0.429351 0.691102 -0.218792
C6    C     C_R   0.054007 0.570658 0.308901 -0.218794
C7    C     C_R   0.038533 0.428766 0.694918 -0.213970
C8    C     C_R   0.961468 0.571244 0.305087 -0.213971
C9    C     C_R   0.548999 0.798628 0.418094 -0.064301
C10   C     C_R   0.451001 0.201372 0.581907 -0.064299
C11   C     C_R   0.450696 0.797848 0.581738 -0.053351
C12   C     C_R   0.549304 0.202152 0.418262 -0.053351
C13   C     C_R   0.449531 0.898470 0.583728 0.013366
C14   C     C_R   0.550470 0.101530 0.416273 0.013366
C15   C     C_R   0.550340 0.899230 0.416212 0.014535
C16   C     C_R   0.449661 0.100770 0.583789 0.014535
C17   C     C_R   0.499982 0.949415 0.500000 0.086217
C18   C     C_R   0.500018 0.050585 0.500001 0.086216
C19   C     C_R   0.399376 0.949151 0.667020 -0.202800
C20   C     C_R   0.600625 0.050849 0.332981 -0.202799
C21   C     C_R   0.600549 0.950635 0.332947 -0.206329
C22   C     C_R   0.399452 0.049365 0.667055 -0.206327
C23   C     C_R   0.499521 0.499966 0.281763 0.914963
C24   C     C_R   0.500480 0.500034 0.718237 0.914966
C25   C     C_1   0.498834 0.499843 0.161422 -0.178550
C26   C     C_1   0.501167 0.500157 0.838578 -0.178552
C27   C     C_1   0.499240 0.499870 0.059287 -0.027880
C28   C     C_1   0.500761 0.500129 0.940713 -0.027883
C29   C     C_R   0.816168 0.536094 0.397027 -0.076366
C30   C     C_R   0.183832 0.463909 0.602973 -0.076368
C31   C     C_R   0.768385 0.501013 0.493969 -0.098083
C32   C     C_R   0.231615 0.498987 0.506029 -0.098082
C33   C     C_R   0.811078 0.465232 0.590500 -0.278389
C34   C     C_R   0.188922 0.534770 0.409499 -0.278389
C35   C     C_R   0.903316 0.464783 0.593630 0.129494
C36   C     C_R   0.096684 0.535223 0.406372 0.129496
C37   C     C_R   0.953289 0.500390 0.498217 0.047663
C38   C     C_R   0.046711 0.499616 0.501785 0.047662
H1    H     H_    0.771929 0.438388 0.663697 0.142351
H2    H     H_    0.228072 0.561612 0.336300 0.142350
H3    H     H_    0.907713 0.402033 0.764571 0.146268
H4    H     H_    0.092288 0.597977 0.235434 0.146269
H5    H     H_    0.069041 0.400533 0.771951 0.167140
H6    H     H_    0.930960 0.599479 0.228055 0.167141
H7    H     H_    0.586733 0.758832 0.354119 0.139991
H8    H     H_    0.413268 0.241168 0.645884 0.139993
H9    H     H_    0.412243 0.757440 0.645291 0.133619
H10   H     H_    0.587757 0.242560 0.354708 0.133619
H11   H     H_    0.360098 0.911314 0.732151 0.140534
H12   H     H_    0.639903 0.088686 0.267851 0.140534
H13   H     H_    0.639811 0.913420 0.267841 0.133265
H14   H     H_    0.360190 0.086581 0.732162 0.133263
N1    N     N_R   0.500000 0.750030 0.500000 -0.101740
N2    N     N_R   0.500000 0.249970 0.500000 -0.101740
O1    O     O_R   0.367850 0.580280 0.500030 -0.620272
O2    O     O_R   0.632150 0.419720 0.499970 -0.620272
O3    O     O_R   0.632150 0.580280 0.499970 -0.616028
O4    O     O_R   0.367850 0.419720 0.500030 -0.616027
O5    O     O_R   0.500010 0.580270 0.334450 -0.612507
O6    O     O_R   0.499990 0.419730 0.665550 -0.612506
O7    O     O_R   0.499990 0.580270 0.665550 -0.623089
O8    O     O_R   0.500010 0.419730 0.334450 -0.623090
Zn1   Zn    Zn3+2 0.500000 0.607200 0.500000 0.950910
Zn2   Zn    Zn3+2 0.500000 0.392800 0.500000 0.950912
C39   C     C_R   0.768757 0.566797 0.291759 0.106223
C40   C     C_R   0.754575 0.501542 0.201616 -0.177371
C41   C     C_R   0.718134 0.532161 0.097384 -0.140115
C42   C     C_R   0.694761 0.627697 0.083178 -0.089150
C43   C     C_R   0.708138 0.692789 0.173071 -0.159719
C44   C     C_R   0.745447 0.662640 0.277093 -0.135845
H15   H     H_    0.773476 0.427628 0.211340 0.133680
H16   H     H_    0.707993 0.481858 0.027595 0.135032
H17   H     H_    0.666298 0.651238 0.002522 0.132303
H18   H     H_    0.690431 0.766769 0.161618 0.118817
H19   H     H_    0.757409 0.713950 0.345369 0.131676
C45   C     C_R   0.231243 0.433202 0.708240 0.106229
C46   C     C_R   0.254547 0.337357 0.722904 -0.135843
C47   C     C_R   0.291857 0.307205 0.826925 -0.159721
C48   C     C_R   0.305240 0.372297 0.916818 -0.089145
C49   C     C_R   0.281873 0.467837 0.902613 -0.140116
C50   C     C_R   0.245431 0.498458 0.798382 -0.177374
H20   H     H_    0.242579 0.286047 0.654629 0.131676
H21   H     H_    0.309560 0.233223 0.838378 0.118814
H22   H     H_    0.333704 0.348755 0.997473 0.132302
H23   H     H_    0.292017 0.518140 0.972402 0.135032
H24   H     H_    0.226535 0.572374 0.788659 0.133679

loop_
_geom_bond_atom_site_label_1
_geom_bond_atom_site_label_2
_ccdc_geom_bond_type
C9    H7    S    
C24   O7    A    
C11   C13   A    
C14   C18   A    
C11   H9    S    
C12   H10   S    
C2    O3    A    
C46   C47   A    
C23   O5    A    
C33   H1    S    
C34   H2    S    
C35   C37   A    
C37   C38   A    
C24   C26   S    
C48   H22   S    
C39   C44   A    
O7    Zn1   S    
C41   H16   S    
C3    C29   A    
C20   H12   S    
C47   H21   S    
C23   O8    A    
C42   C43   A    
O1    Zn1   S    
C10   H8    S    
O8    Zn2   S    
O2    Zn2   S    
C7    H5    S    
C50   H24   S    
C11   N1    A    
C40   C41   A    
C4    C7    A    
O3    Zn1   S    
O4    Zn2   S    
C13   C19   A    
C41   C42   A    
C14   C20   A    
C19   C22   A    
C45   C46   A    
C3    C8    A    
C5    C7    A    
C47   C48   A    
C6    C8    A    
C42   H17   S    
C1    C32   S    
C2    C31   S    
C32   C34   A    
C49   H23   S    
C30   C45   S    
C19   H11   S    
C40   H15   S    
C24   O6    A    
C31   C33   A    
C17   C18   A    
C43   H18   S    
C29   C39   S    
C12   C14   A    
C9    N1    A    
C21   H13   S    
C22   H14   S    
C15   C17   A    
C5    H3    S    
C16   C22   A    
O5    Zn1   S    
C8    H6    S    
C4    C38   A    
C49   C50   A    
C45   C50   A    
C25   C27   T    
C26   C28   T    
C13   C17   A    
O6    Zn2   S    
C36   C38   A    
C1    O1    A    
C29   C31   A    
C10   C16   A    
C1    O4    A    
C30   C32   A    
N1    Zn1   S    
N2    Zn2   S    
C46   H20   S    
C5    C35   A    
C33   C35   A    
C6    C36   A    
C34   C36   A    
C23   C25   S    
C9    C15   A    
C43   C44   A    
C10   N2    A    
C4    C30   A    
C48   C49   A    
C15   C21   A    
C20   C21   A    
C3    C37   A    
C16   C18   A    
C39   C40   A    
C6    H4    S    
C44   H19   S    
C2    O2    A    
C12   N2    A    
C27   C28   S    
