data_mof_unit_35584.cif
_audit_creation_date              2012-12-10T17:03:27-0500
_audit_creation_method            fapswitch 2.2
_symmetry_space_group_name_H-M    P1
_symmetry_Int_Tables_number       1
_space_group_crystal_system       triclinic
_cell_length_a                    15.07258
_cell_length_b                    11.018139
_cell_length_c                    10.002319
_cell_angle_alpha                 112.379198
_cell_angle_beta                  98.061196
_cell_angle_gamma                 92.751045
_cell_volume                      1511.46465033

loop_
_atom_site_label
_atom_site_type_symbol
_atom_type_description
_atom_site_fract_x
_atom_site_fract_y
_atom_site_fract_z
_atom_type_partial_charge
C1    C     C_R   0.494565 0.253565 0.438504 0.914511
C2    C     C_R   0.505031 0.746615 0.561224 0.839628
C3    C     C_R   0.028148 0.260725 0.410647 -0.073849
C4    C     C_R   0.977927 0.742944 0.667366 -0.096603
C5    C     C_2   0.484062 0.111180 0.398899 0.002437
C6    C     C_2   0.515297 0.889076 0.598166 -0.041160
C7    C     C_2   0.523785 0.058385 0.490895 -0.118555
C8    C     C_2   0.478953 0.938054 0.500264 -0.098416
C9    C     C_2   0.498720 0.524385 0.084071 0.053741
C10   C     C_2   0.482129 0.504993 0.922960 0.041614
C11   C     C_R   0.329702 0.501311 0.502064 0.835486
C12   C     C_R   0.670604 0.500192 0.498898 0.885752
C13   C     C_R   0.824609 0.619110 0.594357 -0.064224
C14   C     C_R   0.176479 0.383080 0.440191 -0.059410
C15   C     C_R   0.767655 0.504906 0.498606 -0.174957
C16   C     C_R   0.233713 0.501567 0.510218 -0.195860
C17   C     C_R   0.803684 0.392830 0.410198 -0.081075
C18   C     C_R   0.201638 0.619425 0.595497 -0.044736
C19   C     C_R   0.897374 0.385559 0.438893 -0.016753
C20   C     C_R   0.108555 0.621203 0.606419 -0.012278
C21   C     C_R   0.955446 0.503987 0.521671 0.070966
C22   C     C_R   0.049713 0.502409 0.528384 0.058724
C23   C     C_R   0.918926 0.623915 0.593544 0.003371
C24   C     C_R   0.084974 0.381064 0.457693 -0.003455
C25   C     C_R   0.934043 0.262634 0.394954 -0.082730
C26   C     C_R   0.071735 0.738406 0.688044 -0.099993
Cu1   Cu    Cu3+1 0.515770 0.521810 0.644910 1.117732
Cu2   Cu    Cu3+1 0.484230 0.478190 0.355090 1.099501
N1    N     N_2   0.460520 0.445420 0.137370 -0.134850
N2    N     N_2   0.539480 0.554580 0.862630 -0.131652
O1    O     O_R   0.508410 0.332340 0.577400 -0.528314
O2    O     O_R   0.491590 0.667660 0.422600 -0.562167
O3    O     O_R   0.481780 0.295500 0.332650 -0.551527
O4    O     O_R   0.518220 0.704500 0.667350 -0.541809
O5    O     O_R   0.383570 0.518390 0.622380 -0.556633
O6    O     O_R   0.616430 0.481610 0.377620 -0.538011
O7    O     O_R   0.356940 0.481550 0.377630 -0.553246
O8    O     O_R   0.643060 0.518450 0.622370 -0.549262
C27   C     C_2   0.784569 0.729156 0.699187 0.876155
O9    O     O_2   0.724410 0.781260 0.653488 -0.557000
O10   O     O_R   0.816192 0.772852 0.849829 -0.697695
H1    H     H_    0.783930 0.848301 0.909751 0.372817
C28   C     C_2   0.211399 0.265117 0.338066 0.882279
O11   O     O_2   0.277810 0.222318 0.381644 -0.544062
O12   O     O_R   0.167213 0.202503 0.192767 -0.703218
H2    H     H_    0.196459 0.122392 0.135151 0.366808
C29   C     C_2   0.744489 0.287488 0.283408 0.891619
O13   O     O_2   0.763066 0.256368 0.160355 -0.514052
O14   O     O_R   0.669599 0.221940 0.304895 -0.767725
H3    H     H_    0.635741 0.151345 0.210209 0.353294
C30   C     C_2   0.264431 0.742645 0.652003 0.803955
O15   O     O_2   0.252994 0.823803 0.597382 -0.569993
O16   O     O_R   0.334821 0.766802 0.768944 -0.682986
H4    H     H_    0.371888 0.855006 0.798350 0.350573
C31   C     C_2   0.875754 0.137364 0.356550 0.890219
O17   O     O_2   0.834593 0.123014 0.447357 -0.572386
O18   O     O_R   0.866942 0.037561 0.216308 -0.650650
H5    H     H_    0.824871 0.957850 0.203492 0.359269
C32   C     C_2   0.128884 0.855139 0.803209 0.930342
O19   O     O_2   0.169397 0.845596 0.912954 -0.521815
O20   O     O_R   0.136755 0.974816 0.785178 -0.689362
H6    H     H_    0.179509 0.045611 0.868726 0.362049
C33   C     C_2   0.067113 0.137272 0.404889 0.876819
O21   O     O_2   0.047244 0.034976 0.295440 -0.479320
O22   O     O_R   0.127880 0.139863 0.525455 -0.699334
H7    H     H_    0.149933 0.050700 0.509462 0.399010
C34   C     C_2   0.943598 0.874579 0.707801 0.912947
O23   O     O_2   0.957899 0.954255 0.835377 -0.488777
O24   O     O_R   0.893846 0.905886 0.598710 -0.698641
H8    H     H_    0.873034 0.997048 0.639228 0.386347
C35   C     C_2   0.381741 0.895488 0.435628 0.944308
O25   O     O_2   0.327708 0.977153 0.465945 -0.491945
O26   O     O_R   0.351867 0.765339 0.339012 -0.708832
H9    H     H_    0.284478 0.750985 0.302172 0.367270
C36   C     C_2   0.622444 0.097988 0.548697 0.941917
O27   O     O_2   0.673509 0.012364 0.531574 -0.522767
O28   O     O_R   0.657488 0.230765 0.619659 -0.716195
H10   H     H_    0.725180 0.243050 0.652926 0.368443
I1    I     I_    0.584540 0.012097 0.813981 -0.163179
I2    I     I_    0.409764 0.995101 0.183607 -0.096566
C37   C     C_2   0.389421 0.452529 0.845368 0.938007
O29   O     O_2   0.375069 0.346637 0.739823 -0.523099
O30   O     O_R   0.317637 0.521258 0.897746 -0.699705
H11   H     H_    0.257082 0.475378 0.836297 0.352815
C38   C     C_2   0.548920 0.653169 0.183621 0.939473
O31   O     O_2   0.522506 0.754425 0.178176 -0.562096
O32   O     O_R   0.629841 0.659653 0.274430 -0.713917
H12   H     H_    0.658514 0.753596 0.333591 0.369745
I3    I     I_    0.677444 0.574944 0.946253 -0.091863
I4    I     I_    0.402490 0.253309 0.005342 -0.121240

loop_
_geom_bond_atom_site_label_1
_geom_bond_atom_site_label_2
_ccdc_geom_bond_type
O32   H12   S    
C33   O22   S    
C7    C36   S    
O10   H1    S    
C31   O17   D    
C37   O29   D    
C6    I1    S    
C1    O3    A    
C7    C8    S    
C27   O10   S    
O28   H10   S    
C1    C5    S    
Cu2   N1    S    
C19   C21   A    
Cu1   O8    S    
C1    O1    A    
C13   C23   A    
C2    O2    A    
O26   H9    S    
C14   C24   A    
C11   O7    A    
C9    C38   S    
O30   H11   S    
C12   O6    A    
C9    C10   S    
C18   C20   A    
O20   H6    S    
C9    N1    D    
C2    O4    A    
C32   O19   D    
Cu1   O4    S    
C21   C22   A    
Cu1   N2    S    
C3    C24   A    
C2    C6    S    
N2    I3    S    
N1    I4    S    
C37   O30   S    
C18   C30   S    
C38   O32   S    
C21   C23   A    
C32   O20   S    
Cu1   O1    S    
C34   O23   D    
C25   C31   S    
Cu2   O2    S    
C29   O14   S    
C27   O9    D    
C5    C7    D    
C4    C23   A    
C6    C8    D    
Cu1   O5    S    
C38   O31   D    
C30   O15   D    
C34   O24   S    
C36   O27   D    
C36   O28   S    
C11   C16   S    
C10   N2    D    
C29   O13   D    
C12   C15   S    
C3    C25   A    
C5    I2    S    
C28   O12   S    
C20   C22   A    
Cu2   O3    S    
O22   H7    S    
C13   C15   A    
C28   O11   D    
C14   C16   A    
C35   O26   S    
C26   C32   S    
C15   C17   A    
C8    C35   S    
C17   C29   S    
C4    C34   S    
C4    C26   A    
O16   H4    S    
C3    C33   S    
C10   C37   S    
C31   O18   S    
C35   O25   D    
O18   H5    S    
C20   C26   A    
Cu2   O7    S    
C11   O5    A    
C17   C19   A    
C22   C24   A    
C12   O8    A    
O24   H8    S    
C19   C25   A    
C13   C27   S    
C33   O21   D    
O12   H2    S    
Cu2   O6    S    
C16   C18   A    
O14   H3    S    
Cu1   Cu2   S    
C30   O16   S    
C14   C28   S    
