data_mof_unit_10083.cif
_audit_creation_date              2012-12-10T16:33:54-0500
_audit_creation_method            fapswitch 2.2
_symmetry_space_group_name_H-M    P1
_symmetry_Int_Tables_number       1
_space_group_crystal_system       triclinic
_cell_length_a                    28.543917
_cell_length_b                    18.556133
_cell_length_c                    16.941601
_cell_angle_alpha                 90.003667
_cell_angle_beta                  61.12906
_cell_angle_gamma                 90.142963
_cell_volume                      7858.03306901

loop_
_atom_site_label
_atom_site_type_symbol
_atom_type_description
_atom_site_fract_x
_atom_site_fract_y
_atom_site_fract_z
_atom_type_partial_charge
C1    C     C_R   0.703841 0.274672 0.675008 0.941744
C2    C     C_R   0.298601 0.732818 0.323413 0.966875
C3    C     C_R   0.296738 0.273917 0.324550 0.968513
C4    C     C_R   0.701635 0.732458 0.676562 0.959630
C5    C     C_R   0.203895 0.774846 0.675113 0.949373
C6    C     C_R   0.798726 0.233004 0.323457 0.953689
C7    C     C_R   0.793293 0.778752 0.327886 0.952461
C8    C     C_R   0.201314 0.233043 0.676663 0.966010
C9    C     C_R   0.042328 0.375511 0.525980 0.276817
C10   C     C_R   0.939184 0.627554 0.550449 0.322575
C11   C     C_R   0.954830 0.375403 0.482509 0.276655
C12   C     C_R   0.058447 0.627497 0.456400 0.321200
C13   C     C_R   0.536034 0.876904 0.545398 0.289285
C14   C     C_R   0.437072 0.128808 0.554057 0.332962
C15   C     C_R   0.450244 0.874796 0.497496 0.275622
C16   C     C_R   0.556165 0.126010 0.460608 0.297327
C17   C     C_R   0.705334 0.250274 0.970212 -0.247051
C18   C     C_R   0.265866 0.705349 0.057856 -0.228602
C19   C     C_R   0.294257 0.250994 0.031840 -0.249808
C20   C     C_R   0.734562 0.701016 0.942506 -0.244823
C21   C     C_R   0.204283 0.748613 0.971725 -0.224329
C22   C     C_R   0.769694 0.216189 0.053895 -0.247118
C23   C     C_R   0.794175 0.738828 0.034095 -0.239708
C24   C     C_R   0.232705 0.209844 0.944803 -0.231916
C25   C     C_R   0.755315 0.214211 0.923352 0.399796
C26   C     C_R   0.211117 0.722899 0.108504 0.395125
C27   C     C_R   0.244721 0.213340 0.078380 0.346617
C28   C     C_R   0.790218 0.713518 0.894080 0.375460
C29   C     C_R   0.253003 0.709918 0.925417 0.358652
C30   C     C_R   0.714383 0.229385 0.105861 0.371395
C31   C     C_R   0.743570 0.703117 0.078806 0.371899
C32   C     C_R   0.287894 0.226002 0.894576 0.394033
C33   C     C_R   0.790590 0.213791 0.959119 0.345366
C34   C     C_R   0.184373 0.756394 0.066774 0.307118
C35   C     C_R   0.210858 0.206399 0.039590 0.349838
C36   C     C_R   0.817678 0.741851 0.937964 0.317410
C37   C     C_R   0.287079 0.701145 0.963401 0.333416
C38   C     C_R   0.685211 0.257812 0.065256 0.284606
C39   C     C_R   0.711191 0.698215 0.037513 0.366257
C40   C     C_R   0.315183 0.257736 0.936723 0.320701
C41   C     C_R   0.622224 0.296386 0.958158 0.366566
C42   C     C_R   0.339207 0.639874 0.075849 0.400243
C43   C     C_R   0.378743 0.293851 0.041611 0.388408
C44   C     C_R   0.661607 0.637281 0.923002 0.384816
C45   C     C_R   0.121852 0.797169 0.958880 0.339643
C46   C     C_R   0.842931 0.147472 0.068954 0.336051
C47   C     C_R   0.872955 0.796655 0.052097 0.377511
C48   C     C_R   0.159743 0.143099 0.926383 0.402556
C49   C     C_R   0.603708 0.332535 0.905532 -0.339901
C50   C     C_R   0.376177 0.639765 0.109666 -0.375607
C51   C     C_R   0.399111 0.327759 0.093129 -0.286351
C52   C     C_R   0.624382 0.638683 0.889883 -0.363190
C53   C     C_R   0.103556 0.832566 0.905715 -0.346826
C54   C     C_R   0.877524 0.142416 0.107505 -0.349376
C55   C     C_R   0.887217 0.843697 0.103309 -0.338269
C56   C     C_R   0.123303 0.141345 0.891361 -0.373824
C57   C     C_R   0.626142 0.315557 0.814987 0.295146
C58   C     C_R   0.367632 0.681407 0.183092 0.315744
C59   C     C_R   0.377131 0.307506 0.183274 0.308797
C60   C     C_R   0.633017 0.681099 0.817097 0.310861
C61   C     C_R   0.125787 0.814452 0.815655 0.308463
C62   C     C_R   0.867608 0.180677 0.183979 0.289091
C63   C     C_R   0.858070 0.842880 0.196069 0.305549
C64   C     C_R   0.131974 0.182478 0.817464 0.321287
C65   C     C_R   0.678558 0.290556 0.771849 -0.344348
C66   C     C_R   0.320332 0.718600 0.227063 -0.301623
C67   C     C_R   0.322535 0.290528 0.227685 -0.330798
C68   C     C_R   0.680814 0.717345 0.772478 -0.308224
C69   C     C_R   0.178517 0.790689 0.772254 -0.349300
C70   C     C_R   0.821020 0.219342 0.226980 -0.316218
C71   C     C_R   0.813148 0.800891 0.235029 -0.370781
C72   C     C_R   0.179311 0.219809 0.773341 -0.301702
C73   C     C_R   0.706685 0.286581 0.821889 0.406022
C74   C     C_R   0.291293 0.734622 0.180599 0.389019
C75   C     C_R   0.293943 0.291160 0.178200 0.391902
C76   C     C_R   0.710921 0.731576 0.817873 0.395884
C77   C     C_R   0.206309 0.786400 0.822951 0.429334
C78   C     C_R   0.793814 0.239063 0.178819 0.427387
C79   C     C_R   0.786921 0.785485 0.184026 0.393181
C80   C     C_R   0.208119 0.237063 0.820077 0.385604
C81   C     C_R   0.677431 0.277534 0.917665 -0.083862
C82   C     C_R   0.299344 0.693237 0.104509 -0.061709
C83   C     C_R   0.322654 0.279122 0.083169 -0.087462
C84   C     C_R   0.702181 0.689775 0.893991 -0.071647
C85   C     C_R   0.176727 0.776677 0.918855 -0.064981
C86   C     C_R   0.802924 0.200973 0.100073 -0.059601
C87   C     C_R   0.818672 0.772942 0.089335 -0.040574
C88   C     C_R   0.199525 0.196914 0.897470 -0.062528
C89   C     C_R   0.698766 0.129052 0.509791 0.920053
C90   C     C_R   0.300391 0.871506 0.491845 0.890030
C91   C     C_R   0.298349 0.129812 0.497241 0.985124
C92   C     C_R   0.695768 0.871965 0.518908 0.893990
C93   C     C_R   0.200155 0.629380 0.506383 0.967699
C94   C     C_R   0.801678 0.371794 0.488405 0.885053
C95   C     C_R   0.799333 0.629460 0.494906 0.973123
C96   C     C_R   0.197713 0.371951 0.513266 0.882640
C97   C     C_R   0.077312 0.094590 0.930488 0.983069
C98   C     C_R   0.930156 0.895604 0.062727 0.931578
C99   C     C_R   0.923242 0.095422 0.068889 0.978387
C100  C     C_R   0.066611 0.893091 0.940260 0.938149
C101  C     C_R   0.577399 0.594199 0.930312 0.992943
C102  C     C_R   0.433423 0.392528 0.059960 0.864710
C103  C     C_R   0.422600 0.594235 0.069709 0.989427
C104  C     C_R   0.566740 0.393125 0.940232 0.941164
C105  C     C_R   0.546132 0.002440 0.507124 -0.052503
C106  C     C_R   0.443064 0.002292 0.523023 -0.050751
C107  C     C_R   0.050409 0.502357 0.495360 -0.046097
C108  C     C_R   0.946921 0.502234 0.512857 -0.047142
C109  C     C_R   0.523091 0.066134 0.499045 -0.084094
C110  C     C_R   0.470064 0.937847 0.515282 -0.064558
C111  C     C_R   0.468161 0.066665 0.523325 -0.079546
C112  C     C_R   0.516865 0.938536 0.523587 -0.051776
C113  C     C_R   0.026200 0.566488 0.491838 -0.084150
C114  C     C_R   0.974880 0.437918 0.501059 -0.060209
C115  C     C_R   0.971174 0.566391 0.516622 -0.084865
C116  C     C_R   0.022179 0.438011 0.507908 -0.059288
C117  C     C_R   0.620204 0.935637 0.505961 -0.126851
C118  C     C_R   0.366745 0.068839 0.531706 -0.149700
C119  C     C_R   0.368975 0.935298 0.523706 -0.092570
C120  C     C_R   0.626044 0.068173 0.485617 -0.113386
C121  C     C_R   0.125307 0.435598 0.491512 -0.088588
C122  C     C_R   0.869392 0.568620 0.525681 -0.151793
C123  C     C_R   0.872519 0.435481 0.514383 -0.094747
C124  C     C_R   0.129076 0.568583 0.478406 -0.152169
C125  C     C_R   0.670692 0.936664 0.505741 -0.151719
C126  C     C_R   0.319941 0.066165 0.519805 -0.128283
C127  C     C_R   0.321023 0.936233 0.516107 -0.219964
C128  C     C_R   0.674521 0.065660 0.492710 -0.191429
C129  C     C_R   0.175156 0.436575 0.493325 -0.217887
C130  C     C_R   0.821914 0.565973 0.515528 -0.126357
C131  C     C_R   0.823476 0.436428 0.510110 -0.223349
C132  C     C_R   0.177117 0.565964 0.486744 -0.124753
C133  C     C_R   0.698905 0.000419 0.490158 0.304047
C134  C     C_R   0.293964 0.001018 0.526593 0.311095
C135  C     C_R   0.203045 0.501069 0.479130 0.310150
C136  C     C_R   0.795942 0.500937 0.522792 0.309883
C137  C     C_R   0.597472 0.002364 0.500335 -0.081151
C138  C     C_R   0.392697 0.002296 0.526186 -0.076947
C139  C     C_R   0.101703 0.502382 0.488801 -0.080305
C140  C     C_R   0.896110 0.502303 0.517478 -0.081484
C141  C     C_R   0.097578 0.370745 0.492459 0.480693
C142  C     C_R   0.890436 0.632454 0.548093 0.411989
C143  C     C_R   0.899710 0.370603 0.514679 0.485361
C144  C     C_R   0.108054 0.632271 0.455863 0.411775
C145  C     C_R   0.591283 0.870861 0.510570 0.480727
C146  C     C_R   0.387910 0.133238 0.552890 0.408989
C147  C     C_R   0.395365 0.870301 0.526598 0.479048
C148  C     C_R   0.605664 0.131065 0.460281 0.435377
O1    O     O_R   0.746490 0.236330 0.638080 -0.613608
O2    O     O_R   0.253510 0.763670 0.361920 -0.580137
O3    O     O_R   0.253510 0.236330 0.361920 -0.612812
O4    O     O_R   0.746490 0.763670 0.638080 -0.587189
O5    O     O_R   0.246490 0.736330 0.638080 -0.605043
O6    O     O_R   0.753510 0.263670 0.361920 -0.579404
O7    O     O_R   0.753510 0.736330 0.361920 -0.629315
O8    O     O_R   0.246490 0.263670 0.638080 -0.580920
O9    O     O_R   0.674170 0.186160 0.516270 -0.631738
O10   O     O_R   0.325830 0.813840 0.483730 -0.594629
O11   O     O_R   0.325830 0.186160 0.483730 -0.650873
O12   O     O_R   0.674170 0.813840 0.516270 -0.615212
O13   O     O_R   0.174170 0.686160 0.516270 -0.658961
O14   O     O_R   0.825830 0.313840 0.483730 -0.594572
O15   O     O_R   0.825830 0.686160 0.483730 -0.647581
O16   O     O_R   0.174170 0.313840 0.516270 -0.592076
O17   O     O_R   0.739960 0.127620 0.525000 -0.610094
O18   O     O_R   0.260040 0.872380 0.475000 -0.613817
O19   O     O_R   0.260040 0.127620 0.475000 -0.573876
O20   O     O_R   0.739960 0.872380 0.525000 -0.574904
O21   O     O_R   0.239960 0.627620 0.525000 -0.577739
O22   O     O_R   0.760040 0.372380 0.475000 -0.608768
O23   O     O_R   0.760040 0.627620 0.475000 -0.574351
O24   O     O_R   0.239960 0.372380 0.525000 -0.615096
O25   O     O_R   0.680700 0.294870 0.629350 -0.587501
O26   O     O_R   0.319300 0.705130 0.370650 -0.580626
O27   O     O_R   0.319300 0.294870 0.370650 -0.634904
O28   O     O_R   0.680700 0.705130 0.629350 -0.582589
O29   O     O_R   0.180700 0.794870 0.629350 -0.591871
O30   O     O_R   0.819300 0.205130 0.370650 -0.601320
O31   O     O_R   0.819300 0.794870 0.370650 -0.581472
O32   O     O_R   0.180700 0.205130 0.629350 -0.580034
O33   O     O_R   0.062020 0.072840 0.007170 -0.594908
O34   O     O_R   0.937980 0.927160 0.992830 -0.640127
O35   O     O_R   0.937980 0.072840 0.992830 -0.578025
O36   O     O_R   0.062020 0.927160 0.007170 -0.622871
O37   O     O_R   0.562020 0.572840 0.007170 -0.590099
O38   O     O_R   0.437980 0.427160 0.992830 -0.624083
O39   O     O_R   0.437980 0.572840 0.992830 -0.589483
O40   O     O_R   0.562020 0.427160 0.007170 -0.637455
O41   O     O_R   0.947860 0.073950 0.109290 -0.603283
O42   O     O_R   0.052140 0.926050 0.890710 -0.589819
O43   O     O_R   0.052140 0.073950 0.890710 -0.580546
O44   O     O_R   0.947860 0.926050 0.109290 -0.581714
O45   O     O_R   0.447860 0.573950 0.109290 -0.585148
O46   O     O_R   0.552140 0.426050 0.890710 -0.580770
O47   O     O_R   0.552140 0.573950 0.890710 -0.578802
O48   O     O_R   0.447860 0.426050 0.109290 -0.667706
Zn1   Zn    Zn3+2 0.792340 0.208750 0.507670 0.956136
Zn2   Zn    Zn3+2 0.207660 0.791250 0.492330 0.966706
Zn3   Zn    Zn3+2 0.207660 0.208750 0.492330 0.996484
Zn4   Zn    Zn3+2 0.792340 0.791250 0.507670 0.979471
Zn5   Zn    Zn3+2 0.292340 0.708750 0.507670 0.993041
Zn6   Zn    Zn3+2 0.707660 0.291250 0.492330 0.969923
Zn7   Zn    Zn3+2 0.707660 0.708750 0.492330 0.985167
Zn8   Zn    Zn3+2 0.292340 0.291250 0.507670 0.942923
Zn9   Zn    Zn3+2 0.505960 0.500000 0.080520 0.956341
Zn10  Zn    Zn3+2 0.494040 0.500000 0.919480 0.999436
Zn11  Zn    Zn3+2 0.005960 0.000000 0.080520 0.974046
Zn12  Zn    Zn3+2 0.994040 0.000000 0.919480 0.997086
O49   O     O_3   0.751542 0.998198 0.471547 -0.745314
H1    H     H_    0.771519 0.032985 0.422120 0.321276
O50   O     O_3   0.241468 0.002112 0.543773 -0.726475
H2    H     H_    0.221847 0.963780 0.588662 0.337566
O51   O     O_3   0.256439 0.502156 0.456864 -0.732179
H3    H     H_    0.274818 0.464192 0.410915 0.323369
O52   O     O_3   0.742888 0.501870 0.543035 -0.725536
H4    H     H_    0.723949 0.463864 0.588840 0.337723
O53   O     O_3   0.126555 0.314096 0.434539 -0.602785
C149  C     C_3   0.097520 0.248548 0.452491 0.156648
H5    H     H_    0.064329 0.253535 0.436514 0.195315
H6    H     H_    0.082389 0.231410 0.523719 0.182889
C150  C     C_3   0.133228 0.189297 0.392411 -0.798426
H7    H     H_    0.161797 0.173000 0.415577 0.260082
H8    H     H_    0.108716 0.141493 0.396261 0.184710
H9    H     H_    0.154799 0.208430 0.321721 0.328887
O54   O     O_3   0.858573 0.692921 0.588171 -0.563271
C151  C     C_3   0.886166 0.759123 0.549931 0.277979
H10   H     H_    0.868813 0.785895 0.511904 0.140821
H11   H     H_    0.929351 0.753711 0.499829 0.127134
C152  C     C_3   0.879411 0.810900 0.624297 -0.742015
H12   H     H_    0.890857 0.784672 0.671125 0.316445
H13   H     H_    0.904866 0.859337 0.594573 0.161125
H14   H     H_    0.837154 0.828203 0.662493 0.280751
O55   O     O_3   0.870143 0.313193 0.570984 -0.600712
C153  C     C_3   0.899204 0.247871 0.553424 0.154956
H15   H     H_    0.932200 0.253173 0.569921 0.192497
H16   H     H_    0.914635 0.230921 0.482108 0.179872
C154  C     C_3   0.863528 0.188142 0.613308 -0.780861
H17   H     H_    0.834273 0.172116 0.591431 0.261261
H18   H     H_    0.888065 0.140221 0.608215 0.182578
H19   H     H_    0.842739 0.206618 0.684160 0.337855
O56   O     O_3   0.140524 0.691993 0.412921 -0.568708
C155  C     C_3   0.114182 0.759141 0.448764 0.256530
H20   H     H_    0.133340 0.787175 0.483130 0.143306
H21   H     H_    0.071395 0.754935 0.501352 0.126112
C156  C     C_3   0.119889 0.808851 0.373000 -0.700339
H22   H     H_    0.103993 0.783160 0.331730 0.317333
H23   H     H_    0.097629 0.859607 0.401876 0.149404
H24   H     H_    0.162590 0.822382 0.328886 0.289363
O57   O     O_3   0.618399 0.815252 0.449378 -0.608734
C157  C     C_3   0.590359 0.748711 0.471881 0.157975
H25   H     H_    0.555016 0.751452 0.461400 0.202791
H26   H     H_    0.578331 0.732806 0.542501 0.176630
C158  C     C_3   0.625487 0.689712 0.410000 -0.809257
H27   H     H_    0.656671 0.675809 0.428095 0.262312
H28   H     H_    0.601134 0.640646 0.418442 0.188505
H29   H     H_    0.644039 0.707520 0.338658 0.316618
O58   O     O_3   0.355576 0.193487 0.593237 -0.571894
C159  C     C_3   0.382767 0.260341 0.557551 0.265805
H30   H     H_    0.363089 0.289513 0.525109 0.136070
H31   H     H_    0.425186 0.255419 0.503727 0.129249
C160  C     C_3   0.378704 0.309631 0.632603 -0.701389
H32   H     H_    0.393734 0.283257 0.674570 0.320201
H33   H     H_    0.402383 0.359449 0.602932 0.148989
H34   H     H_    0.336518 0.325046 0.676288 0.288379
O59   O     O_3   0.364870 0.811663 0.579156 -0.594957
C161  C     C_3   0.394422 0.746902 0.563796 0.159850
H35   H     H_    0.425465 0.752979 0.584948 0.187832
H36   H     H_    0.412411 0.730448 0.491845 0.183078
C162  C     C_3   0.358503 0.685914 0.620294 -0.782695
H37   H     H_    0.331262 0.668727 0.594585 0.261147
H38   H     H_    0.383206 0.638822 0.617467 0.179337
H39   H     H_    0.335440 0.703844 0.690824 0.333639
O60   O     O_3   0.638433 0.190005 0.415582 -0.572432
C163  C     C_3   0.612831 0.257783 0.449668 0.243805
H40   H     H_    0.632233 0.285875 0.483644 0.141703
H41   H     H_    0.569846 0.254620 0.501560 0.128963
C164  C     C_3   0.619598 0.306560 0.372493 -0.708289
H42   H     H_    0.603301 0.280642 0.331943 0.305409
H43   H     H_    0.598148 0.358088 0.399876 0.155089
H44   H     H_    0.662584 0.318707 0.328150 0.295506
O61   O     O_3   0.009353 0.320413 0.578194 -0.821801
H45   H     H_    0.973275 0.340665 0.617104 0.333704
O62   O     O_3   0.952397 0.681162 0.593166 -0.763814
H46   H     H_    0.977314 0.661893 0.613132 0.327565
O63   O     O_3   0.987891 0.320772 0.429868 -0.826987
H47   H     H_    0.023926 0.341427 0.390834 0.332128
O64   O     O_3   0.044695 0.680704 0.414144 -0.768773
H48   H     H_    0.020189 0.660619 0.393656 0.327363
O65   O     O_3   0.502559 0.822364 0.598137 -0.832821
H49   H     H_    0.466259 0.842654 0.635205 0.329729
O66   O     O_3   0.451592 0.183631 0.593333 -0.768754
H50   H     H_    0.475605 0.164654 0.615389 0.327247
O67   O     O_3   0.483758 0.820139 0.445757 -0.824227
H51   H     H_    0.519874 0.840759 0.407110 0.338633
O68   O     O_3   0.543092 0.177895 0.415867 -0.778739
H52   H     H_    0.519387 0.156502 0.394458 0.327844
O69   O     O_3   0.635750 0.286746 0.121850 -0.527088
C165  C     C_3   0.641926 0.361463 0.128312 0.174866
H53   H     H_    0.656803 0.387179 0.061255 0.140062
H54   H     H_    0.669902 0.372880 0.155148 0.130850
C166  C     C_3   0.587974 0.394553 0.191945 -0.777796
H55   H     H_    0.571241 0.369569 0.259728 0.238201
H56   H     H_    0.592740 0.453388 0.197915 0.203713
H57   H     H_    0.559641 0.385936 0.165505 0.274150
O70   O     O_3   0.339737 0.682119 0.908132 -0.512081
C167  C     C_3   0.368573 0.743887 0.861314 0.109216
H58   H     H_    0.363813 0.788461 0.908814 0.094510
H59   H     H_    0.355370 0.762324 0.812754 0.185797
C168  C     C_3   0.427526 0.725141 0.808355 -0.796876
H60   H     H_    0.434081 0.683573 0.756871 0.262416
H61   H     H_    0.450704 0.774168 0.774129 0.217094
H62   H     H_    0.441661 0.704241 0.854594 0.261481
O71   O     O_3   0.364367 0.288572 0.881509 -0.519761
C169  C     C_3   0.357756 0.363750 0.881578 0.154527
H63   H     H_    0.344512 0.386120 0.949844 0.139273
H64   H     H_    0.328151 0.377779 0.859356 0.123619
C170  C     C_3   0.410905 0.398656 0.817206 -0.778471
H65   H     H_    0.425359 0.377948 0.747826 0.235513
H66   H     H_    0.405994 0.458002 0.817171 0.207727
H67   H     H_    0.440980 0.386423 0.838944 0.280091
O72   O     O_3   0.657210 0.685425 0.092070 -0.500106
C171  C     C_3   0.629360 0.751219 0.107851 0.134663
H68   H     H_    0.651427 0.797322 0.116859 0.112319
H69   H     H_    0.621845 0.763444 0.050674 0.105319
C172  C     C_3   0.575948 0.744439 0.193610 -0.788808
H70   H     H_    0.582577 0.732096 0.251627 0.264467
H71   H     H_    0.553705 0.795936 0.207062 0.194262
H72   H     H_    0.551793 0.700547 0.186353 0.261956
O73   O     O_3   0.137096 0.790712 0.123004 -0.514705
C173  C     C_3   0.146810 0.865423 0.119123 0.167607
H73   H     H_    0.159222 0.886355 0.050430 0.140628
H74   H     H_    0.178270 0.877961 0.137816 0.118966
C174  C     C_3   0.095652 0.903806 0.184874 -0.752303
H75   H     H_    0.082609 0.885186 0.254686 0.232155
H76   H     H_    0.102704 0.962874 0.181295 0.202528
H77   H     H_    0.063370 0.892460 0.167837 0.286959
O74   O     O_3   0.844412 0.205191 0.899696 -0.507886
C175  C     C_3   0.871557 0.270523 0.893059 0.146948
H78   H     H_    0.881994 0.274062 0.948232 0.117294
H79   H     H_    0.847679 0.318896 0.895908 0.096448
C176  C     C_3   0.922864 0.272038 0.803275 -0.787176
H80   H     H_    0.913214 0.266946 0.747388 0.261383
H81   H     H_    0.944335 0.323676 0.795837 0.193410
H82   H     H_    0.949099 0.226587 0.799420 0.264574
O75   O     O_3   0.869553 0.764243 0.883688 -0.507520
C177  C     C_3   0.868788 0.836634 0.859869 0.169179
H83   H     H_    0.852225 0.870796 0.921196 0.129573
H84   H     H_    0.844751 0.843082 0.824847 0.144436
C178  C     C_3   0.925563 0.861333 0.795948 -0.800224
H85   H     H_    0.944354 0.824377 0.737390 0.256053
H86   H     H_    0.925130 0.916384 0.770745 0.188247
H87   H     H_    0.949634 0.861998 0.831369 0.280519
O76   O     O_3   0.157774 0.188652 0.094473 -0.506734
C179  C     C_3   0.130040 0.250674 0.141964 0.113391
H88   H     H_    0.148455 0.274881 0.180624 0.181032
H89   H     H_    0.129084 0.291490 0.094535 0.097443
C180  C     C_3   0.072995 0.229748 0.209115 -0.801067
H90   H     H_    0.072898 0.191167 0.259328 0.263423
H91   H     H_    0.050343 0.278552 0.244844 0.210904
H92   H     H_    0.053319 0.204233 0.173424 0.261459
O77   O     O_3   0.771719 0.180542 0.841323 -0.532558
C181  C     C_3   0.737079 0.122040 0.853000 0.090713
H93   H     H_    0.694671 0.138991 0.882588 0.113563
H94   H     H_    0.740049 0.080335 0.897470 0.116837
C182  C     C_3   0.752222 0.089187 0.761766 -0.821264
H95   H     H_    0.791710 0.062189 0.733849 0.253343
H96   H     H_    0.721082 0.050213 0.768146 0.205999
H97   H     H_    0.754068 0.131466 0.714779 0.293539
O78   O     O_3   0.182761 0.707833 0.199692 -0.524450
C183  C     C_3   0.172231 0.632683 0.211090 0.180835
H98   H     H_    0.163624 0.617297 0.279556 0.193774
H99   H     H_    0.207108 0.599334 0.166012 0.094974
C184  C     C_3   0.124111 0.612214 0.199481 -0.883028
H100  H     H_    0.090918 0.650591 0.236484 0.299426
H101  H     H_    0.135420 0.613043 0.126982 0.219129
H102  H     H_    0.110416 0.556978 0.225972 0.210419
O79   O     O_3   0.227626 0.183102 0.162528 -0.538136
C185  C     C_3   0.260412 0.123415 0.153931 0.123179
H103  H     H_    0.303050 0.139326 0.125514 0.111298
H104  H     H_    0.256960 0.081317 0.110378 0.127216
C186  C     C_3   0.243108 0.091333 0.246355 -0.806781
H105  H     H_    0.204681 0.061778 0.270954 0.246998
H106  H     H_    0.274565 0.055128 0.243848 0.208953
H107  H     H_    0.238284 0.134240 0.294173 0.295476
O80   O     O_3   0.818888 0.699306 0.802707 -0.526385
C187  C     C_3   0.828454 0.624159 0.790222 0.189004
H108  H     H_    0.838293 0.610468 0.720703 0.186002
H109  H     H_    0.792613 0.591349 0.833000 0.096659
C188  C     C_3   0.875128 0.601131 0.804600 -0.866876
H110  H     H_    0.909282 0.638898 0.769949 0.302276
H111  H     H_    0.862385 0.600360 0.877685 0.227794
H112  H     H_    0.888236 0.546038 0.777347 0.204952
O81   O     O_3   0.268082 0.679366 0.842449 -0.557275
C189  C     C_3   0.243083 0.611424 0.853717 0.121183
H113  H     H_    0.212712 0.597834 0.924612 0.088487
H114  H     H_    0.274939 0.569984 0.830211 0.172328
C190  C     C_3   0.215625 0.607491 0.795752 -0.822407
H115  H     H_    0.244983 0.617722 0.724089 0.283288
H116  H     H_    0.197345 0.553840 0.801151 0.201209
H117  H     H_    0.182686 0.647080 0.819320 0.227094
O82   O     O_3   0.688219 0.215308 0.197266 -0.539871
C191  C     C_3   0.669472 0.143047 0.212385 0.228715
H118  H     H_    0.670244 0.115730 0.152922 0.052099
H119  H     H_    0.626892 0.143857 0.264990 0.197540
C192  C     C_3   0.700511 0.097541 0.246807 -0.860434
H120  H     H_    0.675566 0.051452 0.286788 0.206172
H121  H     H_    0.737356 0.075688 0.190490 0.186962
H122  H     H_    0.712482 0.129784 0.289201 0.299748
O83   O     O_3   0.723202 0.674394 0.164433 -0.517382
C193  C     C_3   0.755505 0.616221 0.162482 0.109810
H123  H     H_    0.798254 0.632050 0.134312 0.125573
H124  H     H_    0.752547 0.571294 0.121726 0.131281
C194  C     C_3   0.736122 0.590079 0.258238 -0.792739
H125  H     H_    0.698641 0.558339 0.282337 0.242731
H126  H     H_    0.767346 0.557608 0.262415 0.210218
H127  H     H_    0.728524 0.636519 0.302769 0.298668
O84   O     O_3   0.316327 0.210152 0.803716 -0.527018
C195  C     C_3   0.325459 0.134759 0.793569 0.180405
H128  H     H_    0.333781 0.119017 0.725531 0.191932
H129  H     H_    0.289903 0.102371 0.838573 0.095457
C196  C     C_3   0.373075 0.112988 0.805765 -0.879973
H130  H     H_    0.360861 0.111024 0.878536 0.222291
H131  H     H_    0.387264 0.058637 0.776669 0.209227
H132  H     H_    0.406230 0.152267 0.771746 0.301158
O85   O     O_3   0.584329 0.271565 0.041745 -0.543433
C197  C     C_3   0.576070 0.197218 0.034175 0.149391
H133  H     H_    0.613170 0.165880 0.015097 0.119592
H134  H     H_    0.562414 0.187784 0.983470 0.101387
C198  C     C_3   0.533474 0.168383 0.124382 -0.816384
H135  H     H_    0.494869 0.195435 0.143846 0.289251
H136  H     H_    0.528240 0.109572 0.119167 0.188805
H137  H     H_    0.545687 0.177739 0.176653 0.265869
O86   O     O_3   0.343215 0.588966 0.013276 -0.516046
C199  C     C_3   0.311327 0.528146 0.057336 0.158384
H138  H     H_    0.283421 0.535593 0.130802 0.077486
H139  H     H_    0.338166 0.482751 0.050903 0.148495
C200  C     C_3   0.278846 0.507527 0.011055 -0.894035
H140  H     H_    0.305473 0.502828 0.937244 0.261310
H141  H     H_    0.258333 0.455212 0.037565 0.195971
H142  H     H_    0.248434 0.549256 0.023050 0.236867
O87   O     O_3   0.415511 0.260946 0.962544 -0.553489
C201  C     C_3   0.417103 0.186532 0.980042 0.164033
H143  H     H_    0.380999 0.158973 0.986074 0.125345
H144  H     H_    0.419529 0.177069 0.043065 0.133700
C202  C     C_3   0.465817 0.151674 0.903002 -0.890732
H145  H     H_    0.502581 0.170210 0.903637 0.221035
H146  H     H_    0.463058 0.092205 0.911439 0.209269
H147  H     H_    0.468069 0.165297 0.837518 0.271326
O88   O     O_3   0.656325 0.587069 0.987226 -0.519296
C203  C     C_3   0.687640 0.525540 0.945321 0.162378
H148  H     H_    0.714985 0.531086 0.871353 0.078215
H149  H     H_    0.660352 0.479836 0.954450 0.156654
C204  C     C_3   0.720567 0.506850 0.991375 -0.896964
H150  H     H_    0.694190 0.502950 0.065383 0.265540
H151  H     H_    0.741153 0.454581 0.965866 0.194130
H152  H     H_    0.750976 0.549099 0.978142 0.236065
O89   O     O_3   0.084377 0.780581 0.046128 -0.536948
C205  C     C_3   0.067513 0.708630 0.048619 0.153115
H153  H     H_    0.099635 0.670759 0.040626 0.140546
H154  H     H_    0.056709 0.697537 0.994686 0.083704
C206  C     C_3   0.018231 0.694670 0.139134 -0.814598
H155  H     H_    0.985041 0.730332 0.146988 0.247020
H156  H     H_    0.005397 0.637635 0.143158 0.191602
H157  H     H_    0.027322 0.705610 0.194756 0.276017
O90   O     O_3   0.854200 0.107635 0.992834 -0.515643
C207  C     C_3   0.816102 0.052496 0.013121 0.164694
H158  H     H_    0.774905 0.074050 0.041589 0.112264
H159  H     H_    0.818382 0.012544 0.060216 0.103635
C208  C     C_3   0.828342 0.015135 0.925705 -0.830537
H160  H     H_    0.869262 0.992492 0.894945 0.259696
H161  H     H_    0.798517 0.971874 0.938828 0.171086
H162  H     H_    0.826906 0.054406 0.877542 0.289261
O91   O     O_3   0.913164 0.765362 0.975635 -0.548790
C209  C     C_3   0.939993 0.713420 0.000488 0.103501
H163  H     H_    0.977633 0.737549 0.992560 0.115540
H164  H     H_    0.916365 0.693462 0.071400 0.120276
C210  C     C_3   0.953296 0.648233 0.939055 -0.837850
H165  H     H_    0.974691 0.665021 0.867352 0.262218
H166  H     H_    0.978991 0.610540 0.951996 0.192989
H167  H     H_    0.915835 0.619931 0.952660 0.248244
O92   O     O_3   0.155674 0.092933 0.989803 -0.515598
C211  C     C_3   0.186651 0.031429 0.946641 0.153872
H168  H     H_    0.213569 0.037484 0.872546 0.076177
H169  H     H_    0.159131 0.985955 0.956045 0.156667
C212  C     C_3   0.220402 0.011962 0.990904 -0.896311
H170  H     H_    0.194615 0.006636 0.064860 0.266673
H171  H     H_    0.241536 0.960343 0.963337 0.196530
H172  H     H_    0.250411 0.054598 0.978315 0.237676
O93   O     O_3   0.601159 0.335580 0.765666 -0.548966
C213  C     C_3   0.559685 0.286232 0.782630 0.169905
H173  H     H_    0.525564 0.294660 0.851479 0.171698
H174  H     H_    0.573908 0.229423 0.775147 0.110357
C214  C     C_3   0.540243 0.298810 0.714538 -0.790583
H175  H     H_    0.572385 0.284578 0.646153 0.227263
H176  H     H_    0.504593 0.264868 0.731124 0.224159
H177  H     H_    0.529562 0.356326 0.714890 0.248710
O94   O     O_3   0.403908 0.682195 0.215488 -0.548671
C215  C     C_3   0.439205 0.741656 0.178254 0.100838
H178  H     H_    0.432756 0.774922 0.129280 0.087889
H179  H     H_    0.480702 0.720681 0.141082 0.155050
C216  C     C_3   0.434892 0.790585 0.253675 -0.790306
H180  H     H_    0.442266 0.759358 0.302534 0.275801
H181  H     H_    0.464896 0.834631 0.225015 0.190271
H182  H     H_    0.394468 0.815020 0.289346 0.244236
O95   O     O_3   0.409598 0.276203 0.214094 -0.604497
C217  C     C_3   0.433801 0.328307 0.243680 0.209846
H183  H     H_    0.408396 0.377085 0.272697 0.145458
H184  H     H_    0.473391 0.343305 0.186856 0.181576
C218  C     C_3   0.444454 0.295630 0.315880 -0.876118
H185  H     H_    0.476008 0.253976 0.286482 0.259680
H186  H     H_    0.457949 0.338231 0.346479 0.191564
H187  H     H_    0.407674 0.270141 0.369030 0.278879
O96   O     O_3   0.596124 0.683979 0.786143 -0.545010
C219  C     C_3   0.563669 0.745980 0.821488 0.097500
H188  H     H_    0.577113 0.784454 0.857412 0.087056
H189  H     H_    0.522565 0.728208 0.870620 0.143759
C220  C     C_3   0.561604 0.786862 0.745358 -0.788247
H190  H     H_    0.549335 0.750097 0.706895 0.275108
H191  H     H_    0.532420 0.831689 0.773399 0.194393
H192  H     H_    0.601546 0.809852 0.699120 0.242969
O97   O     O_3   0.099107 0.829246 0.767557 -0.547354
C221  C     C_3   0.058307 0.777489 0.788932 0.164003
H193  H     H_    0.020763 0.797191 0.846802 0.171064
H194  H     H_    0.068152 0.723404 0.805978 0.099885
C222  C     C_3   0.049178 0.767918 0.708159 -0.841376
H195  H     H_    0.013706 0.733105 0.726523 0.214425
H196  H     H_    0.042639 0.821055 0.685004 0.251629
H197  H     H_    0.084553 0.741977 0.652130 0.258391
O98   O     O_3   0.903000 0.179305 0.218157 -0.559918
C223  C     C_3   0.938760 0.238548 0.183373 0.110379
H198  H     H_    0.929211 0.278048 0.143320 0.088920
H199  H     H_    0.979464 0.217464 0.138094 0.148451
C224  C     C_3   0.939715 0.279178 0.260653 -0.786450
H200  H     H_    0.948854 0.241724 0.302502 0.271042
H201  H     H_    0.970701 0.322115 0.233411 0.193230
H202  H     H_    0.900329 0.304785 0.303418 0.253728
O99   O     O_3   0.874872 0.880411 0.248717 -0.547511
C225  C     C_3   0.848849 0.947820 0.271659 0.145495
H203  H     H_    0.805834 0.940029 0.320368 0.131780
H204  H     H_    0.852000 0.976790 0.211579 0.102700
C226  C     C_3   0.875293 0.994526 0.313098 -0.696141
H205  H     H_    0.919311 0.995629 0.268596 0.260206
H206  H     H_    0.860391 0.050682 0.321286 0.219074
H207  H     H_    0.866482 0.972512 0.379833 0.237532
O100  O     O_3   0.096247 0.181540 0.783902 -0.547847
C227  C     C_3   0.058964 0.238450 0.822810 0.114374
H208  H     H_    0.059458 0.265511 0.881389 0.083428
H209  H     H_    0.018173 0.215622 0.848581 0.164065
C228  C     C_3   0.067991 0.294812 0.751367 -0.809918
H210  H     H_    0.065986 0.269305 0.693748 0.281253
H211  H     H_    0.036724 0.337013 0.780754 0.196520
H212  H     H_    0.107695 0.320793 0.726758 0.232855
O101  O     O_3   0.761195 0.299892 0.779704 -0.536109
C229  C     C_3   0.770568 0.373937 0.756838 0.178224
H213  H     H_    0.736890 0.409528 0.802850 0.069518
H214  H     H_    0.777083 0.381641 0.687343 0.157296
C230  C     C_3   0.820178 0.398953 0.760918 -0.815290
H215  H     H_    0.854153 0.361903 0.722750 0.283271
H216  H     H_    0.831578 0.453955 0.731862 0.195054
H217  H     H_    0.811724 0.400496 0.831977 0.217689
O102  O     O_3   0.258022 0.793725 0.206917 -0.543113
C231  C     C_3   0.284761 0.850543 0.145917 0.100585
H218  H     H_    0.278545 0.846338 0.086185 0.118704
H219  H     H_    0.328714 0.851993 0.122462 0.112645
C232  C     C_3   0.261951 0.921338 0.192158 -0.870679
H220  H     H_    0.270218 0.928183 0.249414 0.269574
H221  H     H_    0.281369 0.965239 0.142400 0.204067
H222  H     H_    0.218107 0.923225 0.218130 0.252927
O103  O     O_3   0.239521 0.304645 0.220853 -0.544203
C233  C     C_3   0.230715 0.378294 0.245512 0.163539
H223  H     H_    0.264572 0.414103 0.200012 0.067720
H224  H     H_    0.224429 0.384540 0.315068 0.153771
C234  C     C_3   0.181135 0.404611 0.242442 -0.842367
H225  H     H_    0.145858 0.371096 0.286352 0.278057
H226  H     H_    0.172802 0.461419 0.265717 0.202111
H227  H     H_    0.187642 0.401556 0.172454 0.219460
O104  O     O_3   0.746026 0.789048 0.790649 -0.536808
C235  C     C_3   0.719987 0.847464 0.848853 0.094749
H228  H     H_    0.718850 0.839681 0.914835 0.114320
H229  H     H_    0.678280 0.854988 0.860572 0.112398
C236  C     C_3   0.750415 0.916231 0.807190 -0.886389
H230  H     H_    0.749633 0.927519 0.743471 0.270850
H231  H     H_    0.731084 0.960571 0.855925 0.208803
H232  H     H_    0.792508 0.912233 0.792498 0.246533
O105  O     O_3   0.260628 0.800780 0.781408 -0.541372
C237  C     C_3   0.268476 0.876262 0.769188 0.168083
H233  H     H_    0.234475 0.908390 0.820962 0.075199
H234  H     H_    0.273918 0.891146 0.701804 0.154053
C238  C     C_3   0.318173 0.898209 0.774893 -0.863159
H235  H     H_    0.325455 0.956901 0.761651 0.205014
H236  H     H_    0.312360 0.886329 0.843274 0.219552
H237  H     H_    0.353762 0.868524 0.724646 0.270990
O106  O     O_3   0.762615 0.300151 0.204366 -0.542815
C239  C     C_3   0.793359 0.356670 0.146587 0.086033
H238  H     H_    0.793524 0.353192 0.080918 0.120985
H239  H     H_    0.835565 0.356893 0.134158 0.110705
C240  C     C_3   0.768930 0.427591 0.189779 -0.860202
H240  H     H_    0.766264 0.430842 0.257301 0.275502
H241  H     H_    0.795074 0.471410 0.146127 0.199685
H242  H     H_    0.728340 0.433111 0.197056 0.246426
O107  O     O_3   0.731868 0.792623 0.223085 -0.541009
C241  C     C_3   0.716667 0.864144 0.254055 0.162819
H243  H     H_    0.746789 0.905125 0.210248 0.067246
H244  H     H_    0.711047 0.869128 0.323404 0.170075
C242  C     C_3   0.664131 0.881780 0.255731 -0.792524
H245  H     H_    0.635650 0.836013 0.283736 0.284843
H246  H     H_    0.645698 0.929959 0.298217 0.203848
H247  H     H_    0.671639 0.893361 0.186328 0.203718
O108  O     O_3   0.242358 0.295404 0.791741 -0.541739
C243  C     C_3   0.216103 0.353606 0.849988 0.106813
H248  H     H_    0.217095 0.347280 0.914428 0.118386
H249  H     H_    0.173598 0.359092 0.865040 0.115401
C244  C     C_3   0.244579 0.422973 0.806160 -0.877931
H250  H     H_    0.237956 0.436306 0.748402 0.266790
H251  H     H_    0.227938 0.465578 0.857966 0.196893
H252  H     H_    0.288126 0.418921 0.781635 0.250168

loop_
_geom_bond_atom_site_label_1
_geom_bond_atom_site_label_2
_ccdc_geom_bond_type
C171  H69   S    
C167  H59   S    
C180  H90   S    
C80   O108  S    
C227  C228  S    
O89   C205  S    
O66   H50   S    
C147  O59   S    
C79   C87   A    
O74   C175  S    
C61   C69   A    
C230  H215  S    
C102  O38   A    
C142  O54   S    
O33   Zn11  S    
C13   C112  A    
C190  H116  S    
C12   O64   S    
C232  H220  S    
C101  O37   A    
C238  H237  S    
C171  C172  S    
C157  H26   S    
C163  C164  S    
C30   C38   A    
C30   O82   S    
C223  H198  S    
O105  C237  S    
O88   C203  S    
O84   C195  S    
C107  C113  A    
C155  H21   S    
C229  C230  S    
O103  C233  S    
C106  C111  A    
C233  C234  S    
C240  H241  S    
C26   O78   S    
C50   C103  S    
C194  H126  S    
C156  H22   S    
C80   C88   A    
O28   Zn7   S    
O67   H51   S    
C153  H16   S    
C4    O4    A    
C41   C49   A    
C16   C109  A    
C199  H138  S    
O5    Zn5   S    
C52   C101  S    
C155  C156  S    
C173  H73   S    
C16   O68   S    
O69   C165  S    
C103  O39   A    
C184  H102  S    
C57   C65   A    
C220  H191  S    
C20   C28   A    
C27   C35   A    
C169  H63   S    
C208  H160  S    
C21   C29   A    
O26   Zn5   S    
C153  C154  S    
C23   C31   A    
C204  H152  S    
C187  H109  S    
O52   H4    S    
C24   C32   A    
C152  H12   S    
C207  H159  S    
C95   O15   A    
C218  H187  S    
C215  H178  S    
C92   O20   A    
C241  H244  S    
C93   O13   A    
C1    O25   A    
C167  H58   S    
C213  C214  S    
C193  C194  S    
C105  C112  A    
C63   C71   A    
C120  C148  A    
C180  H92   S    
C211  H169  S    
C224  H201  S    
C186  H105  S    
C182  H97   S    
C187  C188  S    
C165  H53   S    
C42   O86   S    
C53   C61   A    
C243  C244  S    
C241  C242  S    
C108  C140  A    
C28   O80   S    
C174  H77   S    
C217  H183  S    
C9    C116  A    
C100  O42   A    
C89   O9    A    
C212  H172  S    
C211  C212  S    
O81   C189  S    
C92   O12   A    
C17   C25   A    
O91   C209  S    
C228  H211  S    
C182  H95   S    
C94   O22   A    
C209  H163  S    
C218  H185  S    
O3    Zn3   S    
O107  C241  S    
C198  H136  S    
C55   C98   S    
C18   C82   S    
O34   Zn12  S    
C236  H230  S    
O22   Zn6   S    
C189  H113  S    
C73   O101  S    
C222  H196  S    
C178  H87   S    
C126  C134  A    
C210  H166  S    
C23   C36   A    
C156  H24   S    
O65   H49   S    
O83   C193  S    
C118  C138  A    
C11   C143  A    
C96   C129  S    
C113  C115  A    
C2    O2    A    
C58   O94   S    
C235  H229  S    
C178  H85   S    
C236  H232  S    
C37   O70   S    
C124  C139  A    
C45   C85   A    
C127  C134  A    
C13   C145  A    
C75   C83   A    
C92   C125  S    
C49   C104  S    
C71   C79   A    
O82   C191  S    
O71   C169  S    
C53   C100  S    
C198  H135  S    
C51   C102  S    
O4    Zn4   S    
O57   C157  S    
C212  H170  S    
O36   Zn11  S    
C237  H234  S    
O13   Zn2   S    
C108  C115  A    
C91   O19   A    
O27   Zn8   S    
C163  H40   S    
C152  H14   S    
C109  C111  A    
C158  H27   S    
C235  C236  S    
C181  H93   S    
C66   C74   A    
C49   C57   A    
C124  C132  A    
O24   Zn8   S    
O58   C159  S    
C172  H71   S    
O101  C229  S    
C40   O71   S    
C52   C60   A    
C59   C67   A    
C129  C135  A    
C149  H6    S    
C237  C238  S    
C55   C63   A    
C186  H107  S    
C1    C65   S    
C215  H179  S    
C56   C64   A    
C166  H57   S    
C93   C132  S    
C29   O81   S    
O55   C153  S    
C99   O35   A    
O16   Zn3   S    
C44   C52   A    
O79   C185  S    
C77   C85   A    
C164  H42   S    
C48   O92   S    
C202  H145  S    
C56   C97   S    
O7    Zn7   S    
O49   H1    S    
C174  H76   S    
C195  H129  S    
C231  H219  S    
C176  H81   S    
C104  O40   A    
O45   Zn9   S    
C205  H153  S    
O38   Zn10  S    
C9    O61   S    
C233  H224  S    
C11   O63   S    
C45   O89   S    
C131  C136  A    
C192  H122  S    
C4    C68   S    
O53   C149  S    
C35   O76   S    
C33   O74   S    
C96   O16   A    
C47   C87   A    
C36   O75   S    
C202  H147  S    
C150  H7    S    
C195  C196  S    
C177  H84   S    
C5    O29   A    
O92   C211  S    
C27   O79   S    
C25   O77   S    
O102  C231  S    
C28   C36   A    
C193  H123  S    
C161  H36   S    
C42   C50   A    
O30   Zn1   S    
C204  H151  S    
O72   C171  S    
C242  H247  S    
C175  H79   S    
C20   C84   S    
C170  H67   S    
C222  H195  S    
C54   C99   S    
C214  H177  S    
C67   C75   A    
C76   O104  S    
C183  H98   S    
C177  C178  S    
C186  H106  S    
C191  H118  S    
C232  H222  S    
C179  C180  S    
C105  C109  A    
C134  O50   S    
C22   C30   A    
C119  C138  A    
C2    C66   S    
C161  C162  S    
O86   C199  S    
C158  H29   S    
C114  C116  A    
C197  C198  S    
C196  H132  S    
C175  C176  S    
C179  H89   S    
C121  C139  A    
C216  H181  S    
C159  H30   S    
C185  H103  S    
C122  C140  A    
C72   C80   A    
C190  H115  S    
O11   Zn8   S    
O47   Zn10  S    
C95   O23   A    
C217  C218  S    
C226  H205  S    
C31   O83   S    
C223  H199  S    
C17   C38   A    
C107  C139  A    
C110  C112  A    
C107  C116  A    
C19   C40   A    
C105  C137  A    
C219  C220  S    
C97   O43   A    
C244  H251  S    
C179  H88   S    
C222  H197  S    
O62   H46   S    
O10   Zn5   S    
O19   Zn3   S    
C201  H143  S    
C214  H175  S    
C117  C125  A    
C181  C182  S    
C200  H140  S    
O94   C215  S    
C25   C33   A    
C119  C127  A    
C60   O96   S    
C194  H125  S    
C223  C224  S    
C203  H149  S    
C18   C26   A    
C32   O84   S    
C76   C84   A    
O76   C179  S    
C149  H5    S    
O51   H3    S    
C93   O21   A    
C225  H203  S    
C242  H245  S    
C173  H74   S    
C149  C150  S    
C174  H75   S    
O54   C151  S    
C12   C113  A    
C150  H9    S    
C184  H101  S    
C220  H190  S    
C206  H157  S    
C197  H133  S    
C119  C147  A    
C43   C83   A    
C133  O49   S    
C63   O99   S    
C117  C145  A    
C227  H208  S    
C10   C142  A    
C169  H64   S    
C108  C114  A    
C234  H226  S    
C77   O105  S    
C5    C69   S    
C141  O53   S    
C69   C77   A    
C173  C174  S    
C57   O93   S    
C90   C127  S    
C48   C88   A    
C1    O1    A    
O78   C183  S    
C91   O11   A    
C136  O52   S    
C169  C170  S    
C166  H56   S    
C171  H68   S    
C180  H91   S    
O85   C197  S    
C224  H200  S    
C90   O18   A    
C243  H248  S    
C15   C110  A    
C165  H54   S    
C74   C82   A    
O6    Zn6   S    
C170  H66   S    
O108  C243  S    
C200  H141  S    
C240  H242  S    
O40   Zn9   S    
C21   C85   S    
C8    C72   S    
C215  C216  S    
C34   O73   S    
C231  C232  S    
C121  C141  A    
C190  H117  S    
O68   H52   S    
C20   C39   A    
C21   C34   A    
C54   C62   A    
C233  H223  S    
C206  H155  S    
C162  H38   S    
O25   Zn6   S    
C176  H82   S    
C165  C166  S    
C50   C58   A    
C10   O62   S    
C98   O34   A    
O63   H47   S    
O17   Zn1   S    
C160  H34   S    
C209  H164  S    
O50   H2    S    
C61   O97   S    
C144  O56   S    
C46   C54   A    
C155  H20   S    
C75   O103  S    
C47   O91   S    
C6    O6    A    
C189  H114  S    
C73   C81   A    
C3    O27   A    
C244  H252  S    
C239  H239  S    
C156  H23   S    
C230  H217  S    
C68   C76   A    
C153  H15   S    
C43   O87   S    
C185  H104  S    
C239  H238  S    
C198  H137  S    
C209  C210  S    
C218  H186  S    
O80   C187  S    
C145  O57   S    
C6    C70   S    
C157  C158  S    
O20   Zn4   S    
C123  C131  A    
C225  H204  S    
C166  H55   S    
C121  C129  A    
C44   C84   A    
C189  C190  S    
C220  H192  S    
C183  H99   S    
C120  C128  A    
C229  H214  S    
O104  C235  S    
C210  H167  S    
C239  C240  S    
C94   C131  S    
C150  H8    S    
C185  C186  S    
C182  H96   S    
C187  H108  S    
C157  H25   S    
C152  H13   S    
C15   C147  A    
C39   O72   S    
C43   C51   A    
C241  H243  S    
C160  H32   S    
C181  H94   S    
O41   Zn11  S    
C219  H188  S    
C17   C81   S    
C22   C86   S    
C196  H130  S    
O23   Zn7   S    
C172  H70   S    
C100  O36   A    
O44   Zn11  S    
C79   O107  S    
C183  C184  S    
C167  C168  S    
O21   Zn5   S    
C203  C204  S    
C7    O7    A    
C60   C68   A    
C226  H206  S    
O70   C167  S    
C4    O28   A    
C162  H39   S    
C29   C37   A    
C188  H111  S    
C148  O60   S    
C120  C137  A    
C103  O45   A    
C224  H202  S    
C184  H100  S    
C41   O85   S    
O2    Zn2   S    
C101  O47   A    
C89   C128  S    
C13   O65   S    
C91   C126  S    
C70   C78   A    
O73   C173  S    
C242  H246  S    
C42   C82   A    
C227  H209  S    
O18   Zn2   S    
O106  C239  S    
C177  H83   S    
C65   C73   A    
C213  H174  S    
C135  O51   S    
C168  H60   S    
C243  H249  S    
O14   Zn1   S    
O95   C217  S    
C228  H210  S    
C74   O102  S    
C205  H154  S    
C170  H65   S    
C18   C37   A    
O56   C155  S    
C228  H212  S    
C216  H182  S    
C192  H121  S    
C7    C71   S    
C106  C138  A    
C154  H18   S    
O48   Zn9   S    
O59   C161  S    
C162  H37   S    
C236  H231  S    
O96   C219  S    
C226  H207  S    
C202  H146  S    
C11   C114  A    
C8    O32   A    
C58   C66   A    
O64   H48   S    
C205  C206  S    
O100  C227  S    
C19   C27   A    
O97   C221  S    
C94   O14   A    
C163  H41   S    
C95   C130  S    
C78   C86   A    
C32   C40   A    
C235  H228  S    
C41   C81   A    
C19   C83   S    
C196  H131  S    
C23   C87   S    
O35   Zn12  S    
C62   C70   A    
C234  H225  S    
C130  C136  A    
C160  H33   S    
C26   C34   A    
C231  H218  S    
C230  H216  S    
C191  H119  S    
C206  H156  S    
C238  H236  S    
C14   C111  A    
O46   Zn10  S    
C24   C35   A    
C237  H233  S    
C232  H221  S    
C207  C208  S    
O37   Zn9   S    
C118  C146  A    
C234  H227  S    
C210  H165  S    
C98   O44   A    
C221  H193  S    
C217  H184  S    
C99   O41   A    
C9    C141  A    
O61   H45   S    
C117  C137  A    
C123  C140  A    
C211  H168  S    
C238  H235  S    
C12   C144  A    
C90   O10   A    
C172  H72   S    
C219  H189  S    
C240  H240  S    
C188  H112  S    
C191  C192  S    
C24   C88   S    
C158  H28   S    
O99   C225  S    
O98   C223  S    
O90   C207  S    
C164  H44   S    
C7    O31   A    
C194  H127  S    
C89   O17   A    
C44   O88   S    
C221  H194  S    
C225  C226  S    
O42   Zn12  S    
O15   Zn4   S    
C151  H10   S    
C151  H11   S    
O29   Zn2   S    
C164  H43   S    
C96   O24   A    
C154  H19   S    
C159  C160  S    
C51   C59   A    
C122  C142  A    
C201  H144  S    
C46   O90   S    
C159  H31   S    
C14   O66   S    
C47   C55   A    
C195  H128  S    
C106  C110  A    
C168  H62   S    
C125  C133  A    
C48   C56   A    
C22   C33   A    
C15   O67   S    
C104  O46   A    
C193  H124  S    
C3    C67   S    
C221  C222  S    
C102  O48   A    
C59   O95   S    
C199  H139  S    
C97   O33   A    
O60   C163  S    
C151  C152  S    
O77   C181  S    
C14   C146  A    
C3    O3    A    
C207  H158  S    
C244  H250  S    
C16   C148  A    
O93   C213  S    
C208  H161  S    
C143  O55   S    
C201  C202  S    
C214  H176  S    
C212  H171  S    
O32   Zn3   S    
C128  C133  A    
C2    O26   A    
C78   O106  S    
O87   C201  S    
C188  H110  S    
C168  H61   S    
C197  H134  S    
C132  C135  A    
C5    O5    A    
O39   Zn10  S    
C200  H142  S    
C31   C39   A    
C203  H148  S    
C192  H120  S    
O43   Zn12  S    
C64   C72   A    
C204  H150  S    
C8    O8    A    
C154  H17   S    
C208  H162  S    
C199  C200  S    
C161  H35   S    
C10   C115  A    
C45   C53   A    
O12   Zn7   S    
C38   O69   S    
C178  H86   S    
C175  H78   S    
C213  H173  S    
C123  C143  A    
C176  H80   S    
C124  C144  A    
C146  O58   S    
O9    Zn6   S    
C118  C126  A    
O75   C177  S    
C216  H180  S    
C122  C130  A    
O8    Zn8   S    
O31   Zn4   S    
C6    O30   A    
O1    Zn1   S    
C64   O100  S    
C46   C86   A    
C62   O98   S    
C229  H213  S    
