data_mof_unit_32541.cif
_audit_creation_date              2013-03-05T15:46:14-0500
_audit_creation_method            fapswitch 2.2
_symmetry_space_group_name_H-M    P1
_symmetry_Int_Tables_number       1
_space_group_crystal_system       triclinic
_cell_length_a                    10.76733
_cell_length_b                    11.075324
_cell_length_c                    9.813991
_cell_angle_alpha                 109.603328
_cell_angle_beta                  98.07772
_cell_angle_gamma                 91.57893
_cell_volume                      1088.05483907

loop_
_atom_site_label
_atom_site_type_symbol
_atom_site_description
_atom_site_fract_x
_atom_site_fract_y
_atom_site_fract_z
_atom_type_partial_charge
O1    O     O_R   0.511820 0.332340 0.577400 -0.528147
O2    O     O_R   0.474400 0.295500 0.332650 -0.572935
C1    C     C_R   0.496703 0.255686 0.443491 0.868143
O3    O     O_R   0.336400 0.518400 0.622370 -0.573074
O4    O     O_R   0.298980 0.481560 0.377620 -0.530946
C2    C     C_R   0.260921 0.508973 0.503072 0.788064
Cu1   Cu    Cu3+1 0.522160 0.521810 0.644910 1.085549
Cu2   Cu    Cu3+1 0.477840 0.478190 0.355090 1.092565
O5    O     O_R   0.525600 0.704500 0.667350 -0.534410
O6    O     O_R   0.488180 0.667660 0.422600 -0.517405
O7    O     O_R   0.701020 0.518440 0.622380 -0.567615
O8    O     O_R   0.663600 0.481600 0.377630 -0.551413
C3    C     C_R   0.512217 0.745094 0.556337 0.870263
C4    C     C_R   0.740172 0.500207 0.499665 0.819670
C5    C     C_3   0.093532 0.545514 0.666489 0.180004
H1    H     H_    0.137414 0.474641 0.712462 0.124926
C6    C     C_3   0.949940 0.526743 0.660170 -0.349815
H2    H     H_    0.928809 0.442037 0.692240 0.212459
H3    H     H_    0.915150 0.609932 0.741313 0.254689
H4    H     H_    0.107150 0.714545 0.517199 0.104048
H5    H     H_    0.898715 0.709300 0.530200 0.181788
C7    C     C_3   0.063660 0.618374 0.444977 0.220208
C8    C     C_3   0.059604 0.377639 0.413460 -0.421793
C9    C     C_3   0.123373 0.514498 0.505972 -0.085710
H6    H     H_    0.087174 0.341111 0.303013 0.246641
H7    H     H_    0.092040 0.308157 0.468075 0.164687
C10   C     C_3   0.878784 0.504641 0.502708 -0.039881
C11   C     C_3   0.921086 0.615845 0.453453 -0.365915
C12   C     C_3   0.915508 0.376617 0.398819 -0.340629
H8    H     H_    0.877539 0.294131 0.425342 0.205951
H9    H     H_    0.874905 0.362555 0.283557 0.254399
H10   H     H_    0.866359 0.603254 0.345587 0.279083
C13   C     C_2   0.499243 0.119401 0.418387 -0.406079
C14   C     C_2   0.561556 0.070757 0.515120 0.360549
H11   H     H_    0.517211 0.947059 0.691101 0.198163
C15   C     C_2   0.524110 0.882610 0.581527 -0.376899
C16   C     C_2   0.547698 0.931850 0.478079 0.239291
H12   H     H_    0.444017 0.055409 0.317055 0.183622
H13   H     H_    0.398357 0.439648 0.852541 0.121595
N1    N     N_2   0.444530 0.445420 0.137360 -0.315279
C17   C     C_2   0.522738 0.486661 0.069382 0.469620
H14   H     H_    0.639350 0.601320 0.923823 0.271089
N2    N     N_2   0.555520 0.554510 0.862630 -0.244227
C18   C     C_2   0.484748 0.492765 0.918706 0.025446
H15   H     H_    0.352891 0.422794 0.084190 0.208661
S1    S     S_3+6 0.153533 0.703974 0.796086 0.025135
O9    O     O_2   0.178910 0.695362 0.946920 -0.150620
O10   O     O_2   0.273856 0.751010 0.762291 -0.311176
O11   O     O_3   0.046638 0.812352 0.796208 -0.520331
H16   H     H_    0.083560 0.873340 0.755806 0.362296
S2    S     S_3+6 0.088879 0.611842 0.263598 0.058214
O12   O     O_2   0.064664 0.477560 0.154825 -0.243557
O13   O     O_2   0.001453 0.696439 0.211391 -0.202878
O14   O     O_3   0.236794 0.667514 0.269450 -0.443950
H17   H     H_    0.245140 0.756403 0.340639 0.343091
N3    N     N_R   0.562536 0.854883 0.331699 0.150083
O15   O     O_R   0.657936 0.886448 0.279087 -0.279761
O16   O     O_R   0.463812 0.792850 0.239583 -0.303201
S3    S     S_3+6 0.670459 0.160728 0.673609 0.034474
O17   O     O_2   0.749250 0.258558 0.640981 -0.302587
O18   O     O_2   0.599392 0.227252 0.795522 -0.284892
O19   O     O_3   0.765748 0.061262 0.726399 -0.515042
H18   H     H_    0.818830 0.116786 0.818279 0.395357
N4    N     N_R   0.651960 0.517925 0.132079 0.124903
O20   O     O_R   0.731299 0.431679 0.090263 -0.329738
O21   O     O_R   0.693738 0.637977 0.189810 -0.314823

loop_
_geom_bond_atom_site_label_1
_geom_bond_atom_site_label_2
_geom_bond_distance
_ccdc_geom_bond_type
O4    Cu2   1.969073 S    
S2    O13   1.503888 D    
C8    C9    1.561185 S    
C5    C6    1.544078 S    
C12   H8    1.112818 S    
Cu1   N2    2.020785 S    
C4    C10   1.487699 S    
C10   C12   1.542885 S    
C14   C16   1.455356 S    
H11   C15   1.087076 S    
C17   N4    1.422785 S    
Cu2   O8    1.979092 S    
S2    O14   1.678218 S    
C2    C9    1.487831 S    
N4    O20   1.300404 A    
C6    H2    1.112397 S    
S3    O17   1.501567 D    
C12   H9    1.110859 S    
C7    C11   1.549014 S    
Cu1   O7    1.969073 S    
C16   N3    1.437424 S    
S1    O11   1.685546 S    
O19   H18   0.990763 S    
O3    Cu1   1.979092 S    
O4    C2    1.293734 A    
C8    C12   1.537300 S    
O3    C2    1.299246 A    
C15   C16   1.352385 D    
C6    H3    1.110804 S    
H5    C11   1.112766 S    
H4    C7    1.108519 S    
C13   C14   1.351206 D    
O2    C1    1.299879 A    
C8    H6    1.108821 S    
N2    C18   1.301097 D    
N1    H15   1.030827 S    
O7    C4    1.285717 A    
C7    C9    1.577973 S    
S3    O18   1.502244 D    
Cu1   Cu2   2.689780 S    
C17   C18   1.502379 S    
C1    C13   1.447198 S    
H13   C18   1.084795 S    
S2    O12   1.501481 D    
C6    C10   1.561432 S    
S1    O10   1.503104 D    
C11   H10   1.099284 S    
N3    O15   1.301669 A    
N3    O16   1.300836 A    
C3    C15   1.457691 S    
Cu2   O6    1.971877 S    
O11   H16   0.990317 S    
H14   N2    1.028168 S    
C8    H7    1.113740 S    
C10   C11   1.545465 S    
Cu1   O5    1.959183 S    
O5    C3    1.303073 A    
S1    O9    1.502497 D    
N1    C17   1.305361 D    
S3    O19   1.682414 S    
Cu2   N1    2.020727 S    
C5    S1    1.823149 S    
O1    Cu1   1.971877 S    
O14   H17   0.990619 S    
C14   S3    1.780516 S    
C5    C9    1.577358 S    
C5    H1    1.114053 S    
O2    Cu2   1.959183 S    
C13   H12   1.087431 S    
O8    C4    1.305422 A    
C7    S2    1.816056 S    
O1    C1    1.287611 A    
O6    C3    1.289232 A    
N4    O21   1.296598 A    
