data_mof_unit_46953.cif
_audit_creation_date              2013-03-05T17:00:26-0500
_audit_creation_method            fapswitch 2.2
_symmetry_space_group_name_H-M    P1
_symmetry_Int_Tables_number       1
_space_group_crystal_system       triclinic
_cell_length_a                    10.655255
_cell_length_b                    16.12254
_cell_length_c                    16.495359
_cell_angle_alpha                 87.445906
_cell_angle_beta                  91.126758
_cell_angle_gamma                 87.507031
_cell_volume                      2827.57710666

loop_
_atom_site_label
_atom_site_type_symbol
_atom_site_description
_atom_site_fract_x
_atom_site_fract_y
_atom_site_fract_z
_atom_type_partial_charge
O1    O     O_R   0.494530 0.422540 0.612660 -0.604424
O2    O     O_R   0.505470 0.577460 0.387340 -0.603887
O3    O     O_R   0.504350 0.561840 0.618900 -0.530269
O4    O     O_R   0.495650 0.438160 0.381100 -0.518417
C1    C     C_R   0.496379 0.489455 0.654879 0.961538
C2    C     C_R   0.504739 0.510344 0.345281 1.009547
O5    O     O_R   0.678310 0.430340 0.496890 -0.613900
O6    O     O_R   0.321690 0.569660 0.503110 -0.586488
O7    O     O_R   0.688140 0.569650 0.503130 -0.575088
O8    O     O_R   0.311860 0.430350 0.496870 -0.578102
C3    C     C_R   0.740616 0.496947 0.491009 0.861078
C4    C     C_R   0.258969 0.503020 0.508812 0.922620
Zn1   Zn    Zn3+2 0.493440 0.406980 0.495830 1.102737
Zn2   Zn    Zn3+2 0.506560 0.593020 0.504170 1.098941
C5    C     C_R   0.916374 0.337621 0.489912 0.275395
C6    C     C_R   0.079584 0.664324 0.498222 0.256029
C7    C     C_R   0.983969 0.268595 0.528503 0.273790
C8    C     C_R   0.007493 0.729764 0.455024 0.286815
C9    C     C_R   0.089132 0.283807 0.578895 0.269367
C10   C     C_R   0.909295 0.707987 0.401543 0.331019
C11   C     C_R   0.126589 0.365785 0.585093 -0.241588
C12   C     C_R   0.872884 0.626011 0.403347 -0.253901
C13   C     C_R   0.064711 0.432691 0.540378 -0.006347
C14   C     C_R   0.933944 0.564599 0.454362 -0.002374
C15   C     C_R   0.948139 0.420041 0.504571 -0.053000
C16   C     C_R   0.049786 0.579531 0.490238 -0.053611
C17   C     C_R   0.122775 0.509159 0.523260 -0.039148
C18   C     C_R   0.875721 0.490292 0.474316 -0.045196
H1    H     H_    0.210205 0.377113 0.620367 0.229553
H2    H     H_    0.791374 0.609976 0.368035 0.191717
C19   C     C_R   0.508255 0.486519 0.745155 -0.350282
C20   C     C_R   0.524777 0.516720 0.256108 -0.367928
C21   C     C_R   0.488502 0.560360 0.786878 0.416058
C22   C     C_R   0.601995 0.457178 0.215404 0.353348
C23   C     C_R   0.551788 0.570058 0.860065 -0.232367
C24   C     C_R   0.652155 0.480274 0.140721 -0.240974
C25   C     C_R   0.628030 0.504555 0.896393 0.126038
C26   C     C_R   0.618647 0.556339 0.100140 0.113879
C27   C     C_R   0.636585 0.428455 0.858525 0.311895
C28   C     C_R   0.539665 0.613206 0.137741 0.331070
C29   C     C_R   0.562934 0.416735 0.788643 0.206969
C30   C     C_R   0.485140 0.591577 0.212395 0.297839
N1    N     N_2   0.661983 0.503271 0.980100 -0.079976
N2    N     N_2   0.630580 0.567863 0.014784 -0.078909
H3    H     H_    0.708913 0.434656 0.109848 0.254900
H4    H     H_    0.533883 0.626888 0.891261 0.252035
N3    N     N_R   0.515300 0.716920 0.509720 -0.172634
N4    N     N_R   0.484700 0.283080 0.490280 -0.169422
C31   C     C_R   0.429617 0.753581 0.455300 -0.075759
C32   C     C_R   0.568394 0.247287 0.546303 -0.040469
C33   C     C_R   0.417702 0.840226 0.442031 0.351733
C34   C     C_R   0.578195 0.160967 0.561845 0.390226
C35   C     C_R   0.489626 0.890936 0.489367 0.148805
C36   C     C_R   0.509841 0.109456 0.513063 0.174564
C37   C     C_R   0.575483 0.852726 0.546945 -0.263215
C38   C     C_R   0.427845 0.147006 0.452639 -0.272207
C39   C     C_R   0.589238 0.765448 0.556090 0.564470
C40   C     C_R   0.413268 0.234164 0.442759 0.552322
N5    N     N_2   0.475973 0.979103 0.474908 -0.063375
N6    N     N_2   0.523960 0.021302 0.527957 -0.054446
H5    H     H_    0.626173 0.287030 0.580742 0.199322
H6    H     H_    0.370673 0.714486 0.421238 0.220832
H7    H     H_    0.634439 0.890719 0.582647 0.260808
H8    H     H_    0.371789 0.108658 0.415474 0.260510
S1    S     S_3+6 0.818506 0.780838 0.338135 0.120569
O9    O     O_2   0.902411 0.820182 0.276622 -0.167753
O10   O     O_2   0.716127 0.738530 0.294024 -0.280730
O11   O     O_3   0.752005 0.854793 0.394080 -0.510577
H9    H     H_    0.700518 0.890937 0.354991 0.403044
S2    S     S_3+6 0.188864 0.202863 0.624995 0.147178
O12   O     O_2   0.209814 0.132553 0.569428 -0.171027
O13   O     O_2   0.315018 0.234626 0.645680 -0.235426
O14   O     O_3   0.122783 0.166473 0.710377 -0.407163
H10   H     H_    0.116317 0.214741 0.745413 0.378980
S3    S     S_3+6 0.671520 0.118094 0.644781 0.152480
O15   O     O_2   0.741615 0.040235 0.621224 -0.238172
O16   O     O_2   0.763357 0.179697 0.672542 -0.246216
O17   O     O_3   0.575814 0.093606 0.721216 -0.426221
H11   H     H_    0.632713 0.073710 0.766866 0.413749
S4    S     S_3+6 0.317336 0.885474 0.363639 0.149148
O18   O     O_2   0.396511 0.910536 0.292992 -0.203898
O19   O     O_2   0.223463 0.824878 0.336811 -0.226481
O20   O     O_3   0.240757 0.970791 0.396112 -0.453552
H12   H     H_    0.202189 0.998985 0.346555 0.416005
S5    S     S_3+6 0.707625 0.723732 0.625349 0.117300
O21   O     O_2   0.659391 0.658247 0.682217 -0.274656
O22   O     O_2   0.814454 0.686695 0.579358 -0.294405
O23   O     O_3   0.762280 0.799625 0.681360 -0.486909
H13   H     H_    0.837306 0.774170 0.710772 0.415920
S6    S     S_3+6 0.296660 0.274986 0.371299 0.116828
O24   O     O_2   0.186535 0.310235 0.415214 -0.323820
O25   O     O_2   0.343574 0.341875 0.315406 -0.198156
O26   O     O_3   0.247311 0.198350 0.314215 -0.528790
H14   H     H_    0.179552 0.224684 0.278587 0.404347
Cl1   Cl    Cl    0.829370 0.322798 0.400810 -0.463163
Cl2   Cl    Cl    0.176968 0.688647 0.580342 -0.400406
S7    S     S_3+6 0.947951 0.165157 0.503844 0.171345
O27   O     O_2   0.964834 0.106672 0.577003 -0.113216
O28   O     O_2   0.815447 0.160263 0.472365 -0.277231
O29   O     O_3   0.046061 0.133143 0.431881 -0.437430
H15   H     H_    0.015802 0.163817 0.381407 0.389448
S8    S     S_3+6 0.021979 0.836346 0.479750 0.198434
O30   O     O_2   0.146872 0.851739 0.518692 -0.194712
O31   O     O_2   0.004765 0.893691 0.405777 -0.153922
O32   O     O_3   0.908925 0.860585 0.545285 -0.450414
H16   H     H_    0.913253 0.921259 0.551237 0.426482
S9    S     S_3+6 0.616559 0.347323 0.235766 0.132800
O33   O     O_2   0.593434 0.316835 0.320827 -0.208425
O34   O     O_2   0.524675 0.308427 0.180254 -0.202584
O35   O     O_3   0.762323 0.314055 0.211393 -0.492983
H17   H     H_    0.760085 0.252645 0.212891 0.412322
S10   S     S_3+6 0.361755 0.631158 0.760376 0.115038
O36   O     O_2   0.402407 0.696773 0.700196 -0.198837
O37   O     O_2   0.257332 0.583911 0.724421 -0.277443
O38   O     O_3   0.309718 0.677344 0.843558 -0.492842
H18   H     H_    0.236712 0.713494 0.824167 0.417173
Cl3   Cl    Cl    0.728524 0.345022 0.905170 -0.402765
Cl4   Cl    Cl    0.502766 0.710024 0.085731 -0.338443
S11   S     S_3+6 0.484297 0.323272 0.783271 0.150988
O39   O     O_2   0.543568 0.271778 0.720237 -0.191123
O40   O     O_2   0.489423 0.274157 0.862990 -0.162181
O41   O     O_3   0.332896 0.346492 0.757917 -0.522045
H19   H     H_    0.299600 0.378375 0.803371 0.365572
S12   S     S_3+6 0.356837 0.654948 0.243912 0.127594
O42   O     O_2   0.410704 0.733723 0.270755 -0.199775
O43   O     O_2   0.267780 0.674958 0.173217 -0.172161
O44   O     O_3   0.275890 0.609630 0.319116 -0.579606
H20   H     H_    0.204080 0.648963 0.328230 0.372845

loop_
_geom_bond_atom_site_label_1
_geom_bond_atom_site_label_2
_geom_bond_distance
_ccdc_geom_bond_type
C2    C20   1.490163 S    
O26   H14   0.990618 S    
O14   H10   0.990619 S    
C28   Cl4   1.772332 S    
S3    O15   1.502619 D    
C34   S3    1.772175 S    
S10   O37   1.502679 D    
S7    O27   1.501028 D    
C35   N5    1.431463 S    
C30   S12   1.771119 S    
N3    C31   1.364637 A    
C36   N6    1.432406 S    
S5    O21   1.495553 D    
C15   C18   1.409178 A    
O5    C3    1.287875 A    
C16   C17   1.428389 A    
O1    C1    1.310562 A    
C22   S9    1.787414 S    
C9    C11   1.404618 A    
C14   C16   1.393397 A    
C5    Cl1   1.753220 S    
C5    C15   1.415378 A    
O38   H18   0.990593 S    
S8    O32   1.679387 S    
C8    S8    1.796134 S    
O4    Zn1   1.937229 S    
O35   H17   0.990636 S    
C7    C9    1.418512 A    
C33   S4    1.772460 S    
C38   C40   1.408869 A    
O11   H9    0.990495 S    
C31   C33   1.404172 A    
C37   H7    1.080625 S    
C32   C34   1.402841 A    
S9    O33   1.494551 D    
C38   H8    1.079968 S    
S2    O12   1.501197 D    
C13   C17   1.422901 A    
C19   C29   1.405155 A    
C8    C10   1.421117 A    
S11   O40   1.503269 D    
N5    N6    1.247321 D    
S9    O34   1.503200 D    
O2    C2    1.311378 A    
S4    O20   1.682271 S    
S10   O36   1.501782 D    
S7    O28   1.501247 D    
C34   C36   1.398868 A    
C35   C37   1.408229 A    
C6    C16   1.428016 A    
C36   C38   1.410415 A    
C6    Cl2   1.758670 S    
S5    O22   1.497676 D    
C10   S1    1.777984 S    
O4    C2    1.289834 A    
O17   H11   0.990500 S    
C4    C17   1.475040 S    
S1    O10   1.504142 D    
C27   Cl3   1.767653 S    
C11   H1    1.081175 S    
C33   C35   1.397614 A    
C20   C22   1.435191 A    
C25   N1    1.419495 S    
O7    Zn2   1.955531 S    
C26   N2    1.420878 S    
N3    C39   1.378819 A    
O7    C3    1.301869 A    
S6    O25   1.496432 D    
O20   H12   0.990536 S    
O6    C4    1.290640 A    
S1    O11   1.680977 S    
S2    O14   1.680745 S    
C19   C21   1.411460 A    
C24   H3    1.082967 S    
C21   S10   1.765252 S    
C29   S11   1.760508 S    
S8    O31   1.501085 D    
N4    C32   1.362925 A    
S3    O16   1.503724 D    
O3    Zn2   1.937229 S    
O8    C4    1.302540 A    
C40   S6    1.780031 S    
S12   O44   1.683081 S    
S4    O19   1.502294 D    
C10   C12   1.392754 A    
C11   C13   1.410827 A    
N1    N2    1.246636 D    
S9    O35   1.683128 S    
C12   C14   1.399982 A    
O1    Zn1   1.954342 S    
O44   H20   0.990462 S    
S7    O29   1.680729 S    
S6    O26   1.682423 S    
S12   O43   1.503575 D    
S5    O23   1.682703 S    
C5    C7    1.418293 A    
O6    Zn2   2.021429 S    
C31   H6    1.076831 S    
C12   H2    1.083281 S    
C23   C25   1.408615 A    
S11   O41   1.680622 S    
C14   C18   1.402135 A    
S4    O18   1.503127 D    
O3    C1    1.292386 A    
O8    Zn1   1.955532 S    
Zn1   N4    2.009860 S    
S11   O39   1.492101 D    
N4    C40   1.378265 A    
Zn2   N3    2.009860 S    
O32   H16   0.990436 S    
C37   C39   1.409449 A    
C25   C27   1.401658 A    
C24   C26   1.399593 A    
C26   C28   1.391990 A    
S6    O24   1.495568 D    
C3    C18   1.471218 S    
C28   C30   1.408217 A    
O29   H15   0.990242 S    
C21   C23   1.389449 A    
C39   S5    1.774777 S    
C22   C24   1.394381 A    
C13   C15   1.391846 A    
S8    O30   1.501484 D    
O2    Zn2   1.954341 S    
S3    O17   1.681285 S    
O5    Zn1   2.021430 S    
O23   H13   0.990632 S    
C27   C29   1.406088 A    
C6    C8    1.432441 A    
S1    O9    1.502956 D    
C32   H5    1.079502 S    
C20   C30   1.421621 A    
C9    S2    1.780373 S    
S2    O13   1.497654 D    
O41   H19   0.990556 S    
C23   H4    1.082306 S    
C7    S7    1.789934 S    
S10   O38   1.682171 S    
S12   O42   1.497365 D    
C1    C19   1.490490 S    
