data_mof_unit_60354.cif
_audit_creation_date              2012-12-10T20:37:27-0500
_audit_creation_method            fapswitch 2.2
_symmetry_space_group_name_H-M    P1
_symmetry_Int_Tables_number       1
_space_group_crystal_system       triclinic
_cell_length_a                    36.045385
_cell_length_b                    39.785951
_cell_length_c                    26.82874
_cell_angle_alpha                 90.000198
_cell_angle_beta                  132.152955
_cell_angle_gamma                 89.999746
_cell_volume                      28523.7374862

loop_
_atom_site_label
_atom_site_type_symbol
_atom_type_description
_atom_site_fract_x
_atom_site_fract_y
_atom_site_fract_z
_atom_type_partial_charge
C1    C     C_R   0.400185 0.749942 0.000009 0.828473
C2    C     C_R   0.599815 0.250057 0.999991 0.828330
C3    C     C_R   0.599815 0.749942 0.999991 0.829113
C4    C     C_R   0.400185 0.250057 0.000009 0.828651
C5    C     C_R   0.900185 0.249943 0.000009 0.828328
C6    C     C_R   0.099815 0.750057 0.999991 0.828475
C7    C     C_R   0.099815 0.249942 0.999991 0.828653
C8    C     C_R   0.900185 0.750058 0.000009 0.829111
C9    C     C_3   0.246744 0.277931 0.968746 -0.251255
C10   C     C_3   0.751331 0.721074 0.027396 -0.251038
C11   C     C_3   0.754484 0.277205 0.033716 -0.251351
C12   C     C_3   0.246224 0.722368 0.967703 -0.251288
C13   C     C_3   0.748669 0.778926 0.972604 -0.251038
C14   C     C_3   0.253256 0.222069 0.031254 -0.251255
C15   C     C_3   0.253776 0.777632 0.032297 -0.251287
C16   C     C_3   0.745516 0.222795 0.966284 -0.251351
C17   C     C_3   0.706432 0.752517 0.937330 0.474351
C18   C     C_3   0.293664 0.249612 0.062868 0.474545
C19   C     C_3   0.293665 0.749797 0.062873 0.474604
C20   C     C_3   0.706351 0.251016 0.937158 0.474677
C21   C     C_3   0.206336 0.250388 0.937132 0.474545
C22   C     C_3   0.793568 0.747482 0.062669 0.474351
C23   C     C_3   0.793648 0.248984 0.062842 0.474677
C24   C     C_3   0.206335 0.750203 0.937127 0.474604
C25   C     C_1   0.639523 0.749900 0.000048 -0.104621
C26   C     C_1   0.360477 0.250097 0.999953 -0.104659
C27   C     C_1   0.360478 0.749904 0.999953 -0.104655
C28   C     C_1   0.639522 0.250095 0.000046 -0.104671
C29   C     C_1   0.139522 0.249903 0.000047 -0.104658
C30   C     C_1   0.860477 0.750100 0.999952 -0.104622
C31   C     C_1   0.860478 0.249905 0.999954 -0.104672
C32   C     C_1   0.139522 0.750096 0.000047 -0.104654
C33   C     C_3   0.755699 0.776312 0.036333 -0.249328
C34   C     C_3   0.246127 0.222518 0.967320 -0.249635
C35   C     C_3   0.246646 0.777785 0.968360 -0.249743
C36   C     C_3   0.752629 0.221815 0.030190 -0.249860
C37   C     C_3   0.253873 0.277482 0.032680 -0.249635
C38   C     C_3   0.744300 0.723688 0.963667 -0.249328
C39   C     C_3   0.747371 0.278185 0.969810 -0.249860
C40   C     C_3   0.253354 0.722215 0.031640 -0.249743
C41   C     C_3   0.713526 0.749936 0.000244 0.034217
C42   C     C_3   0.286472 0.250055 0.999753 0.034323
C43   C     C_3   0.286473 0.749947 0.999754 0.034347
C44   C     C_3   0.713527 0.250049 0.000246 0.034378
C45   C     C_3   0.213528 0.249945 0.000246 0.034323
C46   C     C_3   0.786474 0.750064 0.999756 0.034217
C47   C     C_3   0.786473 0.249951 0.999754 0.034378
C48   C     C_3   0.213527 0.750053 0.000246 0.034347
C49   C     C_1   0.672937 0.749899 0.000147 0.046231
C50   C     C_1   0.327063 0.250096 0.999852 0.046060
C51   C     C_1   0.327063 0.749906 0.999852 0.046010
C52   C     C_1   0.672937 0.250091 0.000147 0.045958
C53   C     C_1   0.172937 0.249904 0.000148 0.046060
C54   C     C_1   0.827063 0.750101 0.999853 0.046231
C55   C     C_1   0.827063 0.249909 0.999853 0.045958
C56   C     C_1   0.172937 0.750094 0.000147 0.046010
C57   C     C_R   0.156894 0.772046 0.362104 0.413058
C58   C     C_R   0.843105 0.227953 0.637896 0.412998
C59   C     C_R   0.843106 0.772046 0.637896 0.413009
C60   C     C_R   0.156894 0.227954 0.362104 0.412968
C61   C     C_R   0.656895 0.272047 0.362104 0.412998
C62   C     C_R   0.343106 0.727954 0.637896 0.413058
C63   C     C_R   0.343106 0.272046 0.637896 0.412967
C64   C     C_R   0.656894 0.727954 0.362104 0.413009
C65   C     C_R   0.121995 0.771841 0.291829 -0.211349
C66   C     C_R   0.878005 0.228158 0.708170 -0.211310
C67   C     C_R   0.878006 0.771841 0.708171 -0.211249
C68   C     C_R   0.121994 0.228159 0.291829 -0.211289
C69   C     C_R   0.621995 0.271842 0.291829 -0.211310
C70   C     C_R   0.378005 0.728159 0.708170 -0.211349
C71   C     C_R   0.378006 0.271841 0.708171 -0.211289
C72   C     C_R   0.621994 0.728159 0.291829 -0.211249
C73   C     C_R   0.128047 0.750155 0.256343 -0.082458
C74   C     C_R   0.871953 0.249845 0.743657 -0.082585
C75   C     C_R   0.871953 0.750155 0.743657 -0.082514
C76   C     C_R   0.128047 0.249845 0.256343 -0.082611
C77   C     C_R   0.628047 0.250155 0.256343 -0.082585
C78   C     C_R   0.371953 0.749845 0.743657 -0.082458
C79   C     C_R   0.371953 0.250155 0.743657 -0.082611
C80   C     C_R   0.628047 0.749845 0.256343 -0.082514
C81   C     C_R   0.169686 0.728616 0.292374 -0.179581
C82   C     C_R   0.830314 0.271384 0.707626 -0.179658
C83   C     C_R   0.830314 0.728616 0.707626 -0.179720
C84   C     C_R   0.169686 0.271384 0.292374 -0.179716
C85   C     C_R   0.669685 0.228615 0.292374 -0.179658
C86   C     C_R   0.330314 0.771384 0.707626 -0.179581
C87   C     C_R   0.330314 0.228616 0.707626 -0.179716
C88   C     C_R   0.669686 0.771383 0.292374 -0.179721
C89   C     C_R   0.591056 0.749938 0.182144 0.823933
C90   C     C_R   0.408944 0.250062 0.817856 0.823862
C91   C     C_R   0.408944 0.749938 0.817856 0.824156
C92   C     C_R   0.591056 0.250062 0.182144 0.823979
C93   C     C_R   0.091056 0.249938 0.182144 0.823862
C94   C     C_R   0.908944 0.750062 0.817856 0.823933
C95   C     C_R   0.908944 0.249938 0.817856 0.823979
C96   C     C_R   0.091056 0.750062 0.182144 0.824156
C97   C     C_R   0.204589 0.728769 0.362542 -0.189045
C98   C     C_R   0.795411 0.271231 0.637457 -0.189098
C99   C     C_R   0.795410 0.728770 0.637457 -0.189122
C100  C     C_R   0.204590 0.271230 0.362542 -0.189131
C101  C     C_R   0.704589 0.228769 0.362542 -0.189098
C102  C     C_R   0.295411 0.771231 0.637457 -0.189045
C103  C     C_R   0.295410 0.228770 0.637457 -0.189131
C104  C     C_R   0.704590 0.771230 0.362542 -0.189122
C105  C     C_R   0.198372 0.750402 0.397584 0.028919
C106  C     C_R   0.801628 0.249598 0.602416 0.028811
C107  C     C_R   0.801628 0.750402 0.602416 0.028866
C108  C     C_R   0.198372 0.249598 0.397584 0.028787
C109  C     C_R   0.698372 0.250402 0.397584 0.028811
C110  C     C_R   0.301628 0.749598 0.602416 0.028919
C111  C     C_R   0.301628 0.250402 0.602416 0.028787
C112  C     C_R   0.698372 0.749598 0.397584 0.028866
C113  C     C_1   0.234772 0.750110 0.469774 0.076763
C114  C     C_1   0.765228 0.249889 0.530226 0.076679
C115  C     C_1   0.765228 0.750110 0.530226 0.076680
C116  C     C_1   0.234772 0.249889 0.469774 0.076638
C117  C     C_1   0.734772 0.250111 0.469774 0.076679
C118  C     C_1   0.265228 0.749889 0.530226 0.076762
C119  C     C_1   0.265228 0.250111 0.530226 0.076638
C120  C     C_1   0.734772 0.749889 0.469774 0.076680
C121  C     C_R   0.469661 0.431461 0.006127 -0.184824
C122  C     C_R   0.530342 0.568539 0.993878 -0.184873
C123  C     C_R   0.530339 0.431461 0.993874 -0.184782
C124  C     C_R   0.469658 0.568539 0.006121 -0.184801
C125  C     C_R   0.969659 0.931461 0.006123 -0.184874
C126  C     C_R   0.030339 0.068539 0.993873 -0.184824
C127  C     C_R   0.030341 0.931461 0.993878 -0.184800
C128  C     C_R   0.969661 0.068539 0.006126 -0.184782
C129  C     C_R   0.469349 0.396325 0.006162 -0.026954
C130  C     C_R   0.530654 0.603675 0.993844 -0.026836
C131  C     C_R   0.530651 0.396325 0.993838 -0.027066
C132  C     C_R   0.469346 0.603675 0.006156 -0.027025
C133  C     C_R   0.969347 0.896325 0.006157 -0.026836
C134  C     C_R   0.030651 0.103675 0.993838 -0.026954
C135  C     C_R   0.030653 0.896325 0.993843 -0.027026
C136  C     C_R   0.969349 0.103675 0.006161 -0.027066
C137  C     C_R   0.500000 0.378251 0.000000 -0.097336
C138  C     C_R   0.500000 0.621749 1.000000 -0.097367
C139  C     C_R   0.000000 0.878251 0.000000 -0.097368
C140  C     C_R   1.000000 0.121749 1.000000 -0.097336
C141  C     C_R   0.500000 0.448907 0.000000 0.115423
C142  C     C_R   0.500000 0.551093 1.000000 0.115422
C143  C     C_R   0.000000 0.948906 0.000000 0.115422
C144  C     C_R   0.000000 0.051093 1.000000 0.115423
C145  C     C_1   0.500000 0.484904 0.000000 -0.026974
C146  C     C_1   0.500000 0.515096 1.000000 -0.026966
C147  C     C_1   0.000000 0.984904 0.000000 -0.026966
C148  C     C_1   0.000000 0.015096 0.000000 -0.026974
C149  C     C_R   0.500000 0.658946 1.000000 0.790783
C150  C     C_R   0.500000 0.341054 0.000000 0.790670
C151  C     C_R   0.000000 0.158946 1.000000 0.790670
C152  C     C_R   0.000000 0.841053 0.000000 0.790783
C153  C     C_R   0.500000 0.841048 1.000000 0.796872
C154  C     C_R   0.500000 0.158952 0.000000 0.796646
C155  C     C_R   1.000000 0.341048 1.000000 0.796646
C156  C     C_R   1.000000 0.658952 0.000000 0.796871
C157  C     C_R   0.454737 0.068796 0.956776 -0.152841
C158  C     C_R   0.545263 0.931204 0.043223 -0.152767
C159  C     C_R   0.545263 0.068796 0.043224 -0.152843
C160  C     C_R   0.454737 0.931204 0.956776 -0.152786
C161  C     C_R   0.954737 0.568796 0.956777 -0.152766
C162  C     C_R   0.045263 0.431204 0.043224 -0.152841
C163  C     C_R   0.045263 0.568796 0.043224 -0.152787
C164  C     C_R   0.954737 0.431204 0.956776 -0.152843
C165  C     C_R   0.454683 0.103909 0.956724 -0.181717
C166  C     C_R   0.545317 0.896091 0.043275 -0.181537
C167  C     C_R   0.545317 0.103908 0.043275 -0.181760
C168  C     C_R   0.454683 0.896092 0.956724 -0.181642
C169  C     C_R   0.954683 0.603908 0.956725 -0.181537
C170  C     C_R   0.045317 0.396091 0.043275 -0.181716
C171  C     C_R   0.045317 0.603908 0.043275 -0.181642
C172  C     C_R   0.954683 0.396091 0.956724 -0.181760
C173  C     C_R   0.500000 0.121826 0.000000 -0.015351
C174  C     C_R   0.500000 0.878174 1.000000 -0.015333
C175  C     C_R   1.000000 0.621826 0.000000 -0.015333
C176  C     C_R   1.000000 0.378174 1.000000 -0.015351
C177  C     C_R   0.500000 0.051212 1.000000 0.149464
C178  C     C_R   0.500000 0.948788 1.000000 0.149461
C179  C     C_R   1.000000 0.551212 0.000000 0.149461
C180  C     C_R   1.000000 0.448788 0.000000 0.149464
C181  C     C_1   0.500000 0.015125 1.000000 -0.047836
C182  C     C_1   0.500000 0.984874 1.000000 -0.047804
C183  C     C_1   1.000000 0.515126 0.000000 -0.047804
C184  C     C_1   1.000000 0.484874 0.000000 -0.047836
H1    H     H_    0.419507 0.055372 0.923131 0.144540
H2    H     H_    0.580493 0.944628 0.076867 0.144519
H3    H     H_    0.580494 0.055372 0.076868 0.144550
H4    H     H_    0.419506 0.944628 0.923132 0.144543
H5    H     H_    0.919506 0.555372 0.923132 0.144519
H6    H     H_    0.080493 0.444628 0.076869 0.144540
H7    H     H_    0.080493 0.555372 0.076868 0.144543
H8    H     H_    0.919506 0.444628 0.923131 0.144550
H9    H     H_    0.446017 0.445285 0.010519 0.148931
H10   H     H_    0.553988 0.554715 0.989490 0.148917
H11   H     H_    0.553983 0.445285 0.989481 0.148945
H12   H     H_    0.446012 0.554716 0.010510 0.148939
H13   H     H_    0.946013 0.945285 0.010512 0.148917
H14   H     H_    0.053983 0.054715 0.989481 0.148931
H15   H     H_    0.053987 0.945284 0.989488 0.148939
H16   H     H_    0.946017 0.054715 0.010519 0.148945
H17   H     H_    0.419202 0.116997 0.922840 0.167763
H18   H     H_    0.580798 0.883003 0.077159 0.167736
H19   H     H_    0.580798 0.116997 0.077160 0.167786
H20   H     H_    0.419202 0.883003 0.922840 0.167771
H21   H     H_    0.919202 0.616997 0.922841 0.167736
H22   H     H_    0.080798 0.383003 0.077160 0.167763
H23   H     H_    0.080798 0.616997 0.077160 0.167771
H24   H     H_    0.919202 0.383003 0.922840 0.167786
H25   H     H_    0.244090 0.300692 0.942568 0.187812
H26   H     H_    0.752413 0.697478 0.050428 0.187975
H27   H     H_    0.758137 0.299358 0.061900 0.187735
H28   H     H_    0.243147 0.699857 0.940675 0.187782
H29   H     H_    0.747587 0.802522 0.949572 0.187975
H30   H     H_    0.255910 0.199308 0.057431 0.187812
H31   H     H_    0.256852 0.800143 0.059325 0.187781
H32   H     H_    0.741862 0.200642 0.938099 0.187735
H33   H     H_    0.242964 0.200134 0.939969 0.188066
H34   H     H_    0.760348 0.797717 0.066658 0.188282
H35   H     H_    0.754777 0.198842 0.055511 0.187920
H36   H     H_    0.243907 0.800422 0.941856 0.187997
H37   H     H_    0.739652 0.702283 0.933342 0.188282
H38   H     H_    0.257036 0.299866 0.060031 0.188066
H39   H     H_    0.256093 0.699578 0.058144 0.187997
H40   H     H_    0.745223 0.301158 0.944489 0.187920
H41   H     H_    0.090180 0.788660 0.265094 0.202170
H42   H     H_    0.909818 0.211339 0.734906 0.202379
H43   H     H_    0.909820 0.788659 0.734906 0.202427
H44   H     H_    0.090180 0.211340 0.265094 0.202503
H45   H     H_    0.590181 0.288661 0.265094 0.202379
H46   H     H_    0.409820 0.711339 0.734906 0.202170
H47   H     H_    0.409820 0.288660 0.734906 0.202503
H48   H     H_    0.590180 0.711340 0.265094 0.202427
H49   H     H_    0.175310 0.711646 0.266387 0.179942
H50   H     H_    0.824690 0.288355 0.733613 0.179985
H51   H     H_    0.824689 0.711647 0.733613 0.179849
H52   H     H_    0.175311 0.288353 0.266387 0.179940
H53   H     H_    0.675310 0.211645 0.266387 0.179985
H54   H     H_    0.324690 0.788354 0.733613 0.179942
H55   H     H_    0.324689 0.211647 0.733613 0.179940
H56   H     H_    0.675311 0.788353 0.266387 0.179849
H57   H     H_    0.236483 0.711987 0.389520 0.187054
H58   H     H_    0.763517 0.288014 0.610479 0.187089
H59   H     H_    0.763516 0.711988 0.610479 0.187008
H60   H     H_    0.236484 0.288012 0.389520 0.187067
H61   H     H_    0.736483 0.211986 0.389520 0.187089
H62   H     H_    0.263517 0.788013 0.610479 0.187054
H63   H     H_    0.263516 0.211988 0.610479 0.187067
H64   H     H_    0.736484 0.788012 0.389520 0.187008
O1    O     O_3   0.500000 0.749970 0.000000 -0.487177
O2    O     O_3   0.500000 0.250030 0.000000 -0.487216
O3    O     O_3   0.000000 0.249970 0.000000 -0.487216
O4    O     O_3   0.000000 0.750030 0.000000 -0.487177
O5    O     O_R   0.398200 0.769580 0.960780 -0.638752
O6    O     O_R   0.601800 0.230420 0.039220 -0.638775
O7    O     O_R   0.601800 0.769580 0.039220 -0.638522
O8    O     O_R   0.398200 0.230420 0.960780 -0.638672
O9    O     O_R   0.898200 0.269580 0.960780 -0.638775
O10   O     O_R   0.101800 0.730420 0.039220 -0.638753
O11   O     O_R   0.101800 0.269580 0.039220 -0.638672
O12   O     O_R   0.898200 0.730420 0.960780 -0.638521
O13   O     O_R   0.553280 0.730340 0.149660 -0.636512
O14   O     O_R   0.446720 0.269660 0.850340 -0.636492
O15   O     O_R   0.446720 0.730340 0.850340 -0.636626
O16   O     O_R   0.553280 0.269660 0.149660 -0.636541
O17   O     O_R   0.053280 0.230340 0.149660 -0.636492
O18   O     O_R   0.946720 0.769660 0.850340 -0.636512
O19   O     O_R   0.946720 0.230340 0.850340 -0.636541
O20   O     O_R   0.053280 0.769660 0.149660 -0.636626
O21   O     O_R   0.498080 0.675140 0.039250 -0.629817
O22   O     O_R   0.501920 0.324860 0.960750 -0.629806
O23   O     O_R   0.501920 0.675140 0.960750 -0.629988
O24   O     O_R   0.498080 0.324860 0.039250 -0.629888
O25   O     O_R   0.998080 0.175140 0.039250 -0.629806
O26   O     O_R   0.001920 0.824860 0.960750 -0.629817
O27   O     O_R   0.001920 0.175140 0.960750 -0.629888
O28   O     O_R   0.998080 0.824860 0.039250 -0.629988
O29   O     O_R   0.458830 0.824790 0.960760 -0.642484
O30   O     O_R   0.541170 0.175210 0.039240 -0.642502
O31   O     O_R   0.541170 0.824790 0.039240 -0.642454
O32   O     O_R   0.458830 0.175210 0.960760 -0.642493
O33   O     O_R   0.958830 0.324790 0.960760 -0.642503
O34   O     O_R   0.041170 0.675210 0.039240 -0.642483
O35   O     O_R   0.041170 0.324790 0.039240 -0.642492
O36   O     O_R   0.958830 0.675210 0.960760 -0.642454
O37   O     O_R   0.596370 0.769570 0.149640 -0.643883
O38   O     O_R   0.403630 0.230430 0.850360 -0.643822
O39   O     O_R   0.403630 0.769570 0.850360 -0.643749
O40   O     O_R   0.596370 0.230430 0.149640 -0.643760
O41   O     O_R   0.096370 0.269570 0.149640 -0.643823
O42   O     O_R   0.903630 0.730430 0.850360 -0.643882
O43   O     O_R   0.903630 0.269570 0.850360 -0.643760
O44   O     O_R   0.096370 0.730430 0.149640 -0.643749
O45   O     O_R   0.437440 0.730340 0.039250 -0.617755
O46   O     O_R   0.562560 0.269660 0.960750 -0.617569
O47   O     O_R   0.562560 0.730340 0.960750 -0.618371
O48   O     O_R   0.437440 0.269660 0.039250 -0.617872
O49   O     O_R   0.937440 0.230340 0.039250 -0.617569
O50   O     O_R   0.062560 0.769660 0.960750 -0.617755
O51   O     O_R   0.062560 0.230340 0.960750 -0.617873
O52   O     O_R   0.937440 0.769660 0.039250 -0.618371
Zn1   Zn    Zn3+2 0.558810 0.777990 0.056050 0.986502
Zn2   Zn    Zn3+2 0.441190 0.222010 0.943950 0.986264
Zn3   Zn    Zn3+2 0.441190 0.777990 0.943950 0.986426
Zn4   Zn    Zn3+2 0.558810 0.222010 0.056050 0.986237
Zn5   Zn    Zn3+2 0.058810 0.277990 0.056050 0.986264
Zn6   Zn    Zn3+2 0.941190 0.722010 0.943950 0.986502
Zn7   Zn    Zn3+2 0.941190 0.277990 0.943950 0.986236
Zn8   Zn    Zn3+2 0.058810 0.722010 0.056050 0.986426
Zn9   Zn    Zn3+2 0.497250 0.721930 0.056070 1.011477
Zn10  Zn    Zn3+2 0.502750 0.278070 0.943930 1.011551
Zn11  Zn    Zn3+2 0.502750 0.721930 0.943930 1.011120
Zn12  Zn    Zn3+2 0.497250 0.278070 0.056070 1.011382
Zn13  Zn    Zn3+2 0.997250 0.221930 0.056070 1.011551
Zn14  Zn    Zn3+2 0.002750 0.778070 0.943930 1.011476
Zn15  Zn    Zn3+2 0.002750 0.221930 0.943930 1.011382
Zn16  Zn    Zn3+2 0.997250 0.778070 0.056070 1.011119
C185  C     C_1   0.435931 0.379555 0.010316 0.205119
N1    N     N_1   0.409149 0.366139 0.013619 -0.169772
C186  C     C_1   0.564075 0.620445 0.989695 0.205075
N2    N     N_1   0.590860 0.633861 0.986397 -0.170601
C187  C     C_1   0.564068 0.379555 0.989684 0.205166
N3    N     N_1   0.590850 0.366138 0.986379 -0.169153
C188  C     C_1   0.435926 0.620445 0.010306 0.205127
N4    N     N_1   0.409141 0.633862 0.013605 -0.169527
C189  C     C_1   0.935926 0.879556 0.010307 0.205075
N5    N     N_1   0.909142 0.866139 0.013606 -0.170600
C190  C     C_1   0.064069 0.120444 0.989684 0.205120
N6    N     N_1   0.090851 0.133861 0.986381 -0.169773
C191  C     C_1   0.064073 0.879555 0.989692 0.205128
N7    N     N_1   0.090857 0.866138 0.986391 -0.169526
C192  C     C_1   0.935932 0.120445 0.010316 0.205166
N8    N     N_1   0.909150 0.133861 0.013621 -0.169153
Cl1   Cl    Cl    0.647781 0.755881 0.853376 -0.556721
Cl2   Cl    Cl    0.352445 0.249102 0.147088 -0.555776
Cl3   Cl    Cl    0.352447 0.749517 0.147097 -0.555515
Cl4   Cl    Cl    0.647591 0.252386 0.852975 -0.555166
Cl5   Cl    Cl    0.147555 0.250898 0.852912 -0.555776
Cl6   Cl    Cl    0.852219 0.744119 0.146624 -0.556721
Cl7   Cl    Cl    0.852409 0.247614 0.147025 -0.555166
Cl8   Cl    Cl    0.147552 0.750483 0.852903 -0.555515
Cl9   Cl    Cl    0.147633 0.799672 0.404215 -0.575449
Cl10  Cl    Cl    0.852366 0.200327 0.595785 -0.574992
Cl11  Cl    Cl    0.852368 0.799671 0.595785 -0.574970
Cl12  Cl    Cl    0.147632 0.200329 0.404215 -0.574781
Cl13  Cl    Cl    0.647634 0.299673 0.404215 -0.574992
Cl14  Cl    Cl    0.352367 0.700328 0.595785 -0.575449
Cl15  Cl    Cl    0.352368 0.299671 0.595785 -0.574781
Cl16  Cl    Cl    0.647631 0.700329 0.404215 -0.574970

loop_
_geom_bond_atom_site_label_1
_geom_bond_atom_site_label_2
_ccdc_geom_bond_type
O3    Zn13  S    
C6    C32   S    
C89   O37   A    
C7    C29   S    
C142  C146  S    
C7    O11   A    
C102  H62   S    
C136  C140  A    
C124  C142  A    
C110  C118  S    
C79   C87   A    
C145  C146  T    
O6    Zn4   S    
C170  C176  A    
C135  C139  A    
O13   Zn9   S    
C26   C50   T    
C169  H21   S    
C64   C112  A    
O41   Zn5   S    
C139  C152  S    
C62   C70   A    
C166  H18   S    
C13   H29   S    
C94   O42   A    
C79   C90   S    
C20   C44   S    
C91   O39   A    
O1    Zn1   S    
C34   C42   S    
O8    Zn2   S    
C141  C145  S    
C97   C105  A    
C135  C191  S    
C10   C41   S    
O4    Zn14  S    
C82   C98   A    
O16   Zn12  S    
C122  H10   S    
O19   Zn15  S    
C2    O6    A    
C17   Cl1   S    
C14   C45   S    
C76   C84   A    
C166  C174  A    
O42   Zn6   S    
C188  N4    T    
C84   C100  A    
C23   C47   S    
C15   H31   S    
C152  O28   A    
C150  O24   A    
C112  C120  S    
C103  H63   S    
C12   C40   S    
C19   Cl3   S    
C183  C184  T    
C13   C33   S    
O3    Zn15  S    
C172  H24   S    
C16   C20   S    
C123  C141  A    
C65   H41   S    
C127  C143  A    
C128  C144  A    
C160  C178  A    
C92   O16   A    
C23   Cl7   S    
C87   C103  A    
O22   Zn10  S    
C63   C71   A    
C133  C139  A    
C134  C190  S    
C81   H49   S    
C39   H40   S    
C36   C44   S    
C89   O13   A    
C37   C45   S    
O5    Zn3   S    
C162  H6    S    
C91   O15   A    
C39   C47   S    
C40   C48   S    
C96   O44   A    
C127  C135  A    
C68   H44   S    
C98   C106  A    
C153  O31   A    
C10   C38   S    
C61   C69   A    
C158  C178  A    
O32   Zn2   S    
C80   C88   A    
C9    C21   S    
O1    Zn3   S    
O52   Zn16  S    
O2    Zn4   S    
C11   C23   S    
C86   H54   S    
C61   Cl13  S    
C160  C168  A    
C63   C111  A    
C98   H58   S    
O20   Zn16  S    
C129  C137  A    
C130  C186  S    
C126  C134  A    
O3    Zn7   S    
C23   C36   S    
O4    Zn16  S    
C71   H47   S    
C132  C138  A    
C180  C184  S    
O25   Zn13  S    
C155  C176  S    
C96   O20   A    
C156  C175  S    
O7    Zn1   S    
C69   C77   A    
C147  C148  T    
O15   Zn11  S    
C75   C83   A    
C150  O22   A    
C71   C79   A    
O11   Zn5   S    
C34   H33   S    
C168  C174  A    
C30   C54   T    
C38   H37   S    
C103  C111  A    
C157  H1    S    
O34   Zn8   S    
C18   C42   S    
C64   Cl16  S    
O24   Zn12  S    
C66   C74   A    
C124  C132  A    
C111  C119  S    
C159  H3    S    
C165  H17   S    
C59   C67   A    
O36   Zn6   S    
C10   H26   S    
C8    O52   A    
C159  C167  A    
O46   Zn10  S    
C90   O38   A    
C95   O43   A    
C161  C179  A    
C35   C43   S    
C162  C180  A    
C100  H60   S    
C161  C169  A    
C126  H14   S    
C24   Cl8   S    
C77   C85   A    
C155  O35   A    
C15   C48   S    
O14   Zn10  S    
C36   H35   S    
C88   C104  A    
C27   C51   T    
C21   C45   S    
C138  C149  S    
C100  C108  A    
C87   H55   S    
C40   H39   S    
C24   C48   S    
C157  C165  A    
C104  C112  A    
C133  C189  S    
O2    Zn2   S    
C59   C107  A    
C168  H20   S    
O37   Zn1   S    
C155  O33   A    
O33   Zn7   S    
C69   H45   S    
C157  C177  A    
C95   O19   A    
C67   H43   S    
O3    Zn5   S    
C57   C65   A    
C124  H12   S    
C5    O9    A    
C11   C44   S    
C42   C50   S    
C187  N3    T    
C163  C179  A    
C137  C150  S    
C164  C172  A    
C67   C75   A    
C4    O8    A    
C171  H23   S    
C86   C102  A    
C72   H48   S    
C127  H15   S    
C14   C34   S    
C68   C76   A    
C12   C24   S    
C1    O45   A    
C3    O47   A    
C72   C80   A    
C16   C36   S    
C156  O34   A    
C125  C143  A    
C177  C181  S    
C126  C144  A    
O17   Zn13  S    
C17   C38   S    
C90   O14   A    
C38   C46   S    
C114  C117  T    
C19   C40   S    
C160  H4    S    
C163  H7    S    
C164  H8    S    
C151  O27   A    
C172  C176  A    
C57   C105  A    
C18   Cl2   S    
C101  H61   S    
O50   Zn14  S    
C109  C117  S    
C181  C182  T    
C10   C22   S    
C15   C19   S    
C84   H52   S    
C21   Cl5   S    
C170  H22   S    
C128  C136  A    
C93   O17   A    
C101  C109  A    
C88   H56   S    
C62   Cl14  S    
C14   H30   S    
C153  O29   A    
C73   C81   A    
C80   C89   S    
C16   H32   S    
C5    O49   A    
O26   Zn14  S    
C1    O5    A    
C104  H64   S    
C167  H19   S    
C163  C171  A    
C60   C108  A    
C92   O40   A    
C167  C173  A    
O45   Zn9   S    
C83   C99   A    
C123  H11   S    
C74   C82   A    
C158  H2    S    
C121  H9    S    
C19   C43   S    
C59   Cl11  S    
C179  C183  S    
C121  C141  A    
C3    C25   S    
C156  O36   A    
C20   C39   S    
C21   C34   S    
C153  C174  S    
O23   Zn11  S    
C192  N8    T    
C128  H16   S    
C131  C137  A    
C76   C93   S    
C162  C170  A    
C66   H42   S    
C169  C175  A    
O9    Zn7   S    
C140  C151  S    
O10   Zn8   S    
C22   Cl6   S    
C22   C46   S    
C82   H50   S    
O43   Zn7   S    
C102  C110  A    
C158  C166  A    
O1    Zn9   S    
C105  C113  S    
C17   C41   S    
C123  C131  A    
C14   C18   S    
O38   Zn2   S    
C121  C129  A    
C4    C26   S    
C13   C17   S    
C41   C49   S    
C99   C107  A    
O4    Zn6   S    
C93   O41   A    
C6    O10   A    
C8    C30   S    
C108  C116  S    
C154  O32   A    
C149  O21   A    
C190  N6    T    
C43   C51   S    
C58   Cl10  S    
C85   H53   S    
C99   H59   S    
C189  N5    T    
C25   C49   T    
C20   Cl4   S    
C97   H57   S    
C186  N2    T    
C60   C68   A    
C73   C96   S    
C31   C55   T    
C32   C56   T    
C75   C94   S    
C8    O12   A    
O29   Zn3   S    
C129  C185  S    
C132  C188  S    
O30   Zn4   S    
C77   C92   S    
O31   Zn1   S    
C70   C78   A    
C191  N7    T    
C2    O46   A    
C144  C148  S    
C61   C109  A    
C35   H36   S    
C33   H34   S    
C143  C147  S    
C9    C42   S    
C29   C53   T    
C106  C114  S    
O18   Zn14  S    
C18   C37   S    
C37   H38   S    
C12   C43   S    
C134  C140  A    
C13   C46   S    
C165  C173  A    
C65   C73   A    
C164  C180  A    
C11   H27   S    
C58   C66   A    
O47   Zn11  S    
C9    H25   S    
O48   Zn12  S    
O28   Zn16  S    
O44   Zn8   S    
O51   Zn15  S    
O1    Zn11  S    
C78   C86   A    
O2    Zn12  S    
C125  H13   S    
O39   Zn3   S    
O40   Zn4   S    
C46   C54   S    
C159  C177  A    
C15   C35   S    
C57   Cl9   S    
O21   Zn9   S    
C60   Cl12  S    
C94   O18   A    
O4    Zn8   S    
C24   C35   S    
C154  O30   A    
C33   C41   S    
C12   H28   S    
C161  H5    S    
C6    O50   A    
C149  O23   A    
C63   Cl15  S    
C16   C47   S    
O27   Zn15  S    
C171  C175  A    
O12   Zn6   S    
C58   C106  A    
C70   H46   S    
C151  O25   A    
C62   C110  A    
C9    C37   S    
C178  C182  S    
C11   C39   S    
C107  C115  S    
C131  C187  S    
C122  C142  A    
C85   C101  A    
C47   C55   S    
C125  C133  A    
C48   C56   S    
C22   C33   S    
C154  C173  S    
C74   C95   S    
C136  C192  S    
C4    O48   A    
C83   H51   S    
C7    O51   A    
C78   C91   S    
C116  C119  T    
O49   Zn13  S    
C152  O26   A    
C28   C52   T    
C44   C52   S    
C81   C97   A    
C64   C72   A    
C185  N1    T    
C3    O7    A    
C45   C53   S    
C113  C118  T    
O2    Zn10  S    
C115  C120  T    
C1    C27   S    
C2    C28   S    
C122  C130  A    
O35   Zn5   S    
C5    C31   S    
C130  C138  A    
