data_mof_unit_25070.cif
_audit_creation_date              2012-12-10T18:45:03-0500
_audit_creation_method            fapswitch 2.2
_symmetry_space_group_name_H-M    P1
_symmetry_Int_Tables_number       1
_space_group_crystal_system       triclinic
_cell_length_a                    10.779479
_cell_length_b                    9.800238
_cell_length_c                    10.686916
_cell_angle_alpha                 86.981352
_cell_angle_beta                  88.149838
_cell_angle_gamma                 90.82608
_cell_volume                      1126.68020887

loop_
_atom_site_label
_atom_site_type_symbol
_atom_type_description
_atom_site_fract_x
_atom_site_fract_y
_atom_site_fract_z
_atom_type_partial_charge
C1    C     C_R   0.261997 0.499616 0.482234 1.027370
C2    C     C_R   0.741222 0.500965 0.502391 1.008597
C3    C     C_R   0.940440 0.624288 0.448891 0.111367
C4    C     C_R   0.069410 0.622897 0.438899 0.209725
C5    C     C_R   0.589315 0.077208 0.434056 0.107891
C6    C     C_R   0.411830 0.067006 0.567495 -0.008823
C7    C     C_R   0.590363 0.933098 0.436287 0.040098
C8    C     C_R   0.410927 0.922778 0.566720 -0.062272
C9    C     C_R   0.507006 0.504362 0.258450 0.843259
C10   C     C_R   0.484616 0.495888 0.739924 0.932475
C11   C     C_R   0.459483 0.758496 0.076945 0.352305
C12   C     C_R   0.303494 0.658470 0.897429 0.277268
C13   C     C_R   0.362771 0.842704 0.031682 0.155290
C14   C     C_R   0.280673 0.790854 0.942069 0.118223
C15   C     C_R   0.408937 0.587720 0.938692 -0.106743
C16   C     C_R   0.455472 0.618920 0.052591 -0.151154
C17   C     C_R   0.513585 0.512576 0.123114 -0.010276
C18   C     C_R   0.469399 0.484907 0.874066 0.001341
C19   C     C_R   0.555073 0.396618 0.064611 -0.075161
C20   C     C_R   0.539775 0.387295 0.938285 -0.076043
C21   C     C_R   0.062545 0.375823 0.473183 0.282654
C22   C     C_R   0.941146 0.381348 0.518179 0.339921
C23   C     C_R   0.875843 0.503825 0.495320 -0.296961
C24   C     C_R   0.130498 0.498479 0.458387 -0.300992
H1    H     H_    0.602119 0.315316 0.115852 0.187803
H2    H     H_    0.583084 0.304549 0.891100 0.183786
H3    H     H_    0.659665 0.136059 0.379627 0.164741
H4    H     H_    0.341955 0.118721 0.620667 0.184848
H5    H     H_    0.661960 0.881877 0.386480 0.162691
H6    H     H_    0.339637 0.863846 0.619694 0.184799
N1    N     N_R   0.500000 0.857200 0.500000 -0.116268
N2    N     N_R   0.500000 0.142810 0.500000 -0.106429
O1    O     O_R   0.316770 0.614620 0.499990 -0.593025
O2    O     O_R   0.683230 0.614620 0.500010 -0.607012
O3    O     O_R   0.316800 0.385290 0.500000 -0.569171
O4    O     O_R   0.683200 0.385290 0.500000 -0.583415
O5    O     O_R   0.500010 0.614690 0.316770 -0.630327
O6    O     O_R   0.499990 0.614690 0.683230 -0.611230
O7    O     O_R   0.500040 0.385360 0.316770 -0.595960
O8    O     O_R   0.499960 0.385360 0.683230 -0.611212
Zn1   Zn    Zn3+2 0.500000 0.653120 0.500000 1.011123
Zn2   Zn    Zn3+2 0.500000 0.346880 0.500000 1.064160
S1    S     S_3+6 0.610994 0.831927 0.066052 0.067628
O9    O     O_2   0.626388 0.942910 0.155789 -0.286342
O10   O     O_2   0.706374 0.723812 0.088696 -0.319490
O11   O     O_3   0.633716 0.900704 0.919413 -0.526002
H7    H     H_    0.719064 0.939826 0.917126 0.405594
S2    S     S_3+6 0.179821 0.557155 0.843756 0.075603
O12   O     O_2   0.156770 0.595480 0.709436 -0.309770
O13   O     O_2   0.209133 0.407594 0.856204 -0.247559
O14   O     O_3   0.050272 0.584368 0.930247 -0.483691
H8    H     H_    0.983629 0.533782 0.889761 0.405399
S3    S     S_3+6 0.348257 0.009109 0.091466 0.109557
O15   O     O_2   0.421681 0.109636 0.006948 -0.243437
O16   O     O_2   0.215703 0.054274 0.099295 -0.186610
O17   O     O_3   0.404743 0.011683 0.236010 -0.523891
H9    H     H_    0.331708 0.016866 0.294021 0.392993
S4    S     S_3+6 0.157632 0.892891 0.880233 0.159495
O18   O     O_2   0.112211 0.844234 0.758874 -0.212609
O19   O     O_2   0.050963 0.887836 0.974525 -0.185981
O20   O     O_3   0.203837 0.056373 0.852218 -0.395929
H10   H     H_    0.289847 0.050734 0.818278 0.335210
S5    S     S_3+6 0.111451 0.227260 0.398208 0.075641
O21   O     O_2   0.148671 0.119602 0.494095 -0.255564
O22   O     O_2   0.005756 0.171625 0.326816 -0.271332
O23   O     O_3   0.231576 0.264074 0.297063 -0.498951
H11   H     H_    0.198820 0.330244 0.233564 0.364685
S6    S     S_3+6 0.885664 0.244038 0.621663 0.104342
O24   O     O_2   0.835318 0.131264 0.547179 -0.303113
O25   O     O_2   0.991356 0.189936 0.697019 -0.158003
O26   O     O_3   0.774706 0.295882 0.721628 -0.571086
H12   H     H_    0.747225 0.211563 0.770508 0.379319
N3    N     N_2   0.876774 0.746767 0.415588 -0.311471
H13   H     H_    0.877059 0.818138 0.483148 0.271963
C25   C     C_3   0.897922 0.803777 0.288534 -0.568276
H14   H     H_    0.962105 0.893255 0.287061 0.260186
H15   H     H_    0.810669 0.842156 0.252075 0.287977
H16   H     H_    0.933756 0.726253 0.224732 0.270406
N4    N     N_2   0.137980 0.744990 0.403927 -0.264243
H17   H     H_    0.105506 0.836435 0.434109 0.285423
C26   C     C_3   0.201200 0.748869 0.282247 -0.723672
H18   H     H_    0.300129 0.774945 0.293767 0.264576
H19   H     H_    0.196068 0.649059 0.237474 0.215912
H20   H     H_    0.159162 0.826762 0.218939 0.275853

loop_
_geom_bond_atom_site_label_1
_geom_bond_atom_site_label_2
_ccdc_geom_bond_type
C15   C18   A    
C6    N2    A    
S5    O22   D    
C7    H5    S    
N3    H13   S    
C3    C23   A    
C19   C20   A    
C12   S2    S    
C26   H18   S    
C1    O1    A    
S3    O15   D    
C4    C24   A    
S4    O19   D    
C15   C16   A    
C9    O7    A    
O17   H9    S    
C10   O8    A    
O3    Zn2   S    
C5    H3    S    
O4    Zn2   S    
S2    O14   S    
C6    H4    S    
S6    O24   D    
C11   S1    S    
C5    N2    A    
C2    O2    A    
S4    O20   S    
O8    Zn2   S    
O23   H11   S    
S5    O23   S    
C13   C14   A    
N3    C25   S    
O2    Zn1   S    
C3    N3    S    
C26   H19   S    
O7    Zn2   S    
C13   S3    S    
S3    O16   D    
C14   S4    S    
C7    N1    A    
O14   H8    S    
C4    N4    S    
N4    C26   S    
C16   C17   A    
C6    C8    A    
C25   H16   S    
S5    O21   D    
C25   H14   S    
C25   H15   S    
C11   C16   A    
C12   C15   A    
C9    O5    A    
S1    O10   D    
C22   S6    S    
O6    Zn1   S    
C9    C17   S    
S2    O12   D    
C12   C14   A    
S1    O9    D    
C3    C4    A    
C26   H20   S    
C1    O3    A    
C5    C7    A    
S3    O17   S    
C2    O4    A    
O11   H7    S    
N1    Zn1   S    
C8    N1    A    
C10   O6    A    
C8    H6    S    
S4    O18   D    
O1    Zn1   S    
O26   H12   S    
C11   C13   A    
C20   H2    S    
C10   C18   S    
S6    O26   S    
S2    O13   D    
C17   C19   A    
C18   C20   A    
O5    Zn1   S    
O20   H10   S    
C19   H1    S    
S1    O11   S    
C21   S5    S    
N4    H17   S    
C1    C24   S    
S6    O25   D    
C21   C24   A    
C2    C23   S    
N2    Zn2   S    
C22   C23   A    
C21   C22   A    
