data_mof_unit_52266.cif
_audit_creation_date              2013-03-05T15:51:18-0500
_audit_creation_method            fapswitch 2.2
_symmetry_space_group_name_H-M    P1
_symmetry_Int_Tables_number       1
_space_group_crystal_system       triclinic
_cell_length_a                    8.387738
_cell_length_b                    17.456911
_cell_length_c                    17.521215
_cell_angle_alpha                 99.237301
_cell_angle_beta                  96.354113
_cell_angle_gamma                 97.178711
_cell_volume                      2489.91867544

loop_
_atom_site_label
_atom_site_type_symbol
_atom_site_description
_atom_site_fract_x
_atom_site_fract_y
_atom_site_fract_z
_atom_type_partial_charge
P1    P     P_3+3 0.996700 0.679700 0.572930 0.444143
O1    O     O_2   0.169780 0.691990 0.551040 -0.364334
O2    O     O_3   0.896620 0.594010 0.545570 -0.415780
O3    O     O_3   0.384860 0.644020 0.410190 -0.358711
O4    O     O_2   0.359481 0.785450 0.482213 -0.377028
O5    O     O_3   0.028691 0.698952 0.675115 -0.582390
O6    O     O_3   0.331452 0.764389 0.329246 -0.482139
H1    H     H_    0.496225 0.709990 0.266435 0.058126
C1    C     C_3   0.344191 0.767890 0.192473 -0.382525
H2    H     H_    0.236869 0.798077 0.200164 0.221767
P2    P     P_3+3 0.328720 0.438370 0.322170 0.470582
P3    P     P_3+3 0.912667 0.594161 0.267054 0.486216
O7    O     O_2   0.160250 0.462050 0.312130 -0.303590
O8    O     O_3   0.957280 0.604490 0.369120 -0.354285
O9    O     O_2   0.027615 0.541192 0.229707 -0.372647
O10   O     O_3   0.269015 0.336436 0.304688 -0.575525
O11   O     O_3   0.979329 0.684637 0.241450 -0.495969
C2    C     C_3   0.870449 0.738396 0.258023 0.778208
H3    H     H_    0.768513 0.715344 0.287202 -0.021988
C3    C     C_3   0.800282 0.760211 0.181432 -1.060792
H4    H     H_    0.899436 0.780372 0.148968 0.271153
H5    H     H_    0.722815 0.708426 0.144495 0.238459
C4    C     C_3   0.781692 0.235105 0.286493 0.648507
H6    H     H_    0.715620 0.192615 0.316848 -0.005850
C5    C     C_3   0.952642 0.214906 0.282864 -1.005877
H7    H     H_    0.024068 0.224849 0.341344 0.236801
H8    H     H_    0.946495 0.152237 0.256285 0.206097
H9    H     H_    0.016527 0.251413 0.246730 0.294405
Ba1   Ba    Ba6+2 0.160000 0.538340 0.465920 1.558442
C6    C     C_3   0.071376 0.631719 0.702149 0.420445
H10   H     H_    0.187928 0.619655 0.682975 0.112056
H11   H     H_    0.978213 0.579486 0.679683 0.123354
C7    C     C_3   0.087412 0.645061 0.791172 -1.050689
H12   H     H_    0.128674 0.707640 0.816718 0.271935
H13   H     H_    0.175782 0.609619 0.814490 0.249348
H14   H     H_    0.968899 0.627117 0.810517 0.257653
C8    C     C_3   0.379766 0.294610 0.267448 0.746335
H15   H     H_    0.505388 0.325434 0.283937 0.103373
C9    C     C_3   0.334813 0.281430 0.178333 -1.030858
H16   H     H_    0.202452 0.278887 0.161855 0.257234
H17   H     H_    0.371258 0.226062 0.149540 0.253468
H18   H     H_    0.399440 0.329201 0.154178 0.225040
P4    P     P_3+3 0.813590 0.320290 0.427010 0.490815
O12   O     O_2   0.640500 0.307960 0.448930 -0.361125
O13   O     O_3   0.913680 0.405980 0.454370 -0.381549
O14   O     O_3   0.425430 0.355970 0.589750 -0.348796
O15   O     O_3   0.783350 0.312783 0.325075 -0.544576
P5    P     P_3+3 0.887586 0.397076 0.731946 0.485290
O16   O     O_3   0.389690 0.539950 0.593560 -0.415101
O17   O     O_3   0.853010 0.395500 0.630820 -0.371520
O18   O     O_2   0.766801 0.446142 0.770148 -0.375891
O19   O     O_3   0.824791 0.301306 0.746769 -0.513873
Ba2   Ba    Ba6+2 0.650170 0.461650 0.534010 1.539159
P6    P     P_3+3 0.437351 0.743856 0.413810 0.463118
C10   C     C_3   0.436837 0.763845 0.272015 0.390499
H19   H     H_    0.531568 0.816331 0.288663 -0.016345
H20   H     H_    0.423860 0.802925 0.160103 0.157478
O20   O     O_3   0.420600 0.460050 0.406370 -0.418218
C11   C     C_3   0.539445 0.715408 0.737549 0.827301
C12   C     C_3   0.483373 0.781892 0.794286 -0.384382
H21   H     H_    0.515040 0.774140 0.855666 0.207987
H22   H     H_    0.349413 0.777108 0.783538 0.193648
P7    P     P_3+3 0.471552 0.553971 0.694005 0.432125
O21   O     O_2   0.650040 0.537900 0.687840 -0.365300
O22   O     O_3   0.473444 0.644622 0.757807 -0.637874
H23   H     H_    0.725264 0.807814 0.192656 0.223433
C13   C     C_3   0.957898 0.258886 0.746965 0.593758
H24   H     H_    0.035958 0.274470 0.702419 -0.002331
C14   C     C_3   0.894785 0.170218 0.722664 -0.398599
H25   H     H_    0.781077 0.161193 0.681594 0.223752
H26   H     H_    0.984215 0.142294 0.689611 0.102828
P8    P     P_3+3 0.384944 0.251839 0.581138 0.488641
C15   C     C_3   0.385794 0.156514 0.681584 0.390712
H27   H     H_    0.252918 0.154877 0.670726 0.024399
O23   O     O_2   0.491190 0.218385 0.520982 -0.389854
O24   O     O_3   0.470486 0.227272 0.668592 -0.459444
H28   H     H_    0.411805 0.154229 0.744442 0.091536
H29   H     H_    0.448350 0.088949 0.574473 0.280019
C16   C     C_3   0.439932 0.083737 0.636173 -0.995394
H30   H     H_    0.351243 0.031240 0.637616 0.214548
H31   H     H_    0.559530 0.073625 0.662837 0.252636
C17   C     C_2   0.764469 0.719531 0.467713 -0.365066
C18   C     C_3   0.664953 0.771386 0.425666 0.077505
C19   C     C_2   0.715456 0.857393 0.454377 -0.216186
C20   C     C_2   0.854808 0.884780 0.502603 0.138691
C21   C     C_2   0.945955 0.826568 0.537737 -0.307809
C22   C     C_1   0.892549 0.749551 0.521236 0.333501
C23   C     C_R   0.102352 0.134094 0.525536 -0.348911
C24   C     C_R   0.165989 0.213795 0.541517 0.177380
C25   C     C_R   0.915255 0.244776 0.474565 0.230847
C26   C     C_R   0.849105 0.164718 0.463320 -0.305956
C27   C     C_R   0.940599 0.109123 0.491031 0.170120
C28   C     C_2   0.920796 0.970921 0.519653 -0.170325
C29   C     C_2   0.870078 0.024383 0.477031 -0.163701
C30   C     C_R   0.067453 0.267553 0.519412 -0.163690
H32   H     H_    0.773486 0.006645 0.428740 0.117635
H33   H     H_    0.058984 0.847978 0.576060 0.148250
H34   H     H_    0.178790 0.091383 0.537808 0.154945
H35   H     H_    0.017590 0.990000 0.567982 0.124427
H36   H     H_    0.640650 0.896028 0.430046 0.125005
H37   H     H_    0.728032 0.145419 0.432566 0.144275
H38   H     H_    0.733000 0.656596 0.449417 0.164234
H39   H     H_    0.549057 0.520127 0.852958 0.156900
H40   H     H_    0.720993 0.560828 0.108307 0.148929
C31   C     C_R   0.601530 0.522648 0.279425 -0.405239
C32   C     C_R   0.443866 0.484679 0.252585 0.274393
C33   C     C_R   0.382260 0.477779 0.173099 -0.287758
C34   C     C_R   0.481934 0.504670 0.120088 0.087145
C35   C     C_R   0.642073 0.540876 0.148279 -0.295161
C36   C     C_R   0.701128 0.550561 0.228110 0.202305
C37   C     C_R   0.425952 0.492923 0.830608 -0.219073
C38   C     C_R   0.369189 0.487304 0.750627 0.388204
C39   C     C_R   0.099666 0.436750 0.774284 0.210767
C40   C     C_R   0.154576 0.445289 0.854536 -0.238213
C41   C     C_R   0.319013 0.472266 0.883232 0.065364
C42   C     C_1   0.375405 0.483350 0.966905 -0.008795
C43   C     C_1   0.422811 0.492972 0.036658 -0.021443
C44   C     C_R   0.207319 0.458462 0.723776 -0.488159
H41   H     H_    0.069907 0.430559 0.894160 0.140900
H42   H     H_    0.259908 0.448602 0.152149 0.162621
H43   H     H_    0.649520 0.527889 0.340270 0.163898
H44   H     H_    0.160827 0.462110 0.665110 0.127686
C45   C     C_3   0.369837 0.215024 0.294701 -0.965833
H45   H     H_    0.246775 0.181572 0.278506 0.258757
H46   H     H_    0.451133 0.177454 0.266788 0.202605
H47   H     H_    0.400931 0.223281 0.358879 0.258757
C46   C     C_3   0.290851 0.686643 0.142585 -0.792904
H48   H     H_    0.398398 0.661738 0.123549 0.227347
H49   H     H_    0.208174 0.691162 0.089963 0.243481
H50   H     H_    0.227223 0.646416 0.175975 0.311300
C47   C     C_3   0.726532 0.725288 0.752556 -0.865386
H51   H     H_    0.769784 0.735205 0.816118 0.220923
H52   H     H_    0.770779 0.671839 0.726717 0.267808
H53   H     H_    0.782198 0.775310 0.727794 0.232916
N1    N     N_2   0.471461 0.718611 0.658514 -0.113693
H54   H     H_    0.391178 0.757781 0.651033 0.185654
C48   C     C_3   0.566152 0.704189 0.596255 -0.764493
H55   H     H_    0.629482 0.761450 0.588807 0.202727
H56   H     H_    0.483777 0.675301 0.544023 0.303102
H57   H     H_    0.651840 0.662508 0.606163 0.238992
C49   C     C_3   0.554181 0.865381 0.786677 -1.000108
H58   H     H_    0.685395 0.877873 0.809297 0.275382
H59   H     H_    0.536721 0.874253 0.725161 0.265638
H60   H     H_    0.492160 0.908331 0.821870 0.270008
N2    N     N_2   0.052473 0.276551 0.824129 -0.117333
H61   H     H_    0.989418 0.268617 0.870221 0.200258
C50   C     C_3   0.213420 0.254865 0.830976 -1.015796
H62   H     H_    0.206074 0.190083 0.822082 0.251751
H63   H     H_    0.277817 0.279894 0.890258 0.273984
H64   H     H_    0.283751 0.279133 0.787999 0.269786
N3    N     N_2   0.873161 0.131203 0.788979 -0.092219
H65   H     H_    0.896634 0.074045 0.780825 0.187078
C51   C     C_3   0.730930 0.141602 0.827082 -0.849697
H66   H     H_    0.756284 0.133546 0.888595 0.233457
H67   H     H_    0.627795 0.096676 0.798005 0.233012
H68   H     H_    0.697816 0.201198 0.827056 0.283580
C52   C     C_3   0.962327 0.811498 0.312619 -0.835569
H69   H     H_    0.013127 0.795346 0.368111 0.260775
H70   H     H_    0.063125 0.839128 0.285768 0.244860
H71   H     H_    0.879674 0.855377 0.325688 0.187179
N4    N     N_2   0.135779 0.345618 0.533277 -0.142758
H72   H     H_    0.070443 0.385724 0.558603 0.195609
C53   C     C_3   0.222235 0.366061 0.472049 -0.501726
H73   H     H_    0.293656 0.422402 0.497911 0.291412
H74   H     H_    0.141855 0.368009 0.419042 0.249329
H75   H     H_    0.304974 0.323599 0.454199 0.219833
N5    N     N_2   0.697412 0.225135 0.207456 -0.129988
H76   H     H_    0.679330 0.168183 0.177451 0.134284
C54   C     C_3   0.741994 0.283217 0.159897 -0.849954
H77   H     H_    0.653627 0.272951 0.105961 0.232041
H78   H     H_    0.863922 0.278340 0.142343 0.238544
H79   H     H_    0.739277 0.343499 0.191321 0.269173

loop_
_geom_bond_atom_site_label_1
_geom_bond_atom_site_label_2
_geom_bond_distance
_ccdc_geom_bond_type
P1    C22   1.875121 S    
C38   C44   1.389234 A    
C10   H19   1.112154 S    
P7    O22   1.782142 S    
C52   H69   1.110290 S    
O16   P7    1.783512 S    
P2    O7    1.520838 D    
C15   H27   1.105682 S    
C50   H62   1.109463 S    
O6    C10   1.407903 S    
P8    O24   1.758185 S    
C47   H53   1.110558 S    
P3    C36   1.849566 S    
N4    H72   1.018526 S    
N1    H54   1.030780 S    
N5    C54   1.451801 S    
Ba1   O16   2.779678 S    
C20   C21   1.512254 S    
C34   C35   1.410106 A    
C5    H9    1.101550 S    
C48   H56   1.092712 S    
C11   C47   1.545265 S    
C28   C29   1.364677 D    
O1    Ba1   2.838863 S    
C12   H22   1.108885 S    
C50   H63   1.110263 S    
C31   C36   1.396030 A    
C2    H3    1.109577 S    
C49   H59   1.109705 S    
C44   H44   1.072943 S    
H40   C35   1.083197 S    
Ba2   O21   2.808130 S    
C45   H46   1.103139 S    
C32   C33   1.411523 A    
C41   C42   1.463913 S    
C7    H14   1.109951 S    
C42   C43   1.220595 T    
C2    C3    1.528921 S    
H39   C37   1.083198 S    
P1    O1    1.540301 D    
C54   H77   1.109939 S    
P7    C38   1.839935 S    
C14   H26   1.110220 S    
C21   H33   1.085973 S    
N2    C50   1.444511 S    
C8    C45   1.535598 S    
C20   C28   1.506002 S    
O12   Ba2   2.839335 S    
P4    Ba2   3.378186 S    
P5    O18   1.546293 D    
C23   C27   1.407938 A    
P3    O11   1.752351 S    
C13   N2    1.455990 S    
N3    H65   1.031671 S    
C1    C10   1.535171 S    
C51   H67   1.107964 S    
P2    O20   1.552357 S    
C1    H2    1.108512 S    
C28   H35   1.084819 S    
O14   P8    1.785716 S    
O3    Ba1   2.833818 S    
C6    C7    1.527871 S    
O10   C8    1.404478 S    
C39   C44   1.393252 A    
P5    O17   1.758675 S    
O13   Ba2   2.925904 S    
C11   C12   1.557549 S    
C52   H70   1.108053 S    
C54   H78   1.109389 S    
C26   H37   1.081778 S    
P8    O23   1.544842 D    
H1    C10   1.113490 S    
C27   C29   1.493675 S    
P6    C18   1.889320 S    
N4    C53   1.426380 S    
N5    H76   1.031837 S    
N2    H61   1.031126 S    
C9    H18   1.104324 S    
C15   C16   1.533934 S    
C48   H57   1.104442 S    
O17   Ba2   2.754353 S    
C4    O15   1.412391 S    
C13   H24   1.117435 S    
P4    C25   1.906695 S    
O4    P6    1.550039 D    
C45   H45   1.103768 S    
C53   H75   1.109531 S    
C19   C20   1.349359 D    
C9    H17   1.110680 S    
C49   H60   1.110436 S    
C26   C27   1.421803 A    
C16   H31   1.105783 S    
H29   C16   1.108523 S    
C45   H47   1.107644 S    
C5    H7    1.104524 S    
P7    O21   1.569316 D    
Ba1   O13   2.865775 S    
C12   H21   1.112622 S    
P1    O2    1.593424 S    
C19   H36   1.081291 S    
C24   C30   1.397661 A    
P4    O12   1.540622 D    
C46   H49   1.110271 S    
C8    H15   1.106467 S    
C12   C49   1.535667 S    
P2    O10   1.754820 S    
C18   C19   1.496041 S    
P3    O9    1.543060 D    
C4    H6    1.108753 S    
C50   H64   1.110304 S    
P2    C32   1.858701 S    
P1    Ba1   3.377709 S    
O11   C2    1.408722 S    
C17   H38   1.084068 S    
C31   H43   1.082316 S    
C1    C46   1.527316 S    
Ba1   O20   2.920290 S    
C51   H68   1.109877 S    
C29   H32   1.081513 S    
P4    O13   1.593456 S    
O19   C13   1.414743 S    
C4    N5    1.457021 S    
O5    C6    1.405715 S    
C3    H5    1.109305 S    
C52   H71   1.109662 S    
C15   O24   1.410310 S    
C17   C22   1.336685 D    
O7    Ba1   2.807899 S    
C33   C34   1.412737 A    
C47   H51   1.111233 S    
C33   H42   1.083199 S    
C9    H16   1.109285 S    
C39   C40   1.408444 A    
C31   C32   1.397334 A    
C3    H23   1.109404 S    
N1    C48   1.427503 S    
C37   C38   1.413023 A    
O3    P6    1.732590 S    
C3    H4    1.111263 S    
C21   C22   1.337131 D    
C34   C43   1.463841 S    
C40   H41   1.083189 S    
P3    O8    1.761288 S    
C47   H52   1.096092 S    
C25   C30   1.398578 A    
Ba2   O20   2.779108 S    
C40   C41   1.408916 A    
C5    H8    1.110583 S    
C48   H55   1.105856 S    
C30   N4    1.382867 S    
C46   H50   1.107963 S    
C8    C9    1.538101 S    
C2    C52   1.528600 S    
C35   C36   1.407202 A    
C11   O22   1.404563 S    
C6    H11   1.111574 S    
P8    C24   1.887011 S    
O2    Ba2   2.866417 S    
O2    Ba1   2.925068 S    
C25   C26   1.411911 A    
C6    H10   1.101988 S    
Ba1   Ba2   4.574068 S    
O16   Ba2   2.919527 S    
O14   Ba2   2.833285 S    
C11   N1    1.450500 S    
C7    H13   1.108091 S    
C7    H12   1.108052 S    
C1    H20   1.111482 S    
N3    C51   1.446862 S    
C14   H25   1.107433 S    
C53   H73   1.086801 S    
C16   H30   1.111351 S    
P5    O19   1.757698 S    
C4    C5    1.524390 S    
C23   C24   1.398342 A    
P2    Ba1   3.374480 S    
C17   C18   1.525046 S    
P1    O5    1.751699 S    
C15   H28   1.106923 S    
C53   H74   1.093403 S    
C37   C41   1.411986 A    
C54   H79   1.110781 S    
O8    Ba1   2.753641 S    
O6    P6    1.752596 S    
C13   C14   1.546341 S    
C51   H66   1.109974 S    
C49   H58   1.109801 S    
C14   N3    1.454878 S    
P4    O15   1.757179 S    
C23   H34   1.074084 S    
C46   H48   1.109979 S    
P5    C39   1.851863 S    
