data_mof_unit_13111.cif
_audit_creation_date              2012-10-26T18:45:09-0400
_audit_creation_method            fapswitch 2.2
_symmetry_space_group_name_H-M    P1
_symmetry_Int_Tables_number       1
_space_group_crystal_system       triclinic
_cell_length_a                    15.992946
_cell_length_b                    14.735045
_cell_length_c                    10.900512
_cell_angle_alpha                 90.273613
_cell_angle_beta                  89.731965
_cell_angle_gamma                 90.001245
_cell_volume                      2568.72214903

loop_
_atom_site_label
_atom_site_type_symbol
_atom_type_description
_atom_site_fract_x
_atom_site_fract_y
_atom_site_fract_z
_atom_type_partial_charge
C1    C     C_R   0.340916 0.500027 0.501937 0.569364
C2    C     C_1   0.177163 0.502615 0.512262 -0.006202
C3    C     C_1   0.252053 0.500520 0.507092 0.063387
C4    C     C_1   0.747861 0.500955 0.507764 0.146954
C5    C     C_R   0.574789 0.952101 0.486156 0.286409
C6    C     C_R   0.574831 0.047768 0.485863 0.278111
C7    C     C_R   0.499146 0.499630 0.259072 0.580573
C8    C     C_R   0.498796 0.902918 0.498945 -0.090156
C9    C     C_R   0.499658 0.097186 0.505973 -0.099247
C10   C     C_R   0.422521 0.951782 0.512544 0.220302
C11   C     C_R   0.424242 0.048607 0.527989 0.208969
C12   C     C_3   0.558158 0.416012 0.924568 0.361691
C13   C     C_1   0.499488 0.802630 0.499771 0.266522
C14   C     C_1   0.499891 0.197408 0.502280 0.248926
C15   C     C_R   0.659037 0.500089 0.502620 0.579635
C16   C     C_R   0.503673 0.500432 0.740422 0.533820
C17   C     C_3   0.533103 0.603858 0.072943 0.376100
C18   C     C_3   0.402942 0.477511 0.066860 0.281120
C19   C     C_3   0.547310 0.592800 0.927522 0.385471
C20   C     C_3   0.409041 0.498595 0.922329 0.389324
C21   C     C_3   0.568112 0.417345 0.071359 0.357780
C22   C     C_3   0.500596 0.499171 0.121739 -0.244385
C23   C     C_R   0.956079 0.570812 0.445781 0.270117
C24   C     C_3   0.504411 0.501166 0.878610 -0.024597
C25   C     C_R   0.955245 0.448750 0.598513 0.203260
C26   C     C_R   0.912328 0.508325 0.519862 -0.089024
C27   C     C_R   0.043183 0.447659 0.597965 0.247127
C28   C     C_R   0.043950 0.569178 0.443255 0.251314
C29   C     C_R   0.087423 0.506868 0.518530 -0.050521
C30   C     C_1   0.822692 0.503783 0.513079 0.120378
Cu1   Cu    Cu3+1 0.500000 0.589220 0.500040 1.173148
Cu2   Cu    Cu3+1 0.500000 0.410780 0.500040 1.149804
H1    H     H_    0.665508 0.767348 0.265353 0.381612
H2    H     H_    0.390094 0.383086 0.827798 0.400691
H3    H     H_    0.794654 0.496785 0.041231 0.386004
H4    H     H_    0.634485 0.212139 0.257229 0.376682
H5    H     H_    0.634607 0.405008 0.778765 0.343481
H6    H     H_    0.557077 0.294724 0.842525 0.388888
H7    H     H_    0.145769 0.626798 0.376873 0.343251
H8    H     H_    0.144241 0.397608 0.675186 0.359986
H9    H     H_    0.846514 0.642289 0.171669 0.401772
H10   H     H_    0.852441 0.484619 0.811867 0.351835
H11   H     H_    0.646455 0.156096 0.479452 0.332444
H12   H     H_    0.359683 0.375222 0.279091 0.357420
H13   H     H_    0.645951 0.843346 0.477817 0.328589
H14   H     H_    0.250036 0.816741 0.634783 0.380112
H15   H     H_    0.223240 0.081665 0.688188 0.398203
H16   H     H_    0.348742 0.775133 0.058326 0.389502
H17   H     H_    0.292323 0.649435 0.275304 0.381907
H18   H     H_    0.556875 0.715807 0.855950 0.378043
H19   H     H_    0.363287 0.589582 0.809245 0.377976
H20   H     H_    0.639463 0.593510 0.807202 0.340900
N1    N     N_1   0.499980 0.276710 0.500040 -0.139320
N2    N     N_1   0.499980 0.723290 0.500040 -0.130904
O1    O     O_R   0.380310 0.575320 0.500060 -0.472366
O2    O     O_2   0.695999 0.680439 0.062918 -0.186498
O3    O     O_3   0.610287 0.747738 0.234038 -0.434630
O4    O     O_2   0.268964 0.366950 0.023000 -0.099809
O5    O     O_2   0.397948 0.286657 0.012151 -0.139773
O6    O     O_3   0.335878 0.328017 0.225454 -0.383347
O7    O     O_2   0.256588 0.949180 0.456740 -0.149620
O8    O     O_2   0.334210 0.809906 0.420463 -0.264898
O9    O     O_3   0.301139 0.853810 0.645913 -0.447532
O10   O     O_2   0.359936 0.192317 0.653905 -0.249228
O11   O     O_2   0.284306 0.139796 0.472474 -0.177389
O12   O     O_R   0.380310 0.424680 0.500060 -0.487918
O13   O     O_3   0.274448 0.045351 0.673344 -0.400324
O14   O     O_2   0.453293 0.729130 0.232837 -0.174203
O15   O     O_2   0.512174 0.787625 0.047733 -0.192606
O16   O     O_3   0.371295 0.715303 0.032759 -0.374679
O17   O     O_2   0.261187 0.591203 0.052907 -0.127082
O18   O     O_2   0.254368 0.481466 0.211136 -0.245616
O19   O     O_3   0.343584 0.615042 0.253676 -0.477682
O20   O     O_3   0.512988 0.668655 0.866015 -0.597051
O21   O     O_3   0.375320 0.584168 0.898276 -0.523529
O22   O     O_3   0.632878 0.588959 0.897606 -0.588228
O23   O     O_R   0.499990 0.575340 0.317720 -0.395975
O24   O     O_3   0.359268 0.438141 0.851469 -0.620610
O25   O     O_2   0.700069 0.431613 0.239305 -0.204421
O26   O     O_2   0.724598 0.344718 0.055135 -0.135129
O27   O     O_3   0.734836 0.513686 0.036160 -0.380500
O28   O     O_2   0.480913 0.273534 0.206216 -0.208856
O29   O     O_2   0.574551 0.226906 0.043622 -0.181506
O30   O     O_3   0.631997 0.278957 0.248295 -0.435762
O31   O     O_3   0.638430 0.418852 0.867565 -0.581357
O32   O     O_3   0.517865 0.335754 0.886811 -0.644416
O33   O     O_3   0.084726 0.627623 0.363729 -0.571723
O34   O     O_R   0.499990 0.424660 0.317720 -0.473510
O35   O     O_3   0.083341 0.386465 0.673660 -0.567907
O36   O     O_2   0.826515 0.687158 0.421526 -0.265272
O37   O     O_2   0.955226 0.727346 0.313425 -0.142120
O38   O     O_3   0.866507 0.594135 0.227375 -0.463112
O39   O     O_2   0.856643 0.302979 0.620127 -0.181465
O40   O     O_2   0.951962 0.329849 0.791186 -0.115331
O41   O     O_3   0.822591 0.434142 0.770732 -0.485170
O42   O     O_3   0.651385 0.089750 0.467993 -0.567584
O43   O     O_3   0.651641 0.909929 0.471677 -0.564082
O44   O     O_R   0.619690 0.575360 0.500000 -0.494616
O45   O     O_R   0.619690 0.424640 0.500000 -0.483723
O46   O     O_R   0.500010 0.575340 0.682340 -0.490348
O47   O     O_R   0.500010 0.424660 0.682340 -0.515084
O48   O     O_2   0.665508 0.591050 0.245728 -0.234504
S1    S     S_3+6 0.629004 0.652390 0.152143 0.164349
S2    S     S_3+6 0.897660 0.374935 0.697243 0.128904
S3    S     S_3+6 0.354450 0.361673 0.080007 0.185323
S4    S     S_3+6 0.325938 0.890579 0.504551 0.114319
S5    S     S_3+6 0.334390 0.109883 0.581395 0.131378
S6    S     S_3+6 0.465044 0.707729 0.099098 0.182460
S7    S     S_3+6 0.314649 0.542354 0.144419 0.122582
S8    S     S_3+6 0.682639 0.429180 0.104052 0.198217
S9    S     S_3+6 0.559167 0.298281 0.140100 0.170179
S10   S     S_3+6 0.900519 0.649606 0.352531 0.125831

loop_
_geom_bond_atom_site_label_1
_geom_bond_atom_site_label_2
_ccdc_geom_bond_type
C8    C13   S    
C27   C29   A    
C18   S7    S    
O36   S10   D    
C6    C9    A    
C21   S8    S    
H3    O27   S    
C23   S10   S    
O5    S3    D    
C12   O31   S    
H6    O32   S    
C2    C29   S    
H5    O31   S    
C19   O22   S    
H19   O21   S    
H18   O20   S    
C5    C6    A    
Cu1   O44   S    
Cu2   O34   S    
C23   C26   A    
C7    O34   A    
C27   O35   S    
H7    O33   S    
H8    O35   S    
C18   C20   S    
C7    O23   A    
O40   S2    D    
C16   C24   S    
C21   C22   S    
O39   S2    D    
H15   O13   S    
C21   S9    S    
O15   S6    D    
Cu1   O23   S    
O3    S1    S    
O30   S9    S    
H10   O41   S    
C20   C24   S    
C17   S6    S    
C15   O45   A    
C16   O46   A    
C25   C26   A    
Cu1   O46   S    
C12   C21   S    
C20   O21   S    
C1    C3    S    
C1    O12   A    
O37   S10   D    
C9    C14   S    
Cu1   Cu2   S    
C14   N1    T    
C28   O33   S    
H11   O42   S    
C23   C28   A    
O9    S4    S    
O7    S4    D    
C9    C11   A    
C5    O43   S    
C26   C30   S    
C6    O42   S    
C11   S5    S    
H17   O19   S    
C10   S4    S    
C15   O44   A    
Cu2   N1    S    
O41   S2    S    
O10   S5    D    
Cu2   O12   S    
C13   N2    T    
O18   S7    D    
C28   C29   A    
H1    O3    S    
O25   S8    D    
C18   C22   S    
C19   O20   S    
O38   S10   S    
H4    O30   S    
O2    S1    D    
H16   O16   S    
H20   O22   S    
C5    C8    A    
C25   S2    S    
O19   S7    S    
O8    S4    D    
C12   O32   S    
C25   C27   A    
C7    C22   S    
C12   C24   S    
C17   C22   S    
Cu2   O45   S    
C20   O24   S    
H14   O9    S    
O4    S3    D    
O28   S9    D    
C4    C15   S    
C19   C24   S    
C1    O1    A    
C18   S3    S    
H13   O43   S    
H2    O24   S    
O13   S5    S    
H12   O6    S    
O17   S7    D    
C17   C19   S    
C2    C3    T    
O29   S9    D    
Cu1   N2    S    
C17   S1    S    
O48   S1    D    
C10   C11   A    
C16   O47   A    
H9    O38   S    
O27   S8    S    
C8    C10   A    
O26   S8    D    
Cu2   O47   S    
O16   S6    S    
O14   S6    D    
Cu1   O1    S    
O11   S5    D    
C4    C30   T    
O6    S3    S    
