data_mof_unit_67072.cif
_audit_creation_date              2012-12-11T17:41:22-0500
_audit_creation_method            fapswitch 2.2
_symmetry_space_group_name_H-M    P1
_symmetry_Int_Tables_number       1
_space_group_crystal_system       triclinic
_cell_length_a                    8.210678
_cell_length_b                    12.627876
_cell_length_c                    14.196005
_cell_angle_alpha                 92.740569
_cell_angle_beta                  90.893318
_cell_angle_gamma                 98.192428
_cell_volume                      1454.82991301

loop_
_atom_site_label
_atom_site_type_symbol
_atom_type_description
_atom_site_fract_x
_atom_site_fract_y
_atom_site_fract_z
_atom_type_partial_charge
Ba1   Ba    Ba6+2 0.855630 0.555280 0.454520 1.639152
Ba2   Ba    Ba6+2 0.334200 0.444810 0.545490 1.637392
C1    C     C_3   0.595220 0.947291 0.176210 -0.411121
C2    C     C_R   0.182354 0.498321 0.195849 0.040060
C3    C     C_R   0.336806 0.550536 0.226092 -0.295098
C4    C     C_3   0.135255 0.800870 0.195825 0.364287
C5    C     C_R   0.449070 0.597072 0.162347 0.019770
C6    C     C_R   0.404223 0.599482 0.067303 -0.145445
C7    C     C_R   0.248013 0.550295 0.034372 0.000314
C8    C     C_R   0.137090 0.495766 0.097788 -0.025430
C9    C     C_R   0.053969 0.498433 0.900834 -0.027786
C10   C     C_R   0.943250 0.443608 0.964269 -0.000835
C11   C     C_R   0.009391 0.495804 0.802462 0.047762
C12   C     C_3   0.640747 0.856455 0.233251 0.340770
C13   C     C_R   0.857290 0.439985 0.771770 -0.284425
C14   C     C_R   0.744246 0.394319 0.835832 0.006807
C15   C     C_R   0.787632 0.394020 0.931178 -0.152893
C16   C     C_3   0.115289 0.835212 0.095707 -0.368414
C17   C     C_R   0.204230 0.553377 0.938261 -0.039028
C18   C     C_R   0.763697 0.176964 0.536895 -0.271991
C19   C     C_R   0.427311 0.813444 0.463780 -0.279338
C20   C     C_R   0.405266 0.995323 0.428627 -0.100740
C21   C     C_R   0.339677 0.887823 0.424751 -0.003817
C22   C     C_R   0.575497 0.846463 0.513468 0.056469
C23   C     C_3   0.475634 0.310047 0.257329 0.304141
C24   C     C_R   0.640888 0.957047 0.522510 -0.055867
C25   C     C_R   0.554935 0.031816 0.477740 -0.057190
C26   C     C_R   0.619010 0.141602 0.485086 0.048820
C27   C     C_R   0.853076 0.104574 0.577262 -0.015268
C28   C     C_3   0.290978 0.770917 0.709310 0.503188
C29   C     C_R   0.789652 0.995547 0.573295 -0.089653
C30   C     C_3   0.248428 0.870617 0.662919 -0.284651
C31   C     C_3   0.967095 0.236616 0.343944 0.280358
C32   C     C_3   0.949870 0.116675 0.321835 -0.356081
C33   C     C_3   0.724755 0.671933 0.737285 0.303175
C34   C     C_3   0.456699 0.287499 0.151162 -0.392071
C35   C     C_3   0.783687 0.701417 0.839060 -0.410778
C36   C     C_3   0.329555 0.857782 0.869939 -0.259365
C37   C     C_3   0.057927 0.196399 0.805705 0.373933
C38   C     C_3   0.074774 0.159235 0.905444 -0.373281
C39   C     C_3   0.557480 0.140714 0.788795 0.330843
C40   C     C_3   0.637930 0.093647 0.871207 -0.414976
C41   C     C_R   0.986172 0.441300 0.060685 -0.037914
H1    H     H_    0.730835 0.889831 0.290010 0.073792
H2    H     H_    0.822478 0.637669 0.698753 0.043827
H3    H     H_    0.544596 0.006768 0.223288 0.105843
H4    H     H_    0.906110 0.751581 0.840389 0.142115
H5    H     H_    0.791918 0.628278 0.877779 0.065746
H6    H     H_    0.697837 0.747569 0.877113 0.121971
H7    H     H_    0.526935 0.818877 0.266861 -0.053781
H8    H     H_    0.500999 0.915059 0.121367 0.108396
H9    H     H_    0.358357 0.331957 0.284439 0.017508
H10   H     H_    0.576113 0.378064 0.271149 0.059237
H11   H     H_    0.352325 0.222646 0.134927 0.128147
H12   H     H_    0.167946 0.913756 0.708276 0.137959
H13   H     H_    0.432474 0.360612 0.116250 0.065427
H14   H     H_    0.571352 0.262423 0.122740 0.117080
H15   H     H_    0.136415 0.768822 0.045445 0.059575
H16   H     H_    0.142911 0.272325 0.799732 0.100802
H17   H     H_    0.929609 0.211556 0.793845 -0.075812
H18   H     H_    0.203723 0.147814 0.921037 0.152490
H19   H     H_    0.039024 0.220050 0.957189 0.070089
H20   H     H_    0.994225 0.081938 0.913386 0.109442
H21   H     H_    0.653412 0.173833 0.739391 -0.046561
H22   H     H_    0.477871 0.075006 0.748715 0.067013
H23   H     H_    0.361863 0.925486 0.648172 0.053778
H24   H     H_    0.708473 0.030010 0.844715 0.102151
H25   H     H_    0.543015 0.058932 0.920100 0.122559
H26   H     H_    0.048142 0.726391 0.203943 0.099605
H27   H     H_    0.721724 0.157402 0.911096 0.100895
H28   H     H_    0.373083 0.550870 0.299734 0.071310
H29   H     H_    0.491873 0.638462 0.019080 0.068919
H30   H     H_    0.698801 0.356796 0.979572 0.067170
H31   H     H_    0.821701 0.438650 0.697973 0.067827
H32   H     H_    0.900000 0.396625 0.105981 0.097872
H33   H     H_    0.290185 0.598057 0.893295 0.083015
H34   H     H_    0.179225 0.846271 0.595917 0.092799
H35   H     H_    0.334771 0.049215 0.394856 0.100799
H36   H     H_    0.859824 0.942705 0.608652 0.110301
H37   H     H_    0.812499 0.261355 0.540879 0.061614
H38   H     H_    0.263220 0.784133 0.205990 -0.066730
H39   H     H_    0.375274 0.729630 0.459759 0.076580
H40   H     H_    0.988989 0.854151 0.083455 0.157899
H41   H     H_    0.205271 0.907208 0.083141 0.100845
H42   H     H_    0.356440 0.726441 0.656295 -0.003020
H43   H     H_    0.613078 0.611089 0.737282 0.042703
H44   H     H_    0.705254 0.987365 0.140835 0.127998
H45   H     H_    0.847147 0.258729 0.364580 0.003968
H46   H     H_    0.443206 0.734356 0.815702 0.182858
H47   H     H_    0.417495 0.867192 0.931028 0.095547
H48   H     H_    0.211321 0.813261 0.892177 0.123845
H49   H     H_    0.310115 0.938777 0.849632 0.126227
H50   H     H_    0.057715 0.257049 0.403021 0.081018
H51   H     H_    0.859938 0.094056 0.262833 0.114454
H52   H     H_    0.906352 0.072407 0.384143 0.083565
H53   H     H_    0.070816 0.094044 0.301449 0.146004
N1    N     N_2   0.396367 0.799881 0.792428 -0.416414
O1    O     O_2   0.887370 0.460630 0.272300 -0.467200
O2    O     O_2   0.192918 0.110061 0.566845 -0.473809
O3    O     O_3   0.098042 0.117167 0.740808 -0.603094
O4    O     O_3   0.129410 0.451380 0.388510 -0.492346
O5    O     O_3   0.575400 0.626570 0.547370 -0.494378
O6    O     O_2   0.344320 0.238700 0.455090 -0.465561
O7    O     O_3   0.513340 0.217833 0.299068 -0.652298
O8    O     O_2   0.412040 0.413992 0.835344 -0.494012
O9    O     O_3   0.456769 0.214230 0.823933 -0.589272
O10   O     O_3   0.670210 0.653170 0.329170 -0.478176
O11   O     O_2   0.787323 0.591277 0.164116 -0.495481
O12   O     O_3   0.688104 0.764378 0.695818 -0.634389
O13   O     O_3   0.017898 0.288709 0.262600 -0.640101
O14   O     O_3   0.713515 0.785449 0.173191 -0.597184
O15   O     O_2   0.845380 0.761330 0.544970 -0.453131
O16   O     O_3   0.088930 0.704860 0.376040 -0.487079
O17   O     O_2   0.000910 0.889904 0.433789 -0.484803
O18   O     O_3   0.100712 0.882568 0.259895 -0.607330
O19   O     O_2   0.302330 0.539400 0.727760 -0.491144
O20   O     O_3   0.060300 0.548700 0.611500 -0.472487
O21   O     O_3   0.519500 0.346920 0.670840 -0.459371
O22   O     O_3   0.144089 0.711184 0.735932 -0.658074
O23   O     O_3   0.614310 0.373510 0.452640 -0.481254
O24   O     O_3   0.100780 0.295230 0.623970 -0.488810
P1    P     P_3+3 0.054400 0.427280 0.286870 0.970534
P2    P     P_3+3 0.668300 0.742890 0.573060 0.976244
P3    P     P_3+3 0.132717 0.843293 0.374578 0.951986
P4    P     P_3+3 0.135310 0.572810 0.713130 0.964200
P5    P     P_3+3 0.060397 0.155501 0.626441 0.956512
P6    P     P_3+3 0.655282 0.654121 0.206383 0.953929
P7    P     P_3+3 0.526073 0.241642 0.421631 0.933651
P8    P     P_3+3 0.534559 0.343728 0.793147 0.961677

loop_
_geom_bond_atom_site_label_1
_geom_bond_atom_site_label_2
_ccdc_geom_bond_type
O9    P8    S    
C40   H25   S    
C4    H26   S    
C39   C40   S    
Ba2   O21   S    
C5    C6    A    
C28   N1    S    
C9    C17   A    
C24   C25   A    
C38   H20   S    
O3    P5    S    
C12   H1    S    
C17   H33   S    
C33   C35   S    
C31   H45   S    
C32   H53   S    
C10   C41   A    
Ba1   O15   S    
C33   H43   S    
C14   C15   A    
C28   O22   S    
Ba2   O5    S    
C13   C14   A    
C36   H49   S    
C40   H27   S    
C38   H19   S    
Ba1   Ba2   S    
Ba1   P1    S    
C30   H34   S    
Ba2   O19   S    
C16   H15   S    
C6    C7    A    
C10   C15   A    
C16   H41   S    
C35   H4    S    
C7    C8    A    
C30   H12   S    
C33   O12   S    
C11   P4    S    
C24   C29   A    
C4    H38   S    
C27   P5    S    
C15   H30   S    
Ba1   O16   S    
C36   N1    S    
Ba2   O20   S    
C7    C17   A    
C31   C32   S    
O2    P5    D    
C18   C27   A    
C41   H32   S    
C12   O14   S    
C4    C16   S    
C6    H29   S    
C39   O9    S    
C18   H37   S    
C1    H44   S    
C32   H52   S    
C20   H35   S    
O15   P2    D    
C34   H14   S    
C37   C38   S    
C3    C5    A    
C1    H8    S    
O12   P2    S    
C39   H22   S    
C18   C26   A    
Ba2   O4    S    
C36   H48   S    
C22   P2    S    
C38   H18   S    
H46   N1    S    
C35   H5    S    
Ba1   O23   S    
Ba1   P2    S    
C34   H13   S    
C35   H6    S    
O7    P7    S    
C37   H16   S    
C16   H40   S    
C2    P1    S    
Ba1   O20   S    
C28   H42   S    
C14   P8    S    
C1    C12   S    
Ba1   O10   S    
O22   P4    S    
O19   P4    D    
C11   C13   A    
O14   P6    S    
C40   H24   S    
C2    C8    A    
O5    P2    S    
C33   H2    S    
Ba1   O4    S    
C30   H23   S    
Ba2   O24   S    
O1    P1    D    
O6    P7    D    
Ba2   O23   S    
O18   P3    S    
C8    C41   A    
C32   H51   S    
C23   H10   S    
C2    C3    A    
C31   H50   S    
Ba1   O1    S    
O8    P8    D    
C9    C10   A    
O23   P7    S    
C23   O7    S    
C29   H36   S    
C21   P3    S    
C36   H47   S    
C1    H3    S    
O4    P1    S    
C20   C25   A    
C19   C21   A    
C23   H9    S    
O17   P3    D    
O24   P5    S    
C3    H28   S    
O21   P8    S    
O13   P1    S    
C28   C30   S    
C9    C11   A    
C22   C24   A    
C37   O3    S    
C12   H7    S    
O16   P3    S    
Ba2   O6    S    
C37   H17   S    
O11   P6    D    
C4    O18   S    
C34   H11   S    
C23   C34   S    
O10   P6    S    
Ba2   P4    S    
C13   H31   S    
C19   H39   S    
C27   C29   A    
C19   C22   A    
C25   C26   A    
C20   C21   A    
C31   O13   S    
C39   H21   S    
C5    P6    S    
O20   P4    S    
Ba1   O5    S    
C26   P7    S    
