data_mof_unit_32701.cif
_audit_creation_date              2012-12-10T21:29:46-0500
_audit_creation_method            fapswitch 2.2
_symmetry_space_group_name_H-M    P1
_symmetry_Int_Tables_number       1
_space_group_crystal_system       triclinic
_cell_length_a                    10.557069
_cell_length_b                    16.061985
_cell_length_c                    16.98217
_cell_angle_alpha                 87.278644
_cell_angle_beta                  91.355389
_cell_angle_gamma                 91.089968
_cell_volume                      2875.10957086

loop_
_atom_site_label
_atom_site_type_symbol
_atom_type_description
_atom_site_fract_x
_atom_site_fract_y
_atom_site_fract_z
_atom_type_partial_charge
C1    C     C_R   0.494066 0.488540 0.652798 0.888184
C2    C     C_R   0.529421 0.524152 0.097609 0.311048
C3    C     C_R   0.448037 0.403320 0.862112 -0.227419
C4    C     C_R   0.548125 0.597100 0.137709 -0.227453
C5    C     C_R   0.454693 0.404802 0.780306 -0.031523
C6    C     C_R   0.543393 0.595392 0.219595 -0.031528
C7    C     C_R   0.452645 0.764865 0.453742 -0.001734
C8    C     C_R   0.547296 0.235123 0.546275 -0.001585
C9    C     C_R   0.454664 0.852008 0.456663 -0.258538
C10   C     C_R   0.545276 0.147982 0.543342 -0.258538
C11   C     C_R   0.521432 0.890451 0.518622 0.324660
C12   C     C_R   0.505806 0.511473 0.347193 0.888493
C13   C     C_R   0.478611 0.109553 0.481334 0.324632
C14   C     C_R   0.583430 0.839223 0.575727 -0.286461
C15   C     C_R   0.416716 0.160794 0.424194 -0.286366
C16   C     C_R   0.740404 0.497251 0.512419 0.900581
C17   C     C_R   0.259503 0.502732 0.487765 0.900350
C18   C     C_R   0.579233 0.752499 0.570359 0.006219
C19   C     C_R   0.420879 0.247516 0.429589 0.006210
C20   C     C_R   0.889518 0.339219 0.510687 -0.138845
C21   C     C_R   0.110337 0.660709 0.490062 -0.139002
C22   C     C_R   0.940423 0.274326 0.470803 -0.201001
C23   C     C_R   0.479731 0.481570 0.738313 -0.081912
C24   C     C_R   0.059427 0.725542 0.530030 -0.201062
C25   C     C_R   0.039019 0.290477 0.418663 0.022649
C26   C     C_R   0.960768 0.709339 0.582111 0.022729
C27   C     C_R   0.095470 0.370698 0.413080 0.001169
C28   C     C_R   0.904245 0.629136 0.587549 0.000940
C29   C     C_R   0.053979 0.433458 0.462150 0.026791
C30   C     C_R   0.945841 0.566431 0.538454 0.026985
C31   C     C_R   0.939594 0.421100 0.501105 0.075330
C32   C     C_R   0.060275 0.578810 0.499542 0.075282
C33   C     C_R   0.122407 0.508377 0.473292 -0.228825
C34   C     C_R   0.518943 0.518551 0.261601 -0.082283
C35   C     C_R   0.877413 0.491552 0.527217 -0.229031
C36   C     C_1   0.920560 0.775353 0.630167 0.150626
C37   C     C_1   0.079205 0.224402 0.370674 0.150815
C38   C     C_1   0.178740 0.392615 0.348604 0.137707
C39   C     C_1   0.820667 0.607190 0.651870 0.137426
C40   C     C_1   0.433032 0.326990 0.742484 0.198677
C41   C     C_1   0.566554 0.673018 0.257486 0.198500
C42   C     C_R   0.488227 0.555457 0.779186 -0.207849
C43   C     C_R   0.509204 0.444796 0.220598 -0.207870
C44   C     C_R   0.481019 0.553142 0.860107 -0.156779
C45   C     C_R   0.514428 0.447338 0.139582 -0.156472
C46   C     C_R   0.465483 0.476416 0.902145 0.311008
H1    H     H_    0.595637 0.111604 0.588870 0.159794
H2    H     H_    0.101260 0.787532 0.523146 0.153771
H3    H     H_    0.495234 0.384536 0.250857 0.178006
H4    H     H_    0.502666 0.615662 0.748913 0.178080
H5    H     H_    0.504764 0.389322 0.109804 0.155154
H6    H     H_    0.489821 0.611248 0.889800 0.155168
H7    H     H_    0.432174 0.344810 0.895302 0.147419
H8    H     H_    0.563719 0.655654 0.104542 0.147454
H9    H     H_    0.599328 0.264597 0.593314 0.129065
H10   H     H_    0.400565 0.735381 0.406726 0.129011
H11   H     H_    0.404222 0.888375 0.411160 0.159770
H12   H     H_    0.634300 0.866484 0.624541 0.166398
H13   H     H_    0.365956 0.133545 0.375335 0.166373
H14   H     H_    0.625926 0.713635 0.615233 0.143777
H15   H     H_    0.374264 0.286396 0.384692 0.143752
H16   H     H_    0.811817 0.324759 0.549692 0.152450
H17   H     H_    0.187973 0.675264 0.451036 0.152751
H18   H     H_    0.898598 0.212342 0.477767 0.153741
N1    N     N_2   0.469246 0.470273 0.984942 -0.194219
N2    N     N_1   0.755814 0.589504 0.704199 -0.218546
N3    N     N_1   0.414942 0.264377 0.712755 -0.201740
N4    N     N_1   0.585842 0.735466 0.287282 -0.201366
N5    N     N_2   0.525020 0.530435 0.014822 -0.194147
N6    N     N_R   0.515300 0.716920 0.509720 -0.091416
N7    N     N_R   0.484700 0.283080 0.490280 -0.091425
N8    N     N_2   0.528485 0.978862 0.526467 -0.181069
N9    N     N_2   0.471558 0.021142 0.473480 -0.181032
N10   N     N_1   0.888697 0.828238 0.668785 -0.210604
N11   N     N_1   0.111051 0.171467 0.332112 -0.210640
N12   N     N_1   0.243330 0.410291 0.296148 -0.218708
O1    O     O_R   0.494530 0.422540 0.612660 -0.622703
O2    O     O_R   0.505470 0.577460 0.387340 -0.622494
O3    O     O_R   0.504350 0.561840 0.618900 -0.624122
O4    O     O_R   0.495650 0.438160 0.381100 -0.624023
O5    O     O_R   0.678310 0.430340 0.496890 -0.624600
O6    O     O_R   0.321690 0.569660 0.503110 -0.624805
O7    O     O_R   0.688140 0.569650 0.503130 -0.600779
O8    O     O_R   0.311860 0.430350 0.496870 -0.600843
Zn1   Zn    Zn3+2 0.493440 0.406980 0.495830 0.961218
Zn2   Zn    Zn3+2 0.506560 0.593020 0.504170 0.961197

loop_
_geom_bond_atom_site_label_1
_geom_bond_atom_site_label_2
_ccdc_geom_bond_type
C18   N6    A    
C27   C29   A    
C1    O1    A    
C14   C18   A    
C19   N7    A    
C7    N6    A    
C38   N12   T    
C15   C19   A    
C23   C42   A    
C42   C44   A    
C30   C35   A    
C24   C26   A    
C16   C35   S    
C11   C14   A    
C45   H5    S    
C27   C38   S    
C29   C33   A    
C22   C25   A    
C17   O6    A    
C25   C37   S    
N7    Zn1   S    
C40   N3    T    
C12   O2    A    
C2    N5    S    
C44   H6    S    
C37   N11   T    
O1    Zn1   S    
C17   C33   S    
C7    H10   S    
C8    H9    S    
C44   C46   A    
C41   N4    T    
C2    C45   A    
C14   H12   S    
C21   C32   A    
C24   H2    S    
O8    Zn1   S    
C46   N1    S    
C4    C6    A    
C11   N8    S    
C43   H3    S    
C28   C39   S    
O6    Zn2   S    
C6    C41   S    
C16   O7    A    
C6    C34   A    
C2    C4    A    
O4    Zn1   S    
C9    C11   A    
C5    C23   A    
C43   C45   A    
C36   N10   T    
C42   H4    S    
C26   C36   S    
C13   N9    S    
C1    C23   S    
C13   C15   A    
C1    O3    A    
C39   N2    T    
C31   C35   A    
C5    C40   S    
C12   C34   S    
N6    Zn2   S    
C18   H14   S    
C7    C9    A    
C8    N7    A    
C4    H8    S    
C15   H13   S    
C34   C43   A    
C20   C22   A    
N8    N9    D    
C3    C5    A    
C10   C13   A    
C25   C27   A    
C3    C46   A    
C26   C28   A    
C17   O8    A    
C32   C33   A    
C28   C30   A    
C29   C31   A    
C30   C32   A    
C3    H7    S    
O2    Zn2   S    
C19   H15   S    
N1    N5    D    
C12   O4    A    
C16   O5    A    
C9    H11   S    
C20   H16   S    
C21   H17   S    
C22   H18   S    
O7    Zn2   S    
C8    C10   A    
C21   C24   A    
C10   H1    S    
O3    Zn2   S    
O5    Zn1   S    
C20   C31   A    
