data_mof_unit_31304.cif
_audit_creation_date              2013-03-05T15:47:04-0500
_audit_creation_method            fapswitch 2.2
_symmetry_space_group_name_H-M    P1
_symmetry_Int_Tables_number       1
_space_group_crystal_system       triclinic
_cell_length_a                    23.375101
_cell_length_b                    10.914098
_cell_length_c                    9.845998
_cell_angle_alpha                 110.166505
_cell_angle_beta                  96.738185
_cell_angle_gamma                 92.480486
_cell_volume                      2332.14927474

loop_
_atom_site_label
_atom_site_type_symbol
_atom_site_description
_atom_site_fract_x
_atom_site_fract_y
_atom_site_fract_z
_atom_type_partial_charge
O1    O     O_R   0.505330 0.332340 0.577400 -0.576215
O2    O     O_R   0.494670 0.667660 0.422600 -0.565608
O3    O     O_R   0.488470 0.295500 0.332650 -0.557085
O4    O     O_R   0.511530 0.704500 0.667350 -0.557581
C1    C     C_R   0.498974 0.254062 0.442340 0.812035
C2    C     C_R   0.505765 0.746345 0.557828 0.800710
O5    O     O_R   0.426310 0.518390 0.622390 -0.566790
O6    O     O_R   0.573690 0.481610 0.377610 -0.581553
O7    O     O_R   0.409450 0.481550 0.377650 -0.562449
O8    O     O_R   0.590550 0.518450 0.622350 -0.559699
C3    C     C_R   0.391362 0.498747 0.502258 0.825942
C4    C     C_R   0.608874 0.499307 0.497324 0.808205
Cu1   Cu    Cu3+1 0.509980 0.521810 0.644910 1.002466
Cu2   Cu    Cu3+1 0.490020 0.478190 0.355090 0.995260
C5    C     C_R   0.882029 0.452004 0.617020 0.588999
C6    C     C_R   0.112833 0.395306 0.374918 0.632704
N1    N     N_R   0.848663 0.419684 0.482974 -0.450791
N2    N     N_R   0.147546 0.450078 0.505925 -0.454209
C7    C     C_R   0.871350 0.335972 0.367348 0.638773
C8    C     C_R   0.125718 0.487745 0.635375 0.623427
C9    C     C_R   0.931483 0.345237 0.364028 -0.086127
C10   C     C_R   0.065193 0.476190 0.637220 -0.077027
C11   C     C_R   0.967878 0.409785 0.497575 -0.037859
C12   C     C_R   0.028613 0.419702 0.501478 -0.032212
C13   C     C_R   0.943095 0.457458 0.628086 -0.121168
C14   C     C_R   0.052684 0.372065 0.369389 -0.114995
C15   C     C_R   0.955919 0.290949 0.233547 -0.159243
C16   C     C_R   0.040007 0.518209 0.768729 -0.158582
C17   C     C_R   0.016128 0.304148 0.236108 0.313951
C18   C     C_R   0.979511 0.509876 0.763843 0.316822
O9    O     O_2   0.856115 0.471936 0.737268 -0.439504
O10   O     O_2   0.136962 0.365847 0.250854 -0.443309
O11   O     O_2   0.837724 0.234966 0.266223 -0.482316
O12   O     O_2   0.162892 0.536813 0.760746 -0.507848
C19   C     C_R   0.238620 0.587631 0.533978 0.390300
C20   C     C_R   0.747300 0.402921 0.345445 0.374586
C21   C     C_R   0.298687 0.596854 0.534851 -0.266880
C22   C     C_R   0.688824 0.407998 0.362122 -0.254219
H1    H     H_    0.321874 0.691010 0.555091 0.184736
H2    H     H_    0.656545 0.352098 0.270739 0.200198
C23   C     C_R   0.329094 0.485304 0.505265 -0.124173
C24   C     C_R   0.671294 0.493550 0.489143 -0.131849
C25   C     C_R   0.299905 0.361616 0.476657 -0.089654
C26   C     C_R   0.713223 0.581333 0.597320 -0.092007
C27   C     C_R   0.239998 0.351208 0.479957 -0.080449
C28   C     C_R   0.772389 0.570089 0.583914 -0.058815
C29   C     C_R   0.209152 0.463563 0.506918 0.177869
C30   C     C_R   0.789756 0.462412 0.470537 0.130721
C31   C     C_2   0.504420 0.114458 0.416804 -0.223868
C32   C     C_2   0.510542 0.887485 0.585770 -0.218924
C33   C     C_2   0.537262 0.076180 0.516386 -0.105014
C34   C     C_2   0.537895 0.937497 0.499680 -0.092012
N3    N     N_2   0.475010 0.445410 0.137370 -0.299940
N4    N     N_2   0.524990 0.554590 0.862630 -0.299472
C35   C     C_2   0.511906 0.482721 0.066513 -0.012143
C36   C     C_2   0.495229 0.482458 0.915635 0.002384
H3    H     H_    0.558594 0.619308 0.929775 0.218128
H4    H     H_    0.432443 0.425659 0.089316 0.216213
C37   C     C_1   0.920002 0.226366 0.093744 0.529248
N5    N     N_1   0.891478 0.174952 0.981987 -0.131205
C38   C     C_1   0.074730 0.573260 0.911540 0.511289
N6    N     N_1   0.102137 0.617146 0.025917 -0.129381
N7    N     N_R   0.039861 0.241560 0.103707 0.155978
O13   O     O_R   0.031096 0.283585 0.995040 -0.298136
O14   O     O_R   0.066084 0.135725 0.087559 -0.272059
N8    N     N_R   0.955587 0.561712 0.897834 0.159127
O15   O     O_R   0.956038 0.496672 0.986494 -0.286887
O16   O     O_R   0.939896 0.680429 0.938992 -0.281412
N9    N     N_R   0.208377 0.704089 0.559096 0.152703
O17   O     O_R   0.154694 0.697451 0.502207 -0.305022
O18   O     O_R   0.235949 0.819118 0.628679 -0.300259
N10   N     N_R   0.761276 0.367486 0.199238 0.169449
O19   O     O_R   0.800758 0.439007 0.170298 -0.299044
O20   O     O_R   0.728799 0.277615 0.091346 -0.293392
C39   C     C_1   0.331175 0.245312 0.442406 0.307116
N11   N     N_1   0.355909 0.152175 0.414911 -0.247089
C40   C     C_1   0.695774 0.686849 0.717382 0.315153
N12   N     N_1   0.681831 0.771041 0.813096 -0.215687
C41   C     C_1   0.209617 0.225303 0.456072 0.342962
N13   N     N_1   0.185307 0.124847 0.437010 -0.160791
C42   C     C_1   0.814102 0.678752 0.672752 0.364041
N14   N     N_1   0.847192 0.765888 0.743243 -0.161434
C43   C     C_1   0.573006 0.861849 0.394895 0.296792
N15   N     N_1   0.601786 0.804049 0.311419 -0.254236
C44   C     C_1   0.575635 0.167038 0.640439 0.322263
N16   N     N_1   0.606242 0.239212 0.739377 -0.213112
C45   C     C_1   0.482431 0.970404 0.703493 0.297196
N17   N     N_1   0.460014 0.036624 0.797542 -0.230239
C46   C     C_1   0.472402 0.019112 0.284959 0.321681
N18   N     N_1   0.446871 0.942958 0.179678 -0.224177
C47   C     C_1   0.447588 0.391413 0.825126 0.371923
N19   N     N_1   0.409283 0.317631 0.754520 -0.264612
C48   C     C_1   0.572616 0.512311 0.122245 0.370329
N20   N     N_1   0.621853 0.535572 0.160997 -0.231918

loop_
_geom_bond_atom_site_label_1
_geom_bond_atom_site_label_2
_geom_bond_distance
_ccdc_geom_bond_type
N8    O16   1.300597 A    
C45   N17   1.157415 T    
C17   N7    1.436082 S    
C48   N20   1.157380 T    
C15   C17   1.404910 A    
N1    C30   1.477794 S    
C35   C48   1.440366 S    
C19   C29   1.416498 A    
N2    C29   1.439745 S    
C33   C44   1.452772 S    
N7    O14   1.301051 A    
C42   N14   1.157423 T    
C40   N12   1.157418 T    
O5    C3    1.302154 A    
O1    C1    1.296010 A    
C26   C40   1.450906 S    
C19   C21   1.402131 A    
C12   C14   1.417447 A    
C22   C24   1.397165 A    
N9    O17   1.301090 A    
C5    C13   1.415859 A    
O4    Cu1   1.927140 S    
N9    O18   1.301603 A    
C4    C24   1.473558 S    
C36   C47   1.443070 S    
C31   C33   1.363364 D    
C32   C34   1.356912 D    
C11   C12   1.414111 A    
C20   C30   1.424579 A    
C8    O12   1.348275 S    
C16   C38   1.450653 S    
C27   C29   1.411050 A    
N8    O15   1.300694 A    
C9    C15   1.415793 A    
C37   N5    1.157555 T    
C10   C16   1.423479 A    
Cu1   Cu2   2.705335 S    
C6    C14   1.409161 A    
C23   C25   1.407199 A    
C1    C31   1.470071 S    
O2    C2    1.299552 A    
C24   C26   1.408221 A    
C26   C28   1.411240 A    
N4    C36   1.302753 D    
N3    C35   1.305000 D    
C25   C39   1.449914 S    
C28   C30   1.426579 A    
C33   C34   1.465983 S    
N10   O20   1.301823 A    
C7    O11   1.344981 S    
C47   N19   1.157137 T    
O7    Cu2   1.922536 S    
C44   N16   1.157546 T    
N7    O13   1.300846 A    
C34   C43   1.445578 S    
C39   N11   1.157033 T    
C28   C42   1.451488 S    
C25   C27   1.405099 A    
C43   N15   1.155446 T    
O6    C4    1.305692 A    
C35   C36   1.489935 S    
C27   C41   1.449626 S    
C2    C32   1.465179 S    
O7    C3    1.299649 A    
C18   N8    1.434982 S    
O3    Cu2   1.927140 S    
O8    C4    1.302549 A    
C32   C45   1.449563 S    
O4    C2    1.303982 A    
C8    C10   1.417754 A    
C9    C11   1.412778 A    
C10   C12   1.419700 A    
O1    Cu1   1.935376 S    
Cu1   N4    2.032305 S    
C13   C18   1.414970 A    
C5    N1    1.374136 A    
O6    Cu2   1.939562 S    
C7    C9    1.409899 A    
C31   C46   1.449615 S    
N10   O19   1.301908 A    
O3    C1    1.309735 A    
O8    Cu1   1.922541 S    
N3    H4    1.030054 S    
C5    O9    1.348370 S    
C6    O10   1.349157 S    
C20   C22   1.396900 A    
C21   H1    1.083853 S    
C15   C37   1.450876 S    
C22   H2    1.083255 S    
C16   C18   1.407186 A    
N1    C7    1.370578 A    
C3    C23   1.461367 S    
N2    C8    1.365042 A    
C11   C13   1.413275 A    
C21   C23   1.396856 A    
C38   N6    1.157707 T    
O2    Cu2   1.935376 S    
C41   N13   1.157307 T    
O5    Cu1   1.939562 S    
Cu2   N3    2.032304 S    
C19   N9    1.441701 S    
C14   C17   1.418828 A    
C6    N2    1.363941 A    
C46   N18   1.157303 T    
C20   N10   1.437373 S    
N4    H3    1.030105 S    
