data_mof_unit_33264.cif
_audit_creation_date              2012-12-10T18:07:30-0500
_audit_creation_method            fapswitch 2.2
_symmetry_space_group_name_H-M    P1
_symmetry_Int_Tables_number       1
_space_group_crystal_system       triclinic
_cell_length_a                    11.484508
_cell_length_b                    12.775963
_cell_length_c                    13.124907
_cell_angle_alpha                 83.306632
_cell_angle_beta                  93.968455
_cell_angle_gamma                 101.850792
_cell_volume                      1869.83707294

loop_
_atom_site_label
_atom_site_type_symbol
_atom_type_description
_atom_site_fract_x
_atom_site_fract_y
_atom_site_fract_z
_atom_type_partial_charge
C1    C     C_R   0.488685 0.440145 0.690966 0.944920
C2    C     C_R   0.688697 0.637420 0.904528 0.382900
C3    C     C_R   0.655701 0.550345 0.844437 -0.090079
C4    C     C_R   0.717583 0.501511 0.499340 0.891861
C5    C     C_R   0.573438 0.505611 0.146352 0.497344
C6    C     C_R   0.632199 0.695518 0.167881 -0.095923
C7    C     C_R   0.486755 0.402145 0.800531 -0.080871
C8    C     C_R   0.291519 0.079463 0.385375 0.255219
C9    C     C_R   0.662947 0.804399 0.609149 0.003835
C10   C     C_R   0.718882 0.911083 0.608963 -0.345379
C11   C     C_R   0.663734 0.992788 0.556776 0.570335
C12   C     C_R   0.578241 0.589375 0.208001 -0.277778
C13   C     C_R   0.542049 0.963822 0.521837 -0.046396
C14   C     C_R   0.497648 0.853466 0.509151 -0.000452
C15   C     C_R   0.467869 0.040446 0.486842 -0.029111
C16   C     C_R   0.530333 0.558747 0.311674 0.870355
C17   C     C_R   0.353822 0.004617 0.440042 -0.189580
C18   C     C_R   0.309159 0.894025 0.441253 -0.139878
C19   C     C_R   0.391468 0.826787 0.447931 0.500151
C20   C     C_R   0.496252 0.150113 0.503995 -0.009450
C21   C     C_R   0.338789 0.190275 0.386350 0.535456
C22   C     C_R   0.282509 0.498865 0.500354 0.938276
C23   C     C_R   0.409557 0.304555 0.835922 -0.075533
C24   C     C_1   0.838949 0.504669 0.498276 -0.164488
C25   C     C_1   0.941404 0.504401 0.498064 0.013366
C26   C     C_1   0.059549 0.500706 0.498907 0.052347
C27   C     C_1   0.161482 0.498012 0.499792 -0.134605
C28   C     C_R   0.666237 0.713004 0.064992 -0.131688
C29   C     C_2   0.669271 0.785426 0.232807 0.385418
C30   C     C_2   0.178997 0.846754 0.438448 0.473744
C31   C     C_3   0.211374 0.041823 0.226207 0.135736
C32   C     C_3   0.110065 0.965873 0.175622 -0.836076
C33   C     C_2   0.561770 0.182723 0.600149 0.556925
C34   C     C_R   0.393207 0.280656 0.941211 -0.095256
C35   C     C_3   0.845173 0.119756 0.565932 0.081558
C36   C     C_3   0.897993 0.237044 0.534991 -0.812514
C37   C     C_3   0.353317 0.771199 0.284318 0.135998
C38   C     C_3   0.278540 0.677497 0.232601 -0.751000
C39   C     C_3   0.884566 0.720938 0.912437 0.061708
C40   C     C_3   0.974055 0.818180 0.869273 -0.804316
C41   C     C_3   0.686940 0.382976 0.204255 0.061609
C42   C     C_3   0.684578 0.269928 0.256549 -0.690836
C43   C     C_2   0.337754 0.230175 0.765681 0.414650
C44   C     C_2   0.346608 0.366906 0.087390 0.508174
C45   C     C_R   0.427785 0.363546 0.004750 0.041974
C46   C     C_2   0.332884 0.172300 0.983466 0.299609
C47   C     C_2   0.736135 0.540204 0.763621 0.400393
C48   C     C_3   0.168655 0.263439 0.347741 0.110048
C49   C     C_3   0.126579 0.360664 0.290558 -0.801815
C50   C     C_R   0.520245 0.452213 0.974000 0.038679
C51   C     C_R   0.556112 0.467010 0.872128 -0.030130
C52   C     C_R   0.574885 0.528966 0.040521 -0.057122
C53   C     C_R   0.640331 0.629001 0.001473 -0.077324
H1    H     H_    0.709021 0.742580 0.643204 0.158944
H2    H     H_    0.102317 0.882946 0.214547 0.260001
H3    H     H_    0.621555 0.259303 0.602122 0.131363
H4    H     H_    0.899435 0.070115 0.533114 0.151872
H5    H     H_    0.849358 0.107156 0.651402 0.171522
H6    H     H_    0.847911 0.288171 0.570033 0.268214
H7    H     H_    0.992756 0.255654 0.562806 0.227205
H8    H     H_    0.892560 0.254627 0.450118 0.245936
H9    H     H_    0.440907 0.795066 0.249074 0.166411
H10   H     H_    0.306599 0.839214 0.266384 0.127811
H11   H     H_    0.188762 0.654987 0.264613 0.260869
H12   H     H_    0.807809 0.926818 0.644034 0.139389
H13   H     H_    0.268577 0.700845 0.148753 0.217259
H14   H     H_    0.321296 0.606730 0.244755 0.260931
H15   H     H_    0.912071 0.647177 0.893241 0.139493
H16   H     H_    0.888114 0.720194 0.997435 0.147993
H17   H     H_    0.950375 0.893200 0.888964 0.260310
H18   H     H_    0.064693 0.813502 0.902444 0.214582
H19   H     H_    0.974162 0.820360 0.784414 0.247100
H20   H     H_    0.741370 0.441073 0.254548 0.121211
H21   H     H_    0.729861 0.390531 0.129447 0.142015
H22   H     H_    0.628381 0.209848 0.209784 0.273663
H23   H     H_    0.714910 0.791286 0.035289 0.222329
H24   H     H_    0.776416 0.253977 0.265426 0.194929
H25   H     H_    0.647930 0.261691 0.333736 0.264241
H26   H     H_    0.343613 0.145883 0.774555 0.102297
H27   H     H_    0.300635 0.293374 0.127947 0.099687
H28   H     H_    0.252449 0.130223 0.946126 0.066936
H29   H     H_    0.796664 0.610094 0.729743 0.091743
H30   H     H_    0.157940 0.261870 0.431517 0.160554
H31   H     H_    0.107458 0.193034 0.319878 0.187358
H32   H     H_    0.118249 0.353184 0.206811 0.255681
H33   H     H_    0.038101 0.365455 0.316715 0.190782
H34   H     H_    0.686331 0.770405 0.314790 0.106477
H35   H     H_    0.190840 0.435731 0.303938 0.275866
H36   H     H_    0.114987 0.894818 0.451633 0.115658
H37   H     H_    0.295883 0.014387 0.217860 0.182521
H38   H     H_    0.215870 0.123334 0.185558 0.183841
H39   H     H_    0.024718 0.992701 0.180434 0.270408
H40   H     H_    0.127545 0.965302 0.093535 0.220761
N1    N     N_R   0.440320 0.222190 0.444690 -0.206904
N2    N     N_R   0.559060 0.776980 0.554780 -0.121654
O1    O     O_R   0.471500 0.366730 0.627160 -0.614454
O2    O     O_2   0.141743 0.752116 0.426937 -0.584142
O3    O     O_3   0.187143 0.043327 0.329643 -0.674945
O4    O     O_2   0.549179 0.122641 0.679823 -0.606019
O5    O     O_3   0.726124 0.096736 0.526666 -0.644744
O6    O     O_3   0.370006 0.739766 0.390992 -0.540564
O7    O     O_3   0.769852 0.728294 0.869261 -0.625714
O8    O     O_3   0.569202 0.400291 0.188701 -0.586434
O9    O     O_2   0.266378 0.261269 0.701916 -0.592233
O10   O     O_2   0.324324 0.451970 0.106000 -0.606169
O11   O     O_2   0.377959 0.127022 0.058215 -0.592038
O12   O     O_R   0.509620 0.544830 0.662520 -0.629243
O13   O     O_2   0.740938 0.452113 0.738625 -0.609840
O14   O     O_3   0.288998 0.268124 0.325684 -0.586267
O15   O     O_R   0.646490 0.410960 0.482310 -0.653150
O16   O     O_R   0.684610 0.589050 0.517670 -0.641942
O17   O     O_R   0.490380 0.455170 0.337480 -0.497505
O18   O     O_R   0.528500 0.633270 0.372840 -0.606437
O19   O     O_R   0.315390 0.410950 0.482330 -0.591488
O20   O     O_R   0.353510 0.589040 0.517690 -0.533256
O21   O     O_2   0.684654 0.878738 0.194440 -0.569903
Zn1   Zn    Zn3+2 0.474550 0.381080 0.476390 1.010833
Zn2   Zn    Zn3+2 0.525450 0.618920 0.523610 0.983062

loop_
_geom_bond_atom_site_label_1
_geom_bond_atom_site_label_2
_ccdc_geom_bond_type
C5    O8    S    
C40   H18   S    
C19   O6    S    
C41   C42   S    
C35   C36   S    
C36   H6    S    
C16   O18   A    
C37   H9    S    
C44   O10   D    
C44   C45   S    
C38   H13   S    
C30   O2    D    
C42   H22   S    
C40   H17   S    
O16   Zn2   S    
C6    C12   A    
O17   Zn1   S    
C4    C24   S    
N1    Zn1   S    
C47   H29   S    
C21   N1    A    
C2    O7    S    
C43   H26   S    
C23   C43   S    
C18   C19   A    
C39   H15   S    
C31   O3    S    
C8    O3    S    
C43   O9    D    
C35   H5    S    
C41   H21   S    
C6    C28   A    
C12   C16   S    
C50   C52   A    
C5    C52   A    
C34   C46   S    
C40   H19   S    
C9    C10   A    
C9    N2    A    
C32   H2    S    
C31   H37   S    
C33   H3    S    
C32   H40   S    
C13   C14   A    
C49   H35   S    
C30   H36   S    
C49   H33   S    
O15   Zn1   S    
C37   H10   S    
C50   C51   A    
C38   H11   S    
N2    Zn2   S    
C15   C20   A    
C49   H32   S    
O1    Zn1   S    
C44   H27   S    
C24   C25   T    
C5    C12   A    
C39   C40   S    
C3    C51   A    
C25   C26   S    
C41   O8    S    
C11   O5    S    
C33   O4    D    
C4    O15   A    
C37   C38   S    
C46   H28   S    
C31   C32   S    
O20   Zn2   S    
C17   C18   A    
C39   H16   S    
C34   C45   A    
C1    O12   A    
C18   C30   S    
C20   C33   S    
C48   C49   S    
C4    O16   A    
C42   H25   S    
C31   H38   S    
C22   C27   S    
C13   C15   A    
C26   C27   T    
C35   O5    S    
C28   H23   S    
C14   N2    A    
C52   C53   A    
C16   O17   A    
C39   O7    S    
C10   H12   S    
C15   C17   A    
C20   N1    A    
C22   O20   A    
C23   C34   A    
O12   Zn2   S    
C1    C7    S    
C14   C19   A    
C29   O21   D    
C36   H7    S    
C2    C53   A    
C8    C21   A    
C21   O14   S    
C28   C53   A    
C8    C17   A    
C48   H30   S    
C35   H4    S    
C2    C3    A    
C7    C51   A    
C37   O6    S    
C11   C13   A    
C32   H39   S    
C45   C50   A    
C1    O1    A    
C7    C23   A    
C46   O11   D    
C3    C47   S    
C48   O14   S    
C29   H34   S    
O19   Zn1   S    
C10   C11   A    
C41   H20   S    
O18   Zn2   S    
C48   H31   S    
C22   O19   A    
C6    C29   S    
C38   H14   S    
C42   H24   S    
C47   O13   D    
C9    H1    S    
C36   H8    S    
