data_mof_unit_23586.cif
_audit_creation_date              2013-03-05T16:31:37-0500
_audit_creation_method            fapswitch 2.2
_symmetry_space_group_name_H-M    P1
_symmetry_Int_Tables_number       1
_space_group_crystal_system       triclinic
_cell_length_a                    9.627999
_cell_length_b                    10.886374
_cell_length_c                    15.653014
_cell_angle_alpha                 87.866294
_cell_angle_beta                  72.851502
_cell_angle_gamma                 90.203493
_cell_volume                      1566.44934254

loop_
_atom_site_label
_atom_site_type_symbol
_atom_site_description
_atom_site_fract_x
_atom_site_fract_y
_atom_site_fract_z
_atom_type_partial_charge
O1    O     O_R   0.118810 0.319640 0.500000 -0.583606
O2    O     O_R   0.881230 0.319680 0.499990 -0.555823
C1    C     C_R   0.998900 0.263008 0.502001 0.852167
O3    O     O_R   0.055580 0.499970 0.629840 -0.589344
O4    O     O_R   0.818000 0.500010 0.629830 -0.525914
C2    C     C_R   0.916847 0.508432 0.671284 0.831661
Cu1   Cu    Cu3+1 0.140670 0.499980 0.500000 1.009097
Cu2   Cu    Cu3+1 0.859330 0.500020 0.500000 1.061638
O5    O     O_R   0.118770 0.680320 0.500010 -0.567515
O6    O     O_R   0.881190 0.680360 0.500000 -0.533369
O7    O     O_R   0.182000 0.499990 0.370170 -0.578590
O8    O     O_R   0.944420 0.500030 0.370160 -0.597558
C3    C     C_R   0.995390 0.736387 0.508092 0.816276
C4    C     C_R   0.083191 0.493767 0.328448 0.778402
C5    C     C_R   0.868240 0.531888 0.767589 -0.102204
C6    C     C_R   0.131763 0.476347 0.231289 -0.079478
C7    C     C_R   0.917265 0.576056 0.906691 -0.132658
C8    C     C_R   0.966872 0.562453 0.814234 -0.121835
C9    C     C_R   0.719206 0.528793 0.812897 -0.061521
C10   C     C_R   0.668077 0.541973 0.905539 0.120044
C11   C     C_R   0.770593 0.554335 0.953182 0.088771
C12   C     C_R   0.518897 0.527399 0.953088 -0.090040
C13   C     C_R   0.480501 0.490981 0.045257 -0.099258
C14   C     C_R   0.592324 0.474804 0.086552 0.407967
C15   C     C_R   0.728714 0.527616 0.045169 -0.262454
C16   C     C_R   0.407107 0.542885 0.911702 0.396025
C17   C     C_R   0.271332 0.488584 0.952860 -0.227245
C18   C     C_R   0.229472 0.461263 0.044839 0.083095
C19   C     C_R   0.331514 0.475055 0.092629 0.122179
C20   C     C_R   0.083354 0.436328 0.091223 -0.142542
C21   C     C_R   0.033896 0.445427 0.184157 -0.177137
C22   C     C_R   0.280159 0.486483 0.185433 -0.123804
H1    H     H_    0.808739 0.527178 0.081084 0.158419
H2    H     H_    0.354992 0.510818 0.221553 0.171448
H3    H     H_    0.919319 0.431361 0.218583 0.187508
H4    H     H_    0.191819 0.487601 0.916665 0.158714
H5    H     H_    0.993637 0.596510 0.942901 0.155036
H6    H     H_    0.082020 0.572559 0.779921 0.208408
H7    H     H_    0.643532 0.507571 0.776727 0.222539
H8    H     H_    0.007200 0.415756 0.054854 0.169751
C23   C     C_R   0.115083 0.061940 0.507709 0.070858
C24   C     C_R   0.993916 0.130414 0.509160 -0.119280
C25   C     C_R   0.861732 0.065813 0.524160 -0.249928
H9    H     H_    0.762312 0.115548 0.530609 0.220803
C26   C     C_R   0.854253 0.936864 0.535913 0.339217
C27   C     C_R   0.986165 0.868945 0.520097 -0.204161
C28   C     C_R   0.111456 0.937882 0.511819 -0.001100
C29   C     C_3   0.266779 0.929522 0.509239 0.177285
C30   C     C_3   0.271158 0.071464 0.503895 -0.477808
H10   H     H_    0.335578 0.887771 0.448246 0.091064
H11   H     H_    0.286974 0.115762 0.563264 0.244653
H12   H     H_    0.339348 0.110710 0.438287 0.190024
C31   C     C_R   0.610607 0.524061 0.423042 0.224694
N1    N     N_R   0.648210 0.500930 0.499430 -0.237295
C32   C     C_R   0.537057 0.451160 0.571771 0.444358
C33   C     C_R   0.389075 0.455819 0.571686 -0.054485
H13   H     H_    0.303942 0.419384 0.628833 0.185110
N2    N     N_R   0.352300 0.500890 0.499430 -0.225197
C34   C     C_R   0.464475 0.526404 0.423508 0.326504
C35   C     C_3   0.492075 0.639631 0.363737 -0.440344
C36   C     C_3   0.652062 0.631703 0.359350 -0.427847
H14   H     H_    0.473114 0.626025 0.298269 0.198221
H15   H     H_    0.438442 0.720265 0.398857 0.214353
H16   H     H_    0.722313 0.604858 0.292828 0.201569
H17   H     H_    0.695628 0.710046 0.386704 0.251930
S1    S     S_3+6 0.676624 0.873878 0.581507 0.072396
O9    O     O_2   0.676487 0.753832 0.631980 -0.182718
O10   O     O_2   0.584106 0.962434 0.644806 -0.228584
O11   O     O_3   0.603707 0.854554 0.497992 -0.537816
H18   H     H_    0.602662 0.937964 0.470593 0.324238
N3    N     N_R   0.280906 0.875007 0.593257 0.206860
O12   O     O_R   0.328419 0.763519 0.594656 -0.252933
O13   O     O_R   0.223475 0.927196 0.668880 -0.276046
N4    N     N_R   0.565226 0.384476 0.645901 0.124391
O14   O     O_R   0.467256 0.381885 0.723716 -0.373921
O15   O     O_R   0.657614 0.295747 0.630627 -0.342426
S2    S     S_3+6 0.586941 0.352146 0.165488 -0.029985
O16   O     O_2   0.574121 0.401658 0.255405 -0.378903
O17   O     O_2   0.461855 0.265401 0.172546 -0.260779
O18   O     O_3   0.742985 0.274266 0.131773 -0.528414
H19   H     H_    0.742172 0.217744 0.183011 0.375638
S3    S     S_3+6 0.411368 0.667596 0.834432 0.052914
O19   O     O_2   0.422080 0.622251 0.743461 -0.207533
O20   O     O_2   0.272432 0.737568 0.866767 -0.275508
O21   O     O_3   0.552546 0.762855 0.827842 -0.493249
H20   H     H_    0.521440 0.845022 0.812018 0.421925

loop_
_geom_bond_atom_site_label_1
_geom_bond_atom_site_label_2
_geom_bond_distance
_ccdc_geom_bond_type
C5    C8    1.403674 A    
S1    O10   1.503777 D    
C32   C33   1.426244 A    
C1    C24   1.443177 S    
C23   C24   1.381650 A    
C9    C10   1.400290 A    
C31   C34   1.405157 A    
Cu1   Cu2   2.708742 S    
S2    O16   1.497080 D    
C6    C21   1.404145 A    
Cu1   O7    1.952286 S    
C16   C17   1.393876 A    
N4    O15   1.295887 A    
C35   H15   1.100532 S    
C13   C19   1.413849 A    
C18   C19   1.409987 A    
C19   C22   1.400186 A    
O21   H20   0.990112 S    
C3    C27   1.461824 S    
O7    C4    1.305892 A    
S1    O11   1.675317 S    
C33   H13   1.080841 S    
C35   H14   1.107629 S    
O5    C3    1.312224 A    
C2    C5    1.473144 S    
C27   C28   1.389000 A    
C32   N4    1.439175 S    
C31   C36   1.483742 S    
C30   H11   1.111593 S    
C13   C14   1.418184 A    
Cu1   N2    2.034948 S    
C29   H10   1.103802 S    
S1    O9    1.501515 D    
C34   C35   1.493498 S    
C16   S3    1.776474 S    
O3    Cu1   1.954452 S    
C23   C30   1.489266 S    
S2    O17   1.503358 D    
N4    O14   1.301487 A    
C14   C15   1.392779 A    
O3    C2    1.306837 A    
Cu2   N1    2.035371 S    
N3    O13   1.302340 A    
N2    C34   1.368326 A    
C31   N1    1.362963 A    
C7    C11   1.399459 A    
C35   C36   1.524431 S    
O1    C1    1.298502 A    
C22   H2    1.076543 S    
C36   H16   1.111698 S    
C5    C9    1.400297 A    
C25   H9    1.081838 S    
C36   H17   1.103282 S    
C28   C29   1.487252 S    
C20   C21   1.398307 A    
Cu2   O8    1.954452 S    
C30   H12   1.111743 S    
C7    C8    1.397637 A    
C23   C28   1.349513 A    
C20   H8    1.079954 S    
C7    H5    1.079601 S    
C25   C26   1.407798 A    
C9    H7    1.075443 S    
C29   C30   1.544136 S    
O8    C4    1.305992 A    
S3    O20   1.504156 D    
C21   H3    1.082995 S    
C24   C25   1.405174 A    
C29   N3    1.465675 S    
C26   S1    1.771954 S    
S2    O18   1.682061 S    
Cu1   O5    1.975284 S    
C11   C15   1.395013 A    
N1    C32   1.398808 A    
O1    Cu1   1.973755 S    
O2    Cu2   1.975283 S    
C10   C12   1.414671 A    
O18   H19   0.990686 S    
O6    C3    1.296193 A    
O4    Cu2   1.952283 S    
C17   H4    1.078595 S    
C6    C22   1.398909 A    
S3    O21   1.683146 S    
C18   C20   1.400100 A    
O2    C1    1.299883 A    
C8    H6    1.083171 S    
N3    O12   1.300270 A    
O4    C2    1.305052 A    
C33   N2    1.356982 A    
C4    C6    1.473192 S    
O11   H18   0.991048 S    
C26   C27   1.433844 A    
C14   S2    1.775184 S    
C10   C11   1.410337 A    
Cu2   O6    1.973755 S    
S3    O19   1.499362 D    
C12   C16   1.418057 A    
C17   C18   1.396007 A    
C12   C13   1.420263 A    
C15   H1    1.079335 S    
