data_mof_unit_19432.cif
_audit_creation_date              2013-03-05T15:54:25-0500
_audit_creation_method            fapswitch 2.2
_symmetry_space_group_name_H-M    P1
_symmetry_Int_Tables_number       1
_space_group_crystal_system       triclinic
_cell_length_a                    15.749983
_cell_length_b                    10.66036
_cell_length_c                    9.983152
_cell_angle_alpha                 88.642022
_cell_angle_beta                  89.211459
_cell_angle_gamma                 92.741278
_cell_volume                      1673.60155335

loop_
_atom_site_label
_atom_site_type_symbol
_atom_site_description
_atom_site_fract_x
_atom_site_fract_y
_atom_site_fract_z
_atom_type_partial_charge
O1    O     O_R   0.500000 0.316780 0.614690 -0.637989
O2    O     O_R   0.499990 0.316750 0.385360 -0.587060
C1    C     C_R   0.510164 0.261490 0.502394 0.917376
O3    O     O_R   0.376780 0.500000 0.614650 -0.604377
O4    O     O_R   0.376770 0.499980 0.385310 -0.607420
C2    C     C_R   0.338531 0.501079 0.500584 0.898752
Zn1   Zn    Zn3+2 0.500010 0.500020 0.653130 1.026211
Zn2   Zn    Zn3+2 0.499990 0.499980 0.346870 1.081812
O5    O     O_R   0.500010 0.683250 0.614640 -0.593568
O6    O     O_R   0.500000 0.683220 0.385310 -0.599642
O7    O     O_R   0.623230 0.500020 0.614690 -0.598415
O8    O     O_R   0.623220 0.500000 0.385350 -0.552854
C3    C     C_R   0.493735 0.739659 0.498526 0.931426
C4    C     C_R   0.661575 0.500816 0.499160 0.913147
C5    C     C_3   0.968112 0.458843 0.612696 -0.098161
C6    C     C_3   0.024223 0.389243 0.514585 0.231470
C7    C     C_1   0.250295 0.504500 0.501133 -0.043568
C8    C     C_1   0.750080 0.502783 0.497021 -0.001716
C9    C     C_3   0.028367 0.576508 0.599046 0.196917
C10   C     C_3   0.085039 0.506975 0.500885 -0.128714
C11   C     C_3   0.976459 0.624633 0.480740 0.229267
C12   C     C_3   0.915658 0.506887 0.494433 -0.134051
C13   C     C_3   0.032664 0.555010 0.382600 -0.117220
C14   C     C_3   0.972369 0.437338 0.396291 0.183285
C15   C     C_1   0.175427 0.506566 0.501018 0.195868
C16   C     C_1   0.825120 0.504826 0.495349 0.192835
C17   C     C_R   0.513711 0.102178 0.759077 -0.138684
H1    H     H_    0.552571 0.185908 0.778631 0.194967
C18   C     C_R   0.479332 0.033703 0.869155 -0.175255
H2    H     H_    0.489515 0.068605 0.968549 0.209924
C19   C     C_R   0.426447 0.926759 0.850510 0.364928
C20   C     C_R   0.416995 0.880968 0.719734 0.029598
C21   C     C_R   0.467103 0.936976 0.613264 0.087896
C22   C     C_R   0.502117 0.058143 0.627927 0.069589
C23   C     C_R   0.525630 0.128625 0.510032 -0.219705
C24   C     C_R   0.545697 0.067248 0.391543 0.258472
H3    H     H_    0.545681 0.890672 0.298064 0.264167
C25   C     C_R   0.526420 0.939789 0.385753 -0.200307
C26   C     C_R   0.488276 0.874277 0.495501 -0.147408
C27   C     C_R   0.389740 0.313582 0.128462 0.079671
C28   C     C_R   0.351156 0.223455 0.041958 -0.116832
C29   C     C_R   0.344522 0.253069 0.905227 0.211054
C30   C     C_R   0.367982 0.375754 0.865468 0.281560
C31   C     C_R   0.438769 0.430362 0.929746 -0.126871
C32   C     C_R   0.443325 0.417215 0.072359 0.118379
N1    N     N_R   0.499210 0.498800 0.142780 -0.154750
C33   C     C_R   0.556959 0.572550 0.068231 0.288320
C34   C     C_R   0.558238 0.569925 0.925238 0.273651
N2    N     N_R   0.499180 0.498720 0.857170 -0.190940
N3    N     N_R   0.047814 0.259594 0.533934 0.263410
O9    O     O_R   0.988951 0.169979 0.544131 -0.230170
O10   O     O_R   0.127288 0.232568 0.540826 -0.294627
N4    N     N_R   0.386795 0.862523 0.964765 0.196742
O11   O     O_R   0.428775 0.850125 0.075260 -0.385974
O12   O     O_R   0.306703 0.826762 0.963645 -0.284566
N5    N     N_3   0.355701 0.781669 0.692400 -0.420040
H4    H     H_    0.295102 0.812501 0.713535 0.288308
H5    H     H_    0.367385 0.705718 0.755853 0.272198
N6    N     N_R   0.620122 0.648407 0.133745 0.237610
O13   O     O_R   0.692911 0.600978 0.159052 -0.290684
O14   O     O_R   0.616607 0.769835 0.124744 -0.301902
N7    N     N_3   0.364746 0.302313 0.265580 -0.345600
H6    H     H_    0.375199 0.211771 0.302239 0.185252
H7    H     H_    0.299265 0.314249 0.272049 0.201356
N8    N     N_3   0.313231 0.107113 0.094421 -0.328388
H8    H     H_    0.359135 0.059817 0.147562 0.226811
H9    H     H_    0.263238 0.125865 0.159701 0.240786
N9    N     N_R   0.299054 0.172374 0.813859 0.247109
O15   O     O_R   0.310867 0.189189 0.685243 -0.366509
O16   O     O_R   0.243506 0.085737 0.856554 -0.250870
N10   N     N_R   0.297337 0.454373 0.842067 0.220673
O17   O     O_R   0.292215 0.558323 0.906747 -0.340091
O18   O     O_R   0.229121 0.408952 0.784937 -0.316575
N11   N     N_R   0.621749 0.644264 0.852039 0.254111
O19   O     O_R   0.699474 0.608221 0.848674 -0.311547
O20   O     O_R   0.607071 0.759617 0.818032 -0.324118
N12   N     N_3   0.932657 0.405099 0.737984 -0.332378
H10   H     H_    0.983625 0.387473 0.800512 0.261027
H11   H     H_    0.898109 0.474263 0.783308 0.253259
N13   N     N_R   0.944186 0.361183 0.284513 0.251668
O21   O     O_R   0.999770 0.307084 0.210841 -0.308901
O22   O     O_R   0.863808 0.346805 0.257690 -0.275008
N14   N     N_3   0.068309 0.608696 0.257412 -0.331197
H12   H     H_    0.017454 0.626235 0.194631 0.260452
H13   H     H_    0.102975 0.539538 0.212301 0.241003
N15   N     N_R   0.952735 0.754186 0.461440 0.266369
O23   O     O_R   0.011480 0.843993 0.451548 -0.239116
O24   O     O_R   0.873216 0.780883 0.454143 -0.294400
N16   N     N_R   0.056551 0.652813 0.710700 0.255221
O25   O     O_R   0.000938 0.706326 0.784844 -0.281338
O26   O     O_R   0.137007 0.668917 0.736148 -0.294144
N17   N     N_R   0.592566 0.130645 0.282728 0.236183
O27   O     O_R   0.589979 0.085631 0.162839 -0.349251
O28   O     O_R   0.649026 0.220010 0.307308 -0.317190

loop_
_geom_bond_atom_site_label_1
_geom_bond_atom_site_label_2
_geom_bond_distance
_ccdc_geom_bond_type
C31   N2    1.360503 A    
C17   C18   1.393372 A    
C28   C29   1.400167 A    
C4    C8    1.392959 S    
C23   C24   1.404779 A    
C8    C16   1.180928 T    
C5    N12   1.456259 S    
N12   H10   1.045006 S    
Zn1   O7    1.973102 S    
C21   C26   1.409919 A    
N11   O20   1.300168 A    
N14   H12   1.044944 S    
C9    C11   1.537698 S    
H3    C25   1.078028 S    
C6    N3    1.457403 S    
O4    C2    1.292065 A    
O7    C4    1.294187 A    
N15   O24   1.300184 A    
C10   C15   1.423848 S    
C5    C6    1.537603 S    
C27   N7    1.419874 S    
N5    H4    1.044619 S    
C22   C23   1.416472 A    
O5    C3    1.300338 A    
N7    H7    1.046481 S    
N1    C33   1.372772 A    
C14   N13   1.457213 S    
C5    C12   1.541879 S    
C33   C34   1.428342 A    
N9    O15   1.301807 A    
N8    H9    1.044879 S    
N3    O10   1.300182 A    
C13   C14   1.538965 S    
N16   O26   1.299960 A    
C6    C10   1.544233 S    
C24   N17   1.441237 S    
N12   H11   1.044912 S    
N6    O13   1.300431 A    
C6    C14   1.537009 S    
C11   C12   1.544203 S    
C29   N9    1.442594 S    
O3    Zn1   1.983694 S    
N3    O9    1.300217 A    
N4    O12   1.300499 A    
C17   C22   1.412614 A    
C27   C32   1.454286 A    
N6    O14   1.299338 A    
N11   O19   1.300691 A    
C34   N11   1.428016 S    
Zn1   N2    2.036540 S    
O3    C2    1.295650 A    
N10   O18   1.301638 A    
N15   O23   1.300252 A    
C28   N8    1.434945 S    
C32   N1    1.413568 A    
O1    C1    1.290434 A    
C5    C9    1.538534 S    
C30   C31   1.403194 A    
C18   H2    1.079320 S    
C9    N16   1.457134 S    
C19   C20   1.411937 A    
C10   C13   1.541318 S    
C1    C23   1.449030 S    
Zn2   O8    1.983694 S    
N7    H6    1.045363 S    
N17   O28   1.301761 A    
C21   C22   1.391781 A    
C19   N4    1.436118 S    
C13   N14   1.456273 S    
N13   O22   1.300209 A    
C27   C28   1.426922 A    
N14   H13   1.044947 S    
O8    C4    1.294127 A    
C11   C13   1.538776 S    
C12   C14   1.543085 S    
C29   C30   1.389152 A    
C31   C32   1.430424 A    
Zn1   O5    1.981777 S    
C2    C7    1.391874 S    
C11   N15   1.457000 S    
C34   N2    1.370209 A    
C30   N10   1.442941 S    
O1    Zn1   1.999639 S    
O2    Zn2   1.981779 S    
N13   O21   1.300238 A    
O6    C3    1.297709 A    
O4    Zn2   1.973101 S    
N4    O11   1.301138 A    
C7    C15   1.180431 T    
C20   C21   1.418045 A    
C9    C10   1.542756 S    
C24   C25   1.380757 A    
O2    C1    1.311245 A    
N10   O17   1.300949 A    
C18   C19   1.397010 A    
C25   C26   1.398056 A    
N17   O27   1.300440 A    
N5    H5    1.041080 S    
Zn2   N1    2.038000 S    
C3    C26   1.441376 S    
C33   N6    1.427372 S    
Zn2   O6    1.999638 S    
N8    H8    1.044566 S    
C12   C16   1.424992 S    
C17   H1    1.081074 S    
N9    O16   1.301498 A    
N16   O25   1.300180 A    
C20   N5    1.431837 S    
