data_mof_unit_17347.cif
_audit_creation_date              2013-03-05T16:02:30-0500
_audit_creation_method            fapswitch 2.2
_symmetry_space_group_name_H-M    P1
_symmetry_Int_Tables_number       1
_space_group_crystal_system       triclinic
_cell_length_a                    16.949859
_cell_length_b                    7.256635
_cell_length_c                    14.918266
_cell_angle_alpha                 89.250337
_cell_angle_beta                  94.243196
_cell_angle_gamma                 89.501446
_cell_volume                      1829.65866446

loop_
_atom_site_label
_atom_site_type_symbol
_atom_site_description
_atom_site_fract_x
_atom_site_fract_y
_atom_site_fract_z
_atom_type_partial_charge
O1    O     O_R   0.663460 0.361760 0.165970 -0.583020
O2    O     O_R   0.336540 0.638240 0.834030 -0.583020
O3    O     O_R   0.836540 0.861760 0.334030 -0.581307
O4    O     O_R   0.163460 0.138240 0.665970 -0.581307
O5    O     O_R   0.827100 0.689870 0.163730 -0.535540
O6    O     O_R   0.172900 0.310130 0.836270 -0.535538
O7    O     O_R   0.672900 0.189870 0.336270 -0.550797
O8    O     O_R   0.327100 0.810130 0.663730 -0.550796
C1    C     C_R   0.852950 0.523144 0.143116 0.978681
C2    C     C_R   0.147050 0.476856 0.856884 0.978681
C3    C     C_R   0.644869 0.023430 0.353957 1.045408
C4    C     C_R   0.355131 0.976570 0.646043 1.045407
O9    O     O_R   0.663490 0.691370 0.155500 -0.528393
O10   O     O_R   0.336510 0.308630 0.844500 -0.528390
O11   O     O_R   0.836510 0.191370 0.344500 -0.560384
O12   O     O_R   0.163490 0.808630 0.655500 -0.560385
O13   O     O_R   0.671770 0.863320 0.325740 -0.534958
O14   O     O_R   0.328230 0.136680 0.674260 -0.534959
O15   O     O_R   0.828230 0.363320 0.174260 -0.550174
O16   O     O_R   0.171770 0.636680 0.825740 -0.550172
C5    C     C_R   0.637890 0.525889 0.130377 0.919866
C6    C     C_R   0.362111 0.474111 0.869623 0.919870
C7    C     C_R   0.861543 0.022178 0.369475 0.965468
C8    C     C_R   0.138457 0.977822 0.630525 0.965467
O17   O     O_3   0.752910 0.528800 0.305860 -0.255252
O18   O     O_3   0.247090 0.471200 0.694140 -0.255252
O19   O     O_3   0.747090 0.028800 0.194140 -0.241552
O20   O     O_3   0.252910 0.971200 0.805860 -0.241550
V1    V     V_3+5 0.749460 0.803010 0.239640 1.396880
V2    V     V_3+5 0.250540 0.196990 0.760360 1.396881
V3    V     V_3+5 0.750540 0.303010 0.260360 1.365101
V4    V     V_3+5 0.249460 0.696990 0.739640 1.365103
C9    C     C_1   0.469521 0.994638 0.530975 0.215858
C10   C     C_1   0.530479 0.005362 0.469025 0.215858
C11   C     C_1   0.031508 0.494883 0.970335 0.212005
C12   C     C_1   0.968491 0.505116 0.029664 0.212008
C13   C     C_R   0.019525 0.982307 0.311523 0.137548
C14   C     C_R   0.980475 0.017691 0.688477 0.137548
C15   C     C_R   0.475521 0.494236 0.186796 0.093616
C16   C     C_R   0.524479 0.505767 0.813203 0.093625
C17   C     C_R   0.089509 0.913191 0.280209 0.075650
C18   C     C_R   0.910490 0.086805 0.719792 0.075647
C19   C     C_R   0.404461 0.427943 0.216997 0.199780
C20   C     C_R   0.595539 0.572059 0.783002 0.199758
C21   C     C_R   0.154210 0.874960 0.341209 0.402745
C22   C     C_R   0.845789 0.125037 0.658791 0.402746
C23   C     C_R   0.347002 0.355777 0.155936 0.341205
C24   C     C_R   0.652999 0.644221 0.844062 0.341202
C25   C     C_R   0.149695 0.914566 0.432393 0.230468
C26   C     C_R   0.850305 0.085433 0.567607 0.230468
C27   C     C_R   0.359607 0.349455 0.063544 0.062592
C28   C     C_R   0.640395 0.650540 0.936454 0.062619
C29   C     C_R   0.076082 0.960717 0.468199 -0.141380
C30   C     C_R   0.923918 0.039283 0.531801 -0.141380
C31   C     C_R   0.427238 0.435523 0.030310 -0.074505
C32   C     C_R   0.572763 0.564477 0.969689 -0.074523
C33   C     C_R   0.008375 0.984202 0.405764 -0.066995
C34   C     C_R   0.991625 0.015798 0.594236 -0.066996
C35   C     C_R   0.490359 0.485758 0.093915 -0.047382
C36   C     C_R   0.509641 0.514244 0.906084 -0.047382
C37   C     C_R   0.068138 0.984569 0.562780 -0.112604
C38   C     C_R   0.931862 0.015431 0.437220 -0.112605
C39   C     C_R   0.434087 0.469496 0.936199 -0.080992
C40   C     C_R   0.565914 0.530504 0.063800 -0.080993
C41   C     C_1   0.417665 0.985738 0.583528 -0.036586
C42   C     C_1   0.582335 0.014262 0.416472 -0.036587
C43   C     C_1   0.084529 0.485873 0.919283 -0.087636
C44   C     C_1   0.915471 0.514126 0.080716 -0.087624
N1    N     N_R   0.223075 0.923920 0.484563 0.215360
O21   O     O_R   0.267435 0.776542 0.492914 -0.318453
O22   O     O_R   0.255888 0.084816 0.492261 -0.396692
N2    N     N_R   0.776925 0.076081 0.515437 0.215359
O23   O     O_R   0.732566 0.223460 0.507086 -0.318452
O24   O     O_R   0.744112 0.915185 0.507739 -0.396693
N3    N     N_R   0.317288 0.213381 0.010966 0.260630
O25   O     O_R   0.240447 0.215781 0.001697 -0.380149
O26   O     O_R   0.355186 0.067871 0.986453 -0.328936
N4    N     N_R   0.682720 0.786602 0.989034 0.260632
O27   O     O_R   0.759562 0.784197 0.998291 -0.380138
O28   O     O_R   0.644827 0.932119 0.013548 -0.328933
N5    N     N_R   0.098338 0.908126 0.185365 0.267898
O29   O     O_R   0.152755 0.004683 0.150166 -0.297935
O30   O     O_R   0.053709 0.801785 0.134373 -0.370759
N6    N     N_R   0.901661 0.091865 0.814635 0.267896
O31   O     O_R   0.847246 0.995300 0.849833 -0.297907
O32   O     O_R   0.946287 0.198209 0.865628 -0.370761
N7    N     N_R   0.390136 0.433922 0.310840 0.298525
O33   O     O_R   0.321189 0.483971 0.335439 -0.247799
O34   O     O_R   0.442069 0.365979 0.371131 -0.325603
N8    N     N_R   0.609864 0.566081 0.689158 0.298525
O35   O     O_R   0.678812 0.516034 0.664559 -0.247809
O36   O     O_R   0.557930 0.634022 0.628867 -0.325601
O37   O     O_3   0.773951 0.183598 0.687062 -0.596447
H1    H     H_    0.782394 0.241556 0.746682 0.357377
O38   O     O_3   0.226048 0.816398 0.312938 -0.596445
H2    H     H_    0.217604 0.758436 0.253319 0.357382
O39   O     O_3   0.718937 0.720970 0.810480 -0.611074
H3    H     H_    0.765330 0.681007 0.850347 0.370798
O40   O     O_3   0.281064 0.279030 0.189521 -0.611100
H4    H     H_    0.234673 0.318936 0.149640 0.370820
N9    N     N_R   0.970362 0.092994 0.249622 0.242600
O41   O     O_R   0.930845 0.018646 0.181521 -0.318897
O42   O     O_R   0.977886 0.271068 0.251977 -0.409262
N10   N     N_R   0.029638 0.907005 0.750377 0.242599
O43   O     O_R   0.069155 0.981354 0.818479 -0.318898
O44   O     O_R   0.022115 0.728931 0.748023 -0.409262
N11   N     N_R   0.523516 0.606143 0.246940 0.242473
O45   O     O_R   0.568555 0.531698 0.312211 -0.329301
O46   O     O_R   0.516078 0.784508 0.241195 -0.397793
N12   N     N_R   0.476484 0.393861 0.753059 0.242473
O47   O     O_R   0.431444 0.468307 0.687788 -0.329300
O48   O     O_R   0.483922 0.215496 0.758803 -0.397793

loop_
_geom_bond_atom_site_label_1
_geom_bond_atom_site_label_2
_geom_bond_distance
_ccdc_geom_bond_type
O17   V3    1.781341 S    
N7    O33   1.300725 A    
O1    C5    1.352309 A    
C8    C37   1.504610 S    
C16   C36   1.428464 A    
C31   C35   1.429526 A    
O19   V1    1.764277 S    
O13   V1    1.957145 S    
O3    C7    1.343823 A    
O38   H2    0.990179 S    
O15   V3    1.954752 S    
C10   C42   1.221889 T    
N10   O44   1.300280 A    
N5    O29   1.300281 A    
C9    C41   1.221889 T    
C33   C38   1.428710 A    
C2    C43   1.462946 S    
C15   N11   1.431375 S    
C24   O39   1.377205 S    
C35   C40   1.426843 A    
N9    O41   1.300702 A    
C36   C39   1.426845 A    
O9    V1    2.032672 S    
N6    O32   1.298754 A    
C14   C18   1.398102 A    
C30   C34   1.431054 A    
O4    C8    1.343822 A    
N4    O28   1.301684 A    
O1    V3    2.002233 S    
C23   O40   1.377209 S    
O2    V4    2.002233 S    
C18   C22   1.395788 A    
N1    O22   1.300415 A    
C26   N2    1.420194 S    
N12   O47   1.300722 A    
C5    C40   1.514938 S    
C14   N10   1.430860 S    
C6    C39   1.514939 S    
C14   C34   1.432575 A    
C29   C37   1.439813 A    
C1    O15   1.326530 A    
C7    C38   1.504609 S    
C11   C12   1.438766 S    
C2    O16   1.326531 A    
C31   C39   1.435599 A    
O2    C6    1.352310 A    
N11   O45   1.300721 A    
C32   C40   1.435601 A    
O14   V2    1.957145 S    
C11   C43   1.222103 T    
C16   C20   1.403521 A    
C3    C42   1.464093 S    
C16   N12   1.431374 S    
C34   C37   1.428710 A    
O11   C7    1.334851 A    
C15   C35   1.428463 A    
O12   C8    1.334851 A    
C25   N1    1.420194 S    
N11   O46   1.300456 A    
O10   V2    2.032672 S    
C28   N4    1.433226 S    
N10   O43   1.300704 A    
N5    O30   1.298754 A    
O39   H3    0.989175 S    
O5    V1    1.978479 S    
O7    V3    1.975685 S    
O8    V4    1.975682 S    
C18   N6    1.434662 S    
N6    O31   1.300282 A    
N2    O24   1.300415 A    
C29   C33   1.431053 A    
O18   V4    1.781339 S    
C23   C27   1.411599 A    
C30   C38   1.439813 A    
O4    V2    2.015502 S    
C32   C36   1.429530 A    
O7    C3    1.332042 A    
N3    O25   1.299501 A    
O5    C1    1.330710 A    
N8    O36   1.300234 A    
O40   H4    0.989153 S    
C21   C25   1.401479 A    
O8    C4    1.332044 A    
C17   N5    1.434665 S    
C9    C10   1.438249 S    
O9    C5    1.329491 A    
O37   H1    0.990179 S    
C26   C30   1.431898 A    
N3    O26   1.301682 A    
O6    V2    1.978479 S    
N7    O34   1.300234 A    
C21   O38   1.383034 S    
C20   N8    1.439615 S    
O16   V4    1.954751 S    
C3    O13   1.329285 A    
N4    O27   1.299502 A    
C27   N3    1.433227 S    
N2    O23   1.301257 A    
O6    C2    1.330710 A    
C15   C19   1.403520 A    
C12   C44   1.222102 T    
O11   V3    2.009341 S    
O12   V4    2.009340 S    
C4    C41   1.464093 S    
C22   C26   1.401479 A    
C19   N7    1.439615 S    
O10   C6    1.329491 A    
O20   V2    1.764278 S    
C1    C44   1.462947 S    
C13   N9    1.430861 S    
O3    V1    2.015504 S    
N8    O35   1.300727 A    
C22   O37   1.383033 S    
C25   C29   1.431898 A    
C27   C31   1.427735 A    
C13   C17   1.398102 A    
N1    O21   1.301256 A    
N12   O48   1.300456 A    
C28   C32   1.427737 A    
C24   C28   1.411592 A    
N9    O42   1.300279 A    
C4    O14   1.329284 A    
C17   C21   1.395787 A    
C19   C23   1.393770 A    
C13   C33   1.432575 A    
C20   C24   1.393767 A    
