data_mof_unit_21060.cif
_audit_creation_date              2012-10-26T18:25:38-0400
_audit_creation_method            fapswitch 2.2
_symmetry_space_group_name_H-M    P1
_symmetry_Int_Tables_number       1
_space_group_crystal_system       triclinic
_cell_length_a                    7.456748
_cell_length_b                    8.734078
_cell_length_c                    10.922958
_cell_angle_alpha                 88.932514
_cell_angle_beta                  72.260005
_cell_angle_gamma                 102.118922
_cell_volume                      659.849928423

loop_
_atom_site_label
_atom_site_type_symbol
_atom_type_description
_atom_site_fract_x
_atom_site_fract_y
_atom_site_fract_z
_atom_type_partial_charge
C1    C     C_R   0.452873 0.200514 0.508291 0.565651
C2    C     C_2   0.571863 0.965315 0.468029 -0.027099
C3    C     C_3   0.313053 0.587960 0.116340 -0.371423
C4    C     C_3   0.638668 0.327239 0.895694 -0.381134
C5    C     C_3   0.840701 0.569379 0.037120 -0.411526
C6    C     C_3   0.187336 0.304412 0.938345 -0.418272
C7    C     C_3   0.248308 0.951181 0.640147 -0.382773
C8    C     C_3   0.751856 0.048992 0.360061 -0.382601
C9    C     C_R   0.547123 0.799506 0.491769 0.566182
C10   C     C_R   0.420266 0.477683 0.743053 0.565203
C11   C     C_R   0.579095 0.518074 0.255999 0.559915
C12   C     C_2   0.367290 0.433679 0.881436 -0.008738
C13   C     C_2   0.628584 0.533898 0.114509 -0.012675
C14   C     C_2   0.509629 0.443689 0.933633 0.024020
C15   C     C_2   0.488955 0.519358 0.057443 0.009848
C16   C     C_2   0.428184 0.034756 0.532100 -0.028162
Cu1   Cu    Cu3+1 0.688910 0.517800 0.485820 0.920734
Cu2   Cu    Cu3+1 0.311090 0.482200 0.514180 0.917800
H1    H     H_    0.916904 0.371468 0.597283 0.234335
H2    H     H_    0.901286 0.467552 0.050444 0.131414
H3    H     H_    0.867746 0.601462 0.933350 0.141716
H4    H     H_    0.217665 0.189908 0.906306 0.117289
H5    H     H_    0.138910 0.294869 0.045297 0.128655
H6    H     H_    0.067311 0.324796 0.905026 0.134482
H7    H     H_    0.172527 0.036138 0.697007 0.120216
H8    H     H_    0.144428 0.875925 0.599728 0.169287
H9    H     H_    0.287570 0.879510 0.708870 0.129126
H10   H     H_    0.827502 0.964087 0.303013 0.121539
H11   H     H_    0.712792 0.121006 0.291440 0.128593
H12   H     H_    0.083081 0.628311 0.402471 0.233524
H13   H     H_    0.855790 0.123981 0.400602 0.167101
H14   H     H_    0.272690 0.644476 0.039912 0.114776
H15   H     H_    0.188261 0.494995 0.174234 0.153188
H16   H     H_    0.344367 0.682747 0.178331 0.125098
H17   H     H_    0.649406 0.266832 0.982662 0.122329
H18   H     H_    0.580837 0.234361 0.840529 0.120855
H19   H     H_    0.784824 0.388158 0.833170 0.133960
H20   H     H_    0.918072 0.672600 0.073095 0.127599
N1    N     N_2   0.027170 0.455360 0.535550 -0.263057
N2    N     N_2   0.972830 0.544640 0.464450 -0.263923
O1    O     O_R   0.622710 0.286400 0.490790 -0.513556
O2    O     O_R   0.377290 0.713600 0.509210 -0.512587
O3    O     O_R   0.303660 0.256330 0.514730 -0.499428
O4    O     O_R   0.696340 0.743670 0.485270 -0.499083
O5    O     O_R   0.600900 0.509520 0.671740 -0.495316
O6    O     O_R   0.399100 0.490480 0.328260 -0.501841
O7    O     O_R   0.281840 0.479450 0.695690 -0.506924
O8    O     O_R   0.718160 0.520550 0.304310 -0.504315

loop_
_geom_bond_atom_site_label_1
_geom_bond_atom_site_label_2
_ccdc_geom_bond_type
C2    C9    S    
Cu2   N1    S    
C4    H18   S    
C2    C16   D    
C5    C13   S    
C7    H7    S    
Cu1   O8    S    
C6    H6    S    
Cu2   O7    S    
C10   O5    A    
C13   C15   D    
Cu1   Cu2   S    
C9    O2    A    
C4    H17   S    
H12   N2    S    
C1    C16   S    
C5    H20   S    
C4    C14   S    
C11   C13   S    
C11   O8    A    
C7    H8    S    
C10   C12   S    
C8    H11   S    
H1    N1    S    
C1    O1    A    
C7    C16   S    
Cu1   N2    S    
C12   C14   D    
C11   O6    A    
Cu2   O2    S    
C6    C12   S    
C3    H14   S    
C8    H10   S    
Cu1   O1    S    
Cu1   O4    S    
C6    H5    S    
C6    H4    S    
Cu2   O6    S    
N1    N2    D    
C7    H9    S    
C4    H19   S    
C10   O7    A    
C5    H2    S    
C3    H15   S    
C14   C15   S    
C3    C15   S    
C3    H16   S    
Cu2   O3    S    
C8    H13   S    
C1    O3    A    
C2    C8    S    
Cu1   O5    S    
C9    O4    A    
C5    H3    S    
