data_mof_unit_22870.cif
_audit_creation_date              2012-12-10T17:35:43-0500
_audit_creation_method            fapswitch 2.2
_symmetry_space_group_name_H-M    P1
_symmetry_Int_Tables_number       1
_space_group_crystal_system       triclinic
_cell_length_a                    10.560503
_cell_length_b                    11.991708
_cell_length_c                    12.893971
_cell_angle_alpha                 93.825134
_cell_angle_beta                  90.636223
_cell_angle_gamma                 88.577972
_cell_volume                      1628.6603474

loop_
_atom_site_label
_atom_site_type_symbol
_atom_type_description
_atom_site_fract_x
_atom_site_fract_y
_atom_site_fract_z
_atom_type_partial_charge
C1    C     C_R   0.501993 0.522690 0.699828 0.931898
C2    C     C_R   0.596151 0.166379 0.596523 0.060509
C3    C     C_R   0.541916 0.861592 0.548862 0.037933
C4    C     C_R   0.458084 0.138408 0.451138 0.037933
C5    C     C_R   0.537060 0.977999 0.539917 0.069899
C6    C     C_R   0.462940 0.022001 0.460083 0.069898
C7    C     C_R   0.742337 0.502961 0.502044 1.064103
C8    C     C_R   0.257663 0.497039 0.497957 1.064099
C9    C     C_3   0.959760 0.450259 0.582976 0.382500
C10   C     C_3   0.040239 0.549741 0.417025 0.382498
C11   C     C_3   0.046654 0.551583 0.586798 0.358299
C12   C     C_R   0.498007 0.477310 0.300172 0.931900
C13   C     C_3   0.953346 0.448417 0.413203 0.358298
C14   C     C_3   0.123068 0.491662 0.497610 -0.250673
C15   C     C_3   0.876932 0.508337 0.502391 -0.250671
C16   C     C_3   0.035110 0.389591 0.493755 -0.213219
C17   C     C_3   0.964889 0.610409 0.506246 -0.213220
C18   C     C_R   0.490804 0.462768 0.188951 -0.135684
C19   C     C_R   0.509195 0.537232 0.811049 -0.135684
C20   C     C_R   0.622733 0.599592 0.965700 -0.265692
C21   C     C_R   0.377265 0.400408 0.034300 -0.265690
C22   C     C_R   0.604452 0.603360 0.859699 -0.016298
C23   C     C_R   0.431007 0.470787 0.868059 -0.087810
C24   C     C_R   0.395546 0.396641 0.140301 -0.016299
C25   C     C_3   0.026578 0.655671 0.743828 -0.277344
C26   C     C_3   0.973420 0.344328 0.256174 -0.277344
C27   C     C_3   0.995444 0.358238 0.733311 -0.260223
C28   C     C_3   0.004550 0.641759 0.266689 -0.260212
C29   C     C_2   0.063543 0.266130 0.487310 0.465824
C30   C     C_2   0.936457 0.733870 0.512690 0.465830
C31   C     C_2   0.671308 0.594069 0.187303 0.370902
C32   C     C_2   0.328694 0.405928 0.812696 0.370914
C33   C     C_2   0.307487 0.326072 0.195309 0.347435
C34   C     C_R   0.568993 0.529212 0.131941 -0.087805
C35   C     C_2   0.692510 0.673929 0.804691 0.347437
C36   C     C_R   0.451679 0.467331 0.975369 0.124878
C37   C     C_R   0.548320 0.532669 0.024631 0.124876
C38   C     C_R   0.395602 0.948891 0.391731 -0.295860
C39   C     C_R   0.604398 0.051109 0.608269 -0.295860
C40   C     C_R   0.403849 0.833621 0.403477 0.060510
H1    H     H_    0.699975 0.646737 0.000390 0.179324
H2    H     H_    0.989685 0.734547 0.713353 0.187517
H3    H     H_    0.078070 0.678292 0.817369 0.168803
H4    H     H_    0.010308 0.265449 0.286648 0.187514
H5    H     H_    0.052430 0.398139 0.236661 0.212006
H6    H     H_    0.921930 0.321711 0.182631 0.168802
H7    H     H_    0.041129 0.426443 0.781016 0.175734
H8    H     H_    0.068458 0.305300 0.691167 0.185608
H9    H     H_    0.948506 0.304833 0.787641 0.181966
H10   H     H_    0.931513 0.694670 0.308833 0.185610
H11   H     H_    0.958893 0.573552 0.218965 0.175728
H12   H     H_    0.300023 0.353265 0.999610 0.179323
H13   H     H_    0.051479 0.695189 0.212377 0.181967
H14   H     H_    0.985782 0.208686 0.486732 0.074314
H15   H     H_    0.014218 0.791313 0.513267 0.074317
H16   H     H_    0.733578 0.552901 0.240983 0.092162
H17   H     H_    0.266427 0.447093 0.759012 0.092158
H18   H     H_    0.260084 0.258072 0.152119 0.057931
H19   H     H_    0.739910 0.741931 0.847880 0.057931
H20   H     H_    0.401804 0.173974 0.390375 0.178585
H21   H     H_    0.598196 0.826026 0.609625 0.178583
H22   H     H_    0.647487 0.223076 0.649470 0.159873
H23   H     H_    0.352512 0.776924 0.350530 0.159873
H24   H     H_    0.337576 0.980404 0.329808 0.155209
H25   H     H_    0.662424 0.019596 0.670192 0.155209
H26   H     H_    0.947573 0.601856 0.763344 0.212007
N1    N     N_R   0.523490 0.207800 0.519350 -0.113065
N2    N     N_R   0.476510 0.792200 0.480650 -0.113065
O1    O     O_R   0.506270 0.421700 0.658830 -0.626583
O2    O     O_3   0.887805 0.399943 0.325941 -0.638252
O3    O     O_3   0.902269 0.401142 0.666705 -0.605017
O4    O     O_3   0.097727 0.598860 0.333296 -0.605019
O5    O     O_2   0.172034 0.229349 0.482843 -0.555236
O6    O     O_2   0.827966 0.770651 0.517157 -0.555239
O7    O     O_2   0.679229 0.694716 0.180410 -0.573916
O8    O     O_2   0.320773 0.305281 0.819592 -0.573916
O9    O     O_2   0.281615 0.345006 0.286741 -0.566574
O10   O     O_2   0.718386 0.654992 0.713260 -0.566575
O11   O     O_R   0.493730 0.578300 0.341170 -0.626581
O12   O     O_R   0.491200 0.609310 0.646410 -0.597898
O13   O     O_R   0.508800 0.390690 0.353590 -0.597896
O14   O     O_R   0.693580 0.406210 0.506230 -0.614899
O15   O     O_R   0.306420 0.593790 0.493770 -0.614899
O16   O     O_R   0.678510 0.593830 0.493810 -0.564074
O17   O     O_R   0.321490 0.406170 0.506190 -0.564071
O18   O     O_3   0.112194 0.600058 0.674060 -0.638254
Zn1   Zn    Zn3+2 0.510060 0.374730 0.508290 1.035096
Zn2   Zn    Zn3+2 0.489940 0.625270 0.491710 1.035096

loop_
_geom_bond_atom_site_label_1
_geom_bond_atom_site_label_2
_ccdc_geom_bond_type
C27   H8    S    
C33   H18   S    
C34   C37   A    
C3    N2    A    
C25   H3    S    
C20   H1    S    
C26   H4    S    
C21   C36   A    
C22   C35   S    
C40   H23   S    
C18   C24   A    
C36   C37   A    
C9    C16   S    
C5    C6    A    
C30   O6    D    
C11   C14   S    
C29   O5    D    
C29   H14   S    
C10   C17   S    
O14   Zn1   S    
C8    O15   A    
C12   O11   A    
C35   H19   S    
C8    O17   A    
C26   H5    S    
C28   H10   S    
C2    C39   A    
C6    C38   A    
C31   H16   S    
O1    Zn1   S    
C3    H21   S    
O15   Zn2   S    
C17   C30   S    
C39   H25   S    
C28   O4    S    
C32   H17   S    
O11   Zn2   S    
C38   H24   S    
O17   Zn1   S    
C1    C19   S    
C9    O3    S    
C19   C22   A    
C4    C6    A    
C2    N1    A    
C10   C14   S    
C16   C29   S    
C1    O1    A    
C19   C23   A    
C9    C11   S    
C31   O7    D    
C4    H20   S    
C31   C34   S    
C18   C34   A    
O13   Zn1   S    
C20   C22   A    
C13   C15   S    
C40   N2    A    
C26   O2    S    
C14   C16   S    
C21   C24   A    
C27   O3    S    
C27   H7    S    
C15   C17   S    
C11   C17   S    
C8    C14   S    
C25   H26   S    
O16   Zn2   S    
C3    C5    A    
C10   C13   S    
C25   H2    S    
C32   O8    D    
C4    N1    A    
C28   H13   S    
C30   H15   S    
C35   O10   D    
N1    Zn1   S    
C24   C33   S    
C23   C32   S    
C5    C39   A    
C9    C15   S    
O12   Zn2   S    
C38   C40   A    
C20   C37   A    
C33   O9    D    
N2    Zn2   S    
C7    C15   S    
C25   O18   S    
C28   H11   S    
C12   O13   A    
C7    O16   A    
C26   H6    S    
C27   H9    S    
C7    O14   A    
C23   C36   A    
C13   O2    S    
C13   C16   S    
C12   C18   S    
C1    O12   A    
C11   O18   S    
C21   H12   S    
C2    H22   S    
C10   O4    S    
