data_mof_unit_49206.cif
_audit_creation_date              2012-10-26T19:17:54-0400
_audit_creation_method            fapswitch 2.2
_symmetry_space_group_name_H-M    P1
_symmetry_Int_Tables_number       1
_space_group_crystal_system       triclinic
_cell_length_a                    10.870402
_cell_length_b                    12.301492
_cell_length_c                    13.354891
_cell_angle_alpha                 117.107355
_cell_angle_beta                  78.512656
_cell_angle_gamma                 100.721943
_cell_volume                      1548.5102725

loop_
_atom_site_label
_atom_site_type_symbol
_atom_type_description
_atom_site_fract_x
_atom_site_fract_y
_atom_site_fract_z
_atom_type_partial_charge
C1    C     C_R   0.503706 0.854982 0.288080 0.539875
C2    C     C_R   0.250442 0.308153 0.360850 0.277751
C3    C     C_R   0.340330 0.249789 0.268552 -0.077905
C4    C     C_R   0.737608 0.995133 0.495022 0.564789
C5    C     C_R   0.346626 0.123470 0.224111 -0.148538
C6    C     C_R   0.264548 0.053740 0.272933 -0.051600
C7    C     C_R   0.178251 0.111439 0.368813 0.046400
C8    C     C_R   0.326331 0.269049 0.015078 -0.162122
C9    C     C_R   0.449527 0.230523 0.832430 -0.001501
C10   C     C_R   0.519211 0.824359 0.089435 -0.132516
C11   C     C_R   0.507968 0.750781 0.975619 -0.165824
C12   C     C_R   0.721483 0.741961 0.737865 -0.111803
C13   C     C_R   0.482588 0.624041 0.935946 -0.092817
C14   C     C_R   0.454502 0.570490 0.012556 0.044124
C15   C     C_R   0.435771 0.649115 0.130012 0.010211
C16   C     C_R   0.480430 0.145997 0.712776 0.555395
C17   C     C_R   0.433240 0.441636 0.976275 0.033727
C18   C     C_R   0.359034 0.395555 0.051406 -0.002710
C19   C     C_R   0.317624 0.476706 0.161946 -0.143371
C20   C     C_R   0.359749 0.601221 0.202602 -0.119838
C21   C     C_R   0.487355 0.357538 0.869793 0.234272
C22   C     C_R   0.369967 0.187202 0.905922 -0.186813
C23   C     C_R   0.042595 0.943377 0.550885 -0.164983
C24   C     C_R   0.486221 0.774444 0.168343 -0.002639
C25   C     C_R   0.679262 0.333237 0.313655 -0.161904
C26   C     C_R   0.338250 0.766423 0.652052 0.039391
C27   C     C_R   0.309919 0.675021 0.689657 -0.166709
C28   C     C_R   0.263354 0.999648 0.497489 0.534665
C29   C     C_R   0.372534 0.569818 0.633781 -0.114645
C30   C     C_R   0.464810 0.555051 0.539153 0.047547
C31   C     C_R   0.491881 0.652081 0.504910 0.209449
C32   C     C_R   0.530743 0.448032 0.476839 -0.003385
C33   C     C_R   0.619086 0.439361 0.380435 0.020429
C34   C     C_R   0.130684 0.997237 0.491178 -0.022654
C35   C     C_R   0.647042 0.536563 0.351078 -0.182117
C36   C     C_R   0.587482 0.641949 0.414105 -0.086687
C37   C     C_R   0.512000 0.347523 0.504351 0.054006
C38   C     C_R   0.652803 0.236168 0.342936 0.046604
C39   C     C_R   0.728782 0.870436 0.788963 -0.108086
C40   C     C_R   0.784152 0.935804 0.725900 -0.066745
C41   C     C_R   0.831919 0.872333 0.611451 0.064386
C42   C     C_R   0.821517 0.743598 0.560284 -0.092660
C43   C     C_R   0.766698 0.678650 0.623474 -0.123580
C44   C     C_3   0.699235 0.390041 0.821398 0.002148
C45   C     C_R   0.090269 0.041445 0.423794 -0.015729
C46   C     C_3   0.799158 0.418961 0.736846 -0.366104
C47   C     C_3   0.128135 0.473475 0.454050 -0.024999
C48   C     C_3   0.117715 0.593965 0.451852 -0.378670
C49   C     C_R   0.961316 0.027397 0.415599 0.056163
C50   C     C_R   0.872047 0.986136 0.486862 0.003734
C51   C     C_R   0.914476 0.938206 0.550577 -0.057336
C52   C     C_R   0.172668 0.238179 0.413511 -0.070681
Cu1   Cu    Cu3+1 0.529370 0.098270 0.475420 0.963231
Cu2   Cu    Cu3+1 0.470630 0.901730 0.524580 0.909203
H1    H     H_    0.683341 0.690776 0.786652 0.122760
H2    H     H_    0.520890 0.792137 0.917783 0.114577
H3    H     H_    0.695389 0.919792 0.878161 0.102102
H4    H     H_    0.323747 0.659529 0.288636 0.158106
H5    H     H_    0.692578 0.151394 0.288101 0.164262
H6    H     H_    0.717925 0.532378 0.279999 0.108558
H7    H     H_    0.744318 0.324473 0.238099 0.101020
H8    H     H_    0.446831 0.346121 0.576004 0.132375
H9    H     H_    0.289813 0.848183 0.696231 0.124795
H10   H     H_    0.346145 0.501478 0.665827 0.089763
H11   H     H_    0.239143 0.685632 0.762148 0.100657
H12   H     H_    0.404869 0.302576 0.229945 0.134679
H13   H     H_    0.622672 0.714612 0.390398 0.188003
H14   H     H_    0.794592 0.035310 0.767073 0.091674
H15   H     H_    0.860468 0.693982 0.472474 0.104733
H16   H     H_    0.762132 0.579466 0.584512 0.116455
H17   H     H_    0.073485 0.906399 0.600518 0.136549
H18   H     H_    0.106814 0.280687 0.488870 0.087390
H19   H     H_    0.708439 0.295771 0.808967 0.118138
H20   H     H_    0.717599 0.457402 0.908868 0.133443
H21   H     H_    0.796349 0.514049 0.749269 0.143548
H22   H     H_    0.894315 0.410578 0.749392 0.087397
H23   H     H_    0.414863 0.079702 0.151286 0.101441
H24   H     H_    0.781933 0.353666 0.648761 0.182886
H25   H     H_    0.118467 0.489663 0.544106 0.138926
H26   H     H_    0.048831 0.406287 0.412201 0.138818
H27   H     H_    0.096443 0.576562 0.367543 0.124824
H28   H     H_    0.041037 0.640703 0.517808 0.102276
H29   H     H_    0.206915 0.655551 0.469321 0.195734
H30   H     H_    0.269230 0.955744 0.237439 0.115695
H31   H     H_    0.339301 0.090099 0.878324 0.133942
H32   H     H_    0.254617 0.443053 0.217466 0.170651
H33   H     H_    0.265246 0.233406 0.070514 0.132349
H34   H     H_    0.550338 0.921159 0.115846 0.130663
H35   H     H_    0.476687 0.570067 0.846319 0.160106
I1    I     I_    0.909728 0.042925 0.276353 -0.466905
N1    N     N_R   0.573890 0.246290 0.438210 -0.238327
N2    N     N_R   0.426890 0.754320 0.561170 -0.244768
O1    O     O_R   0.536940 0.972510 0.318130 -0.501783
O2    O     O_3   0.247634 0.433600 0.398302 -0.581436
O3    O     O_R   0.487330 0.806530 0.359650 -0.536621
O4    O     O_R   0.705160 0.082990 0.479250 -0.472332
O5    O     O_R   0.655550 0.917010 0.520760 -0.513643
O6    O     O_R   0.512670 0.193470 0.640350 -0.457971
O7    O     O_R   0.463060 0.027490 0.681870 -0.520385
O8    O     O_R   0.344450 0.082990 0.479240 -0.504080
O9    O     O_R   0.294840 0.917010 0.520750 -0.529383
O10   O     O_3   0.578815 0.398642 0.802642 -0.571489

loop_
_geom_bond_atom_site_label_1
_geom_bond_atom_site_label_2
_ccdc_geom_bond_type
C27   C29   A    
C41   C42   A    
Cu2   O9    S    
C19   C20   A    
C47   H25   S    
C49   I1    S    
C19   H32   S    
C16   O6    A    
C46   H22   S    
C37   H8    S    
C36   H13   S    
Cu1   Cu2   S    
C10   H34   S    
C26   C27   A    
C52   H18   S    
C7    C45   S    
C9    C16   S    
C7    C52   A    
C12   C43   A    
C30   C31   A    
C9    C22   A    
C26   N2    A    
C39   H3    S    
C48   H27   S    
C18   C19   A    
C22   H31   S    
C4    O4    A    
C28   O9    A    
C35   C36   A    
Cu1   N1    S    
C8    C22   A    
Cu2   O5    S    
C28   O8    A    
C29   H10   S    
C28   C34   S    
C13   C14   A    
Cu1   O4    S    
C14   C17   A    
C47   H26   S    
C46   H21   S    
C44   C46   S    
C17   C18   A    
Cu1   O8    S    
C15   C20   A    
C6    H30   S    
C37   N1    A    
Cu1   O1    S    
C23   H17   S    
C2    O2    S    
C39   C40   A    
C46   H24   S    
C44   O10   S    
C10   C24   A    
C38   N1    A    
C42   H15   S    
C8    C18   A    
C4    C50   S    
C35   H6    S    
C26   H9    S    
Cu2   N2    S    
C29   C30   A    
C27   H11   S    
C25   C38   A    
C23   C51   A    
C47   C48   S    
C45   C49   A    
C1    O3    A    
C23   C34   A    
C50   C51   A    
C34   C45   A    
C25   H7    S    
C32   C37   A    
C44   H20   S    
Cu2   O3    S    
C2    C52   A    
C21   O10   S    
C15   C24   A    
C31   N2    A    
C43   H16   S    
Cu2   O7    S    
C3    H12   S    
C42   C43   A    
C20   H4    S    
C40   C41   A    
C13   H35   S    
C31   C36   A    
C3    C5    A    
C16   O7    A    
C6    C7    A    
Cu1   O6    S    
C48   H29   S    
C8    H33   S    
C32   C33   A    
C12   C39   A    
C2    C3    A    
C30   C32   A    
C11   C13   A    
C9    C21   A    
C5    C6    A    
C33   C35   A    
C47   O2    S    
C48   H28   S    
C44   H19   S    
C17   C21   A    
C12   H1    S    
C10   C11   A    
C38   H5    S    
C1    C24   S    
C1    O1    A    
C49   C50   A    
C40   H14   S    
C14   C15   A    
C4    O5    A    
C5    H23   S    
C41   C51   S    
C11   H2    S    
C25   C33   A    
