data_mof_unit_52120.cif
_audit_creation_date              2012-12-10T19:46:23-0500
_audit_creation_method            fapswitch 2.2
_symmetry_space_group_name_H-M    P1
_symmetry_Int_Tables_number       1
_space_group_crystal_system       triclinic
_cell_length_a                    10.892829
_cell_length_b                    10.938287
_cell_length_c                    10.414873
_cell_angle_alpha                 90.714756
_cell_angle_beta                  91.047647
_cell_angle_gamma                 90.14762
_cell_volume                      1240.61169753

loop_
_atom_site_label
_atom_site_type_symbol
_atom_type_description
_atom_site_fract_x
_atom_site_fract_y
_atom_site_fract_z
_atom_type_partial_charge
C1    C     C_R   0.500655 0.261429 0.498933 0.870239
C2    C     C_R   0.499348 0.738571 0.501067 0.870248
C3    C     C_R   0.872089 0.496104 0.503560 -0.063787
C4    C     C_R   0.127911 0.503891 0.496439 -0.063788
C5    C     C_R   0.941917 0.475297 0.616926 0.007530
C6    C     C_R   0.058083 0.524693 0.383070 0.007533
C7    C     C_R   0.278889 0.195924 0.107358 -0.141259
C8    C     C_R   0.721112 0.804073 0.892646 -0.141265
C9    C     C_R   0.305729 0.156357 0.232188 0.426171
C10   C     C_R   0.694279 0.843646 0.767818 0.426147
C11   C     C_R   0.427833 0.120680 0.264101 0.055602
C12   C     C_R   0.572177 0.879320 0.735899 0.055610
C13   C     C_R   0.519411 0.129395 0.171296 -0.149842
C14   C     C_R   0.480596 0.870604 0.828700 -0.149818
C15   C     C_R   0.491094 0.172023 0.048595 -0.140029
C16   C     C_R   0.508908 0.827975 0.951401 -0.140037
C17   C     C_R   0.370913 0.204477 0.016368 -0.201597
C18   C     C_R   0.629085 0.795517 0.983630 -0.201602
C19   C     C_R   0.455030 0.932639 0.392307 0.376174
C20   C     C_R   0.544978 0.067360 0.607692 0.376161
C21   C     C_R   0.498126 0.872239 0.502879 -0.184310
C22   C     C_R   0.501881 0.127761 0.497121 -0.184319
C23   C     C_R   0.261425 0.502647 0.498606 0.800154
C24   C     C_R   0.738574 0.497351 0.501394 0.800162
C25   C     C_R   0.539920 0.939338 0.612432 -0.191318
C26   C     C_R   0.460089 0.060662 0.387567 -0.191301
C27   C     C_1   0.500011 0.500019 0.071911 0.101206
C28   C     C_1   0.499989 0.499980 0.928089 0.101209
C29   C     C_R   0.198300 0.699958 0.111056 -0.107525
C30   C     C_R   0.801731 0.299985 0.888929 -0.107527
C31   C     C_R   0.156743 0.671078 0.233384 -0.087558
C32   C     C_R   0.843288 0.328879 0.766603 -0.087587
C33   C     C_R   0.111775 0.553402 0.257556 0.108971
C34   C     C_R   0.888224 0.446572 0.742437 0.108972
C35   C     C_R   0.108526 0.465587 0.158240 -0.119470
C36   C     C_R   0.891438 0.534390 0.841751 -0.119450
C37   C     C_R   0.152699 0.494028 0.036920 -0.139636
C38   C     C_R   0.847263 0.505935 0.963068 -0.139631
C39   C     C_R   0.197149 0.611333 0.013198 -0.142804
C40   C     C_R   0.802847 0.388613 0.986785 -0.142791
C41   C     C_R   0.931174 0.519722 0.388203 -0.236588
C42   C     C_R   0.068826 0.480271 0.611795 -0.236587
Cu1   Cu    Cu3+1 0.500000 0.500000 0.625300 1.003702
Cu2   Cu    Cu3+1 0.500000 0.500000 0.374700 1.003697
H1    H     H_    0.229576 0.633885 0.918723 0.134623
H2    H     H_    0.770420 0.366050 0.081257 0.134614
H3    H     H_    0.612531 0.101029 0.193564 0.141460
H4    H     H_    0.387478 0.898971 0.806431 0.141460
H5    H     H_    0.561938 0.178008 0.977713 0.165000
H6    H     H_    0.438063 0.821990 0.022281 0.164983
H7    H     H_    0.229802 0.791469 0.091430 0.122665
H8    H     H_    0.770256 0.208461 0.908552 0.122660
H9    H     H_    0.157236 0.740695 0.308275 0.135108
H10   H     H_    0.842824 0.259260 0.691712 0.135099
H11   H     H_    0.070200 0.375908 0.174827 0.145549
H12   H     H_    0.929738 0.624083 0.825167 0.145552
H13   H     H_    0.150230 0.425937 0.960605 0.127425
H14   H     H_    0.849705 0.574030 0.039382 0.127416
H15   H     H_    0.878327 0.536818 0.300968 0.153894
H16   H     H_    0.121672 0.463174 0.699029 0.153891
H17   H     H_    0.348847 0.235712 0.920479 0.164090
H18   H     H_    0.651147 0.764279 0.079519 0.164090
H19   H     H_    0.185590 0.218589 0.079972 0.139720
H20   H     H_    0.814409 0.781407 0.920035 0.139716
N1    N     N_1   0.500010 0.499990 0.186410 -0.138441
N2    N     N_1   0.499990 0.500010 0.813590 -0.138440
O1    O     O_R   0.499990 0.319650 0.605810 -0.522106
O2    O     O_R   0.500010 0.680350 0.394190 -0.522110
O3    O     O_R   0.499990 0.319640 0.394190 -0.591021
O4    O     O_R   0.500010 0.680360 0.605810 -0.591020
O5    O     O_R   0.319640 0.500010 0.605810 -0.602963
O6    O     O_R   0.680360 0.499990 0.394190 -0.602964
O7    O     O_R   0.319650 0.500010 0.394190 -0.560681
O8    O     O_R   0.680350 0.499990 0.605810 -0.560678
O9    O     O_3   0.407750 0.863327 0.290494 -0.734067
H21   H     H_    0.353668 0.913160 0.235099 0.314148
O10   O     O_3   0.592257 0.136672 0.709506 -0.734053
H22   H     H_    0.646351 0.086840 0.764891 0.314144
O11   O     O_3   0.210113 0.150522 0.317206 -0.757316
H23   H     H_    0.241984 0.127772 0.403147 0.318906
O12   O     O_3   0.789898 0.849486 0.682806 -0.757324
H24   H     H_    0.758031 0.872260 0.596872 0.318910

loop_
_geom_bond_atom_site_label_1
_geom_bond_atom_site_label_2
_ccdc_geom_bond_type
C30   C32   A    
C5    C42   A    
Cu1   Cu2   S    
O12   H24   S    
Cu2   N1    S    
O10   H22   S    
C40   H2    S    
C20   O10   S    
C36   H12   S    
C19   C21   A    
C16   H6    S    
C2    O2    A    
C33   C35   A    
C20   C25   A    
C15   C17   A    
C9    O11   S    
C19   C26   A    
C30   H8    S    
C17   H17   S    
C38   H14   S    
C7    C17   A    
C6    C41   A    
C31   C33   A    
C39   H1    S    
Cu1   O8    S    
C1    C22   S    
C3    C24   S    
C23   O7    A    
C32   H10   S    
C35   H11   S    
C23   O5    A    
C41   H15   S    
C4    C6    A    
C42   H16   S    
C13   H3    S    
C4    C23   S    
C18   H18   S    
C14   H4    S    
C11   C26   S    
C8    C18   A    
C32   C34   A    
C28   N2    T    
O9    H21   S    
Cu1   O1    S    
C27   N1    T    
C29   C31   A    
C5    C34   S    
C29   C39   A    
C2    C21   S    
C30   C40   A    
Cu2   O3    S    
C31   H9    S    
C9    C11   A    
C7    H19   S    
C10   C12   A    
C8    H20   S    
C8    C10   A    
C12   C14   A    
Cu1   O4    S    
C13   C15   A    
C14   C16   A    
Cu2   O2    S    
C24   O6    A    
C29   H7    S    
C7    C9    A    
C21   C25   A    
C3    C41   A    
Cu1   O5    S    
C35   C37   A    
C20   C22   A    
C3    C5    A    
C10   O12   S    
C6    C33   S    
C12   C25   S    
C19   O9    S    
C37   C39   A    
C38   C40   A    
C11   C13   A    
C24   O8    A    
C4    C42   A    
Cu1   N2    S    
C36   C38   A    
C1    O1    A    
Cu2   O6    S    
C34   C36   A    
C15   H5    S    
Cu2   O7    S    
C1    O3    A    
O11   H23   S    
C16   C18   A    
C22   C26   A    
C27   C28   S    
C2    O4    A    
C37   H13   S    
