data_mof_unit_43471.cif
_audit_creation_date              2012-10-26T18:47:39-0400
_audit_creation_method            fapswitch 2.2
_symmetry_space_group_name_H-M    P1
_symmetry_Int_Tables_number       1
_space_group_crystal_system       triclinic
_cell_length_a                    10.843378
_cell_length_b                    12.99696
_cell_length_c                    11.659185
_cell_angle_alpha                 99.866517
_cell_angle_beta                  94.298472
_cell_angle_gamma                 90.61251
_cell_volume                      1613.82059542

loop_
_atom_site_label
_atom_site_type_symbol
_atom_type_description
_atom_site_fract_x
_atom_site_fract_y
_atom_site_fract_z
_atom_type_partial_charge
C1    C     C_R   0.498182 0.299012 0.478593 0.549094
C2    C     C_R   0.509452 0.985110 0.656081 -0.113143
C3    C     C_R   0.490574 0.123052 0.354961 -0.110166
C4    C     C_R   0.509201 0.876955 0.645030 -0.106522
C5    C     C_R   0.502954 0.139400 0.566355 -0.117623
C6    C     C_R   0.496696 0.860600 0.433631 -0.118111
C7    C     C_R   0.503022 0.031366 0.556044 0.046108
C8    C     C_R   0.496621 0.968636 0.443942 0.047478
C9    C     C_R   0.401183 0.388422 0.019716 0.343065
C10   C     C_R   0.598687 0.611698 0.980256 0.343835
C11   C     C_R   0.408763 0.400730 0.142294 0.075494
C12   C     C_R   0.501758 0.700989 0.521406 0.554447
C13   C     C_R   0.591500 0.599154 0.857644 0.082710
C14   C     C_R   0.539629 0.550308 0.158393 0.076324
C15   C     C_R   0.460134 0.449853 0.841613 0.070859
C16   C     C_R   0.262115 0.500530 0.499650 0.578808
C17   C     C_R   0.737841 0.499409 0.500344 0.596271
C18   C     C_R   0.535003 0.541197 0.035114 -0.056298
C19   C     C_R   0.464771 0.458976 0.964874 -0.054338
C20   C     C_R   0.219933 0.715917 0.242608 -0.098893
C21   C     C_R   0.782701 0.272799 0.745812 -0.104975
C22   C     C_R   0.166587 0.677533 0.332640 -0.083687
C23   C     C_R   0.871716 0.499171 0.501515 -0.043854
C24   C     C_R   0.837352 0.315506 0.659373 -0.085744
C25   C     C_R   0.108702 0.578173 0.311836 0.094374
C26   C     C_R   0.890276 0.416738 0.684545 0.096631
C27   C     C_R   0.104624 0.516848 0.198684 0.264653
C28   C     C_R   0.888018 0.475562 0.798491 0.291222
C29   C     C_R   0.158058 0.556979 0.109086 -0.056592
C30   C     C_R   0.832606 0.431360 0.884230 -0.057802
C31   C     C_R   0.215723 0.655729 0.131079 -0.101750
C32   C     C_R   0.780133 0.330707 0.857970 -0.104848
C33   C     C_R   0.927531 0.539673 0.413711 0.389154
C34   C     C_R   0.128173 0.500858 0.498540 -0.045932
C35   C     C_R   0.072313 0.460446 0.586464 0.386700
C36   C     C_R   0.944652 0.460304 0.589582 -0.048742
C37   C     C_R   0.055081 0.538973 0.409964 -0.039493
C38   C     C_R   0.502618 0.814390 0.533815 0.006373
C39   C     C_R   0.497168 0.185613 0.466177 0.006326
C40   C     C_R   0.490241 0.014896 0.343906 -0.110701
Cu1   Cu    Cu3+1 0.509250 0.507730 0.615930 1.011956
Cu2   Cu    Cu3+1 0.490750 0.492270 0.384070 0.994378
F1    F     F_    0.332531 0.307827 0.955556 -0.601349
F2    F     F_    0.667108 0.692411 0.044451 -0.592329
F3    F     F_    0.858167 0.582650 0.332685 -0.575662
F4    F     F_    0.141656 0.417474 0.667504 -0.575048
H1    H     H_    0.257430 0.685514 0.061486 0.160502
H2    H     H_    0.837811 0.269977 0.572397 0.130929
H3    H     H_    0.156150 0.511498 0.022053 0.204436
H4    H     H_    0.828527 0.475243 0.971403 0.199589
H5    H     H_    0.492227 0.812731 0.347478 0.133096
H6    H     H_    0.507446 0.187270 0.652514 0.134089
H7    H     H_    0.514051 0.842432 0.723419 0.153988
H8    H     H_    0.485796 0.157579 0.276575 0.151140
H9    H     H_    0.485121 0.967576 0.257493 0.136341
H10   H     H_    0.514591 0.032433 0.742493 0.136388
H11   H     H_    0.171516 0.317727 0.272250 0.336860
H12   H     H_    0.737016 0.297735 0.924681 0.161162
H13   H     H_    0.952034 0.688094 0.688192 0.350693
H14   H     H_    0.405312 0.387767 0.786624 0.221855
H15   H     H_    0.594370 0.612443 0.213385 0.221213
H16   H     H_    0.640609 0.653903 0.816367 0.197822
H17   H     H_    0.360363 0.345583 0.183443 0.147263
H18   H     H_    0.264562 0.792463 0.259316 0.125853
H19   H     H_    0.742064 0.194769 0.725743 0.129416
H20   H     H_    0.171014 0.724902 0.418945 0.114139
N1    N     N_R   0.523180 0.519350 0.790130 -0.302223
N2    N     N_R   0.476820 0.480650 0.209870 -0.295184
O1    O     O_R   0.506570 0.354460 0.582000 -0.517014
O2    O     O_2   0.071440 0.332307 0.051975 -0.231950
O3    O     O_3   0.080432 0.321128 0.272854 -0.503694
O4    O     O_2   0.920783 0.653665 0.955941 -0.200157
O5    O     O_2   0.087021 0.604082 0.828633 -0.278470
O6    O     O_3   0.886045 0.677497 0.739624 -0.521940
O7    O     O_R   0.493430 0.645540 0.418000 -0.517480
O8    O     O_R   0.490940 0.341410 0.386200 -0.519868
O9    O     O_R   0.509060 0.658590 0.613800 -0.511966
O10   O     O_R   0.327460 0.506540 0.597900 -0.421041
O11   O     O_R   0.672540 0.493460 0.402100 -0.417636
O12   O     O_R   0.311830 0.493480 0.402100 -0.539391
O13   O     O_R   0.688170 0.506520 0.597900 -0.510920
O14   O     O_2   0.897786 0.398367 0.162862 -0.222013
S1    S     S_3+6 0.036019 0.389701 0.167584 0.036210
S2    S     S_3+6 0.949000 0.605075 0.834543 0.025309

loop_
_geom_bond_atom_site_label_1
_geom_bond_atom_site_label_2
_ccdc_geom_bond_type
Cu2   O12   S    
C4    H7    S    
C28   S2    S    
C34   C37   A    
C33   F3    S    
C15   H14   S    
C14   C18   A    
C35   C36   A    
C32   H12   S    
C7    C8    A    
Cu1   N1    S    
C29   H3    S    
C15   C19   A    
Cu2   O7    S    
C17   C23   S    
C24   C26   A    
C18   C19   A    
C11   H17   S    
Cu1   O9    S    
C3    H8    S    
C27   C29   A    
C17   O11   A    
C34   C35   A    
Cu1   Cu2   S    
C22   H20   S    
C16   C34   S    
C9    C19   A    
C13   H16   S    
C2    C7    A    
C23   C33   A    
C22   C25   A    
C6    C38   A    
C5    H6    S    
C6    H5    S    
O5    S2    D    
C17   O13   A    
C25   C37   S    
C30   H4    S    
Cu1   O13   S    
Cu2   O11   S    
C31   H1    S    
Cu2   N2    S    
O3    S1    S    
C21   C32   A    
C9    F1    S    
C10   F2    S    
C24   H2    S    
O6    S2    S    
Cu1   O10   S    
C5    C7    A    
C6    C8    A    
C14   H15   S    
C1    O1    A    
C16   O12   A    
C20   H18   S    
C2    C4    A    
C40   H9    S    
C15   N1    A    
C12   O9    A    
H11   O3    S    
O2    S1    D    
C9    C11   A    
H13   O6    S    
O4    S2    D    
C26   C36   S    
C20   C22   A    
C3    C40   A    
O14   S1    D    
C5    C39   A    
C12   O7    A    
C11   N2    A    
Cu1   O1    S    
C13   N1    A    
C21   H19   S    
C1    O8    A    
C26   C28   A    
C4    C38   A    
C10   C13   A    
C25   C27   A    
Cu2   O8    S    
C27   S1    S    
C29   C31   A    
C2    H10   S    
C30   C32   A    
C10   C18   A    
C28   C30   A    
C16   O10   A    
C12   C38   S    
C33   C37   A    
C1    C39   S    
C3    C39   A    
C23   C36   A    
C21   C24   A    
C14   N2    A    
C8    C40   A    
C35   F4    S    
C20   C31   A    
