data_mof_unit_61620.cif
_audit_creation_date              2012-12-10T17:06:02-0500
_audit_creation_method            fapswitch 2.2
_symmetry_space_group_name_H-M    P1
_symmetry_Int_Tables_number       1
_space_group_crystal_system       triclinic
_cell_length_a                    11.546388
_cell_length_b                    10.741466
_cell_length_c                    10.056198
_cell_angle_alpha                 90.528184
_cell_angle_beta                  90.217159
_cell_angle_gamma                 90.335507
_cell_volume                      1247.13771268

loop_
_atom_site_label
_atom_site_type_symbol
_atom_type_description
_atom_site_fract_x
_atom_site_fract_y
_atom_site_fract_z
_atom_type_partial_charge
C1    C     C_R   0.498211 0.262765 0.499370 0.929532
C2    C     C_2   0.517498 0.868789 0.501471 -0.336565
C3    C     C_2   0.517213 0.066402 0.389038 -0.159404
C4    C     C_2   0.490061 0.131005 0.498316 -0.325279
C5    C     C_2   0.560025 0.578697 0.927605 0.212171
C6    C     C_2   0.572068 0.564617 0.076274 -0.145133
C7    C     C_R   0.282020 0.499993 0.499786 0.905196
C8    C     C_R   0.503672 0.737261 0.500444 0.927761
C9    C     C_R   0.717972 0.500082 0.500221 0.897674
C10   C     C_1   0.161515 0.500125 0.499463 -0.184457
C11   C     C_1   0.059328 0.500231 0.499746 0.002507
C12   C     C_1   0.940645 0.500280 0.500326 0.002189
C13   C     C_1   0.838461 0.500227 0.500579 -0.188331
C14   C     C_2   0.510831 0.932339 0.388157 -0.153410
H1    H     H_    0.500259 0.886071 0.292284 0.176033
H2    H     H_    0.536300 0.912156 0.596966 0.148329
H3    H     H_    0.542127 0.112073 0.297401 0.173294
H4    H     H_    0.459068 0.088383 0.588844 0.149362
H5    H     H_    0.467622 0.423342 0.896625 0.139353
H6    H     H_    0.639882 0.616750 0.127418 0.168941
H7    H     H_    0.431155 0.460993 0.100714 0.160200
N1    N     N_2   0.501210 0.501330 0.852150 -0.187706
N2    N     N_2   0.501250 0.501360 0.147810 -0.207718
O1    O     O_R   0.499980 0.319060 0.613040 -0.618697
O2    O     O_R   0.500020 0.319100 0.386900 -0.610595
O3    O     O_R   0.334430 0.499990 0.613070 -0.604838
O4    O     O_R   0.334470 0.500030 0.386930 -0.608159
O5    O     O_R   0.499980 0.680900 0.613100 -0.621176
O6    O     O_R   0.500020 0.680940 0.386960 -0.610318
O7    O     O_R   0.665530 0.499970 0.613070 -0.614610
O8    O     O_R   0.665570 0.500010 0.386930 -0.607597
Zn1   Zn    Zn3+2 0.499980 0.499970 0.650990 0.942823
Zn2   Zn    Zn3+2 0.500020 0.500030 0.349010 0.945955
C15   C     C_3   0.620475 0.689083 0.867852 -0.788869
H8    H     H_    0.675282 0.738675 0.942514 0.189205
H9    H     H_    0.678052 0.660079 0.785811 0.262200
H10   H     H_    0.555371 0.756772 0.832692 0.240137

loop_
_geom_bond_atom_site_label_1
_geom_bond_atom_site_label_2
_ccdc_geom_bond_type
C6    H6    S    
C7    C10   S    
O7    Zn1   S    
C11   C12   S    
O1    Zn1   S    
O3    Zn1   S    
C15   H10   S    
C2    H2    S    
C1    C4    S    
C4    H4    S    
C5    C15   S    
O8    Zn2   S    
O4    Zn2   S    
C1    O2    A    
C3    C14   S    
C7    O3    A    
N1    Zn1   S    
C9    O7    A    
C8    O5    A    
C6    N2    D    
C3    H3    S    
C15   H9    S    
H7    N2    S    
C5    C6    S    
C2    C14   D    
C10   C11   T    
C8    O6    A    
C3    C4    D    
O6    Zn2   S    
O5    Zn1   S    
H5    N1    S    
C7    O4    A    
C12   C13   T    
C1    O1    A    
C15   H8    S    
C9    O8    A    
C14   H1    S    
C9    C13   S    
C2    C8    S    
C5    N1    D    
O2    Zn2   S    
N2    Zn2   S    
