data_mof_unit_39506.cif
_audit_creation_date              2013-03-05T15:58:18-0500
_audit_creation_method            fapswitch 2.2
_symmetry_space_group_name_H-M    P1
_symmetry_Int_Tables_number       1
_space_group_crystal_system       triclinic
_cell_length_a                    14.950811
_cell_length_b                    15.017289
_cell_length_c                    15.007822
_cell_angle_alpha                 110.873553
_cell_angle_beta                  109.575799
_cell_angle_gamma                 107.985229
_cell_volume                      2591.9848918

loop_
_atom_site_label
_atom_site_type_symbol
_atom_site_description
_atom_site_fract_x
_atom_site_fract_y
_atom_site_fract_z
_atom_type_partial_charge
C1    C     C_R   0.899845 0.194238 0.985919 -0.119686
C2    C     C_R   0.030817 0.757263 0.942558 -0.070278
H1    H     H_    0.837115 0.169742 0.006075 0.087628
H2    H     H_    0.066415 0.771284 0.893711 0.123328
N1    N     N_R   0.947560 0.293820 0.002910 -0.036281
N2    N     N_R   0.052440 0.706180 0.997090 -0.047190
C3    C     C_R   0.306105 0.795633 0.222681 -0.025039
C4    C     C_R   0.685916 0.247116 0.774400 -0.067444
H3    H     H_    0.364179 0.828553 0.199887 0.126311
H4    H     H_    0.621831 0.234240 0.794221 0.166195
N3    N     N_R   0.208960 0.706170 0.152110 -0.047899
N4    N     N_R   0.791040 0.293830 0.847890 -0.057894
C5    C     C_R   0.224940 0.407863 0.972716 -0.066666
C6    C     C_R   0.789301 0.591222 0.096602 -0.099137
H5    H     H_    0.205430 0.323303 0.939400 0.138428
H6    H     H_    0.815831 0.675238 0.152938 0.133156
N5    N     N_R   0.154330 0.443160 0.946140 -0.059731
N6    N     N_R   0.845670 0.556840 0.053860 -0.049863
C7    C     C_R   0.078758 0.583860 0.310213 0.140321
C8    C     C_R   0.975527 0.406908 0.687148 0.117862
N7    N     N_R   0.002190 0.556820 0.208880 -0.066920
N8    N     N_R   0.997810 0.443180 0.791120 -0.054123
C9    C     C_R   0.315533 0.591177 0.062221 -0.100138
C10   C     C_R   0.700351 0.409459 0.003849 -0.063159
H7    H     H_    0.378982 0.675086 0.110287 0.133710
H8    H     H_    0.645967 0.325687 0.974139 0.103970
N9    N     N_R   0.210550 0.556810 0.002910 -0.059630
N10   N     N_R   0.789450 0.443190 0.997090 -0.046323
C11   C     C_R   0.973815 0.405111 0.216720 -0.111891
C12   C     C_R   0.095147 0.584420 0.789369 -0.119200
H9    H     H_    0.948979 0.320855 0.190151 0.123916
H10   H     H_    0.157088 0.665390 0.820156 0.141643
N11   N     N_R   0.945970 0.443180 0.152110 -0.057185
N12   N     N_R   0.054030 0.556820 0.847890 -0.046164
C13   C     C_R   0.212649 0.788484 0.311252 -0.119339
C14   C     C_R   0.779302 0.241734 0.684945 -0.096238
H11   H     H_    0.185979 0.798867 0.370407 0.127208
H12   H     H_    0.803230 0.224532 0.624268 0.118080
N13   N     N_R   0.151530 0.706170 0.208880 -0.045249
N14   N     N_R   0.848470 0.293830 0.791120 -0.054096
C15   C     C_R   0.992560 0.193602 0.897682 -0.132976
C16   C     C_R   0.933412 0.750404 0.028304 -0.100916
H13   H     H_    0.017384 0.169247 0.838084 0.117853
H14   H     H_    0.874188 0.750315 0.053305 0.137006
N15   N     N_R   0.004980 0.293810 0.946140 -0.040073
N16   N     N_R   0.995020 0.706190 0.053860 -0.053101
C17   C     C_R   0.924156 0.127396 0.918304 0.072806
C18   C     C_R   0.955669 0.786707 0.960672 0.055950
C19   C     C_R   0.312348 0.844181 0.325379 0.173119
C20   C     C_R   0.676870 0.217328 0.670809 0.157036
C21   C     C_R   0.326400 0.499294 0.043930 0.174177
C22   C     C_R   0.699742 0.500209 0.067014 0.146903
C23   C     C_R   0.043596 0.492386 0.320136 0.029619
C24   C     C_R   0.056430 0.488729 0.693254 0.016931
H15   H     H_    0.010413 0.055505 0.547195 0.138806
H16   H     H_    0.852191 0.926373 0.326289 0.135264
C25   C     C_R   0.930916 0.865129 0.839281 -0.164875
C26   C     C_R   0.838689 0.972618 0.936470 -0.199014
C27   C     C_R   0.883709 0.976581 0.574290 -0.086894
C28   C     C_R   0.949600 0.990968 0.263638 -0.173414
H17   H     H_    0.818905 0.959993 0.500256 0.157468
H18   H     H_    0.021832 0.047799 0.343810 0.140821
Ni1   Ni    Ni4+2 0.869690 0.369690 0.000000 0.231785
Ni2   Ni    Ni4+2 0.130310 0.630310 0.000000 0.249789
Ni3   Ni    Ni4+2 0.001390 0.369680 0.869810 0.237204
Ni4   Ni    Ni4+2 0.998610 0.630320 0.130190 0.237102
C29   C     C_R   0.859596 0.946833 0.645017 -0.049063
C30   C     C_R   0.952901 0.983482 0.169675 -0.125830
H19   H     H_    0.158545 0.087061 0.713437 0.194570
H20   H     H_    0.683076 0.811127 0.145069 0.137178
H21   H     H_    0.586293 0.224062 0.067738 0.149628
H22   H     H_    0.536559 0.842585 0.007956 0.116183
C31   C     C_R   0.708655 0.360204 0.230719 -0.091367
C32   C     C_R   0.402909 0.679420 0.901830 -0.094509
H23   H     H_    0.667336 0.407806 0.229540 0.160750
H24   H     H_    0.427893 0.654767 0.960566 0.127163
C33   C     C_R   0.809775 0.403808 0.321783 -0.064373
C34   C     C_R   0.310263 0.604187 0.798737 -0.091090
H25   H     H_    0.847132 0.486354 0.389315 0.154121
H26   H     H_    0.266158 0.521610 0.779869 0.155393
C35   C     C_R   0.864625 0.342908 0.323710 0.126839
C36   C     C_R   0.273615 0.636129 0.722242 0.050353
C37   C     C_R   0.815021 0.236411 0.235126 -0.208267
C38   C     C_R   0.337514 0.743134 0.749299 -0.057198
H27   H     H_    0.856750 0.188846 0.234749 0.126657
H28   H     H_    0.314328 0.770316 0.692159 0.178923
C39   C     C_R   0.717190 0.196158 0.141050 -0.103690
C40   C     C_R   0.432113 0.817161 0.851762 0.014982
H29   H     H_    0.682647 0.117206 0.069283 0.126289
H30   H     H_    0.480224 0.899427 0.872283 0.159727
C41   C     C_R   0.663205 0.257064 0.139647 -0.030803
C42   C     C_R   0.464090 0.785481 0.928382 -0.099400
C43   C     C_R   0.001036 0.385064 0.499672 -0.172468
C44   C     C_R   0.158512 0.560354 0.519865 -0.142931
H31   H     H_    0.939836 0.314768 0.489553 0.146882
H32   H     H_    0.223120 0.623168 0.525444 0.156409
C45   C     C_R   0.081541 0.474934 0.604174 0.061686
C46   C     C_R   0.062070 0.484545 0.418600 0.063115
C47   C     C_R   0.169714 0.557444 0.615145 0.052218
C48   C     C_R   0.980112 0.398478 0.410525 -0.000048
H33   H     H_    0.776196 0.910909 0.627039 0.160979
H34   H     H_    0.028512 0.032871 0.177450 0.140349
H35   H     H_    0.116046 0.025768 0.833825 0.170483
H36   H     H_    0.685988 0.803296 0.978642 0.158928
C49   C     C_R   0.943174 0.965007 0.739453 0.046675
C50   C     C_R   0.858693 0.911871 0.065867 0.087362
C51   C     C_R   0.075009 0.046415 0.693540 -0.036122
C52   C     C_R   0.758316 0.857797 0.151447 -0.085881
H37   H     H_    0.031408 0.851386 0.509752 0.207135
H38   H     H_    0.664792 0.018775 0.159468 0.143211
C53   C     C_R   0.104573 0.930439 0.439298 -0.259999
C54   C     C_R   0.731722 0.067499 0.329303 -0.174666
H39   H     H_    0.027312 0.909261 0.376562 0.167175
H40   H     H_    0.805822 0.067054 0.338017 0.144605
C55   C     C_R   0.200438 0.985802 0.441733 -0.106442
C56   C     C_R   0.711885 0.085000 0.416071 -0.101086
H41   H     H_    0.196504 0.007636 0.379589 0.156135
H42   H     H_    0.764890 0.083491 0.484321 0.118405
C57   C     C_R   0.298076 0.997996 0.513979 0.099500
C58   C     C_R   0.619529 0.093648 0.409804 0.090757
C59   C     C_R   0.301627 0.968501 0.594362 0.154081
C60   C     C_R   0.547550 0.086165 0.313778 0.130715
C61   C     C_R   0.205155 0.918990 0.594893 0.447818
C62   C     C_R   0.562671 0.056373 0.222050 0.473913
C63   C     C_R   0.106695 0.895373 0.513811 -0.234180
C64   C     C_R   0.653395 0.044323 0.229866 -0.223498
C65   C     C_R   0.478832 0.131753 0.563002 0.451626
C66   C     C_R   0.506051 0.965042 0.435981 0.421677
C67   C     C_R   0.577411 0.152435 0.563678 -0.041076
C68   C     C_R   0.404470 0.942412 0.425980 -0.094353
C69   C     C_R   0.580131 0.072196 0.481919 -0.152854
C70   C     C_R   0.391518 0.025318 0.495260 -0.121118
C71   C     C_R   0.991584 0.029300 0.600213 -0.166146
C72   C     C_R   0.853723 0.923727 0.253801 -0.122223
C73   C     C_R   0.863317 0.903137 0.967097 0.038284
C74   C     C_R   0.919255 0.946906 0.820957 0.024051
H43   H     H_    0.960278 0.818897 0.794962 0.152322
H44   H     H_    0.801329 0.011848 0.974764 0.117006
C75   C     C_R   0.050669 0.010581 0.760861 -0.114485
C76   C     C_R   0.760088 0.853606 0.057689 -0.187628
C77   C     C_R   0.913507 0.849973 0.920649 0.064200
C78   C     C_R   0.885518 0.010550 0.882099 0.052914
C79   C     C_3   0.503976 0.396794 0.039835 -0.400532
C80   C     C_3   0.530372 0.599113 0.098452 -0.420077
C81   C     C_3   0.435920 0.427268 0.966356 0.515652
C82   C     C_3   0.598840 0.568731 0.172238 0.516478
H45   H     H_    0.492820 0.313492 0.014652 0.195158
H46   H     H_    0.541944 0.682739 0.127089 0.181724
C83   C     C_3   0.427606 0.498109 0.062869 -0.131011
C84   C     C_3   0.605981 0.498062 0.075218 -0.141147
C85   C     C_3   0.495289 0.468529 0.137490 0.199356
C86   C     C_3   0.537436 0.526976 0.000689 0.188248
I1    I     I_    0.456338 0.421028 0.243616 -0.185629
I2    I     I_    0.565910 0.558782 0.881171 -0.295578
I3    I     I_    0.450081 0.992186 0.709769 -0.416001
I4    I     I_    0.411583 0.110657 0.301383 -0.279920
Cl1   Cl    Cl    0.203384 0.884364 0.694774 -0.674883
Cl2   Cl    Cl    0.466856 0.028310 0.094771 -0.651903
Cl3   Cl    Cl    0.464251 0.239186 0.644455 -0.536478
Cl4   Cl    Cl    0.537250 0.861319 0.378211 -0.652698
Cl5   Cl    Cl    0.330360 0.331014 0.826634 -0.628902
Cl6   Cl    Cl    0.710752 0.663385 0.308676 -0.644701
I5    I     I_    0.237006 0.601572 0.337896 -0.332114
I6    I     I_    0.825443 0.394381 0.582836 -0.384993

loop_
_geom_bond_atom_site_label_1
_geom_bond_atom_site_label_2
_geom_bond_distance
_ccdc_geom_bond_type
C10   C22   1.359713 A    
C37   C39   1.400038 A    
C79   C81   1.534962 S    
C39   C41   1.395247 A    
N7    Ni4   1.881191 S    
C58   C69   1.476682 S    
C15   H13   1.069907 S    
C36   C47   1.494205 S    
C6    N6    1.335390 A    
C13   N13   1.315979 A    
C80   H46   1.105958 S    
C54   H40   1.073593 S    
H19   C51   1.082131 S    
C3    N3    1.336547 A    
C12   C24   1.389414 A    
C17   C78   1.480606 S    
C29   H33   1.083517 S    
C32   H24   1.072829 S    
C1    N1    1.325841 A    
C13   H11   1.071655 S    
C10   H8    1.080839 S    
N16   Ni4   1.881481 S    
C83   C85   1.532374 S    
H22   C42   1.079277 S    
C34   H26   1.082801 S    
C61   C63   1.393976 A    
N7    N11   1.393887 A    
C44   C46   1.403463 A    
N2    Ni2   1.864403 S    
C8    I6    2.167177 S    
C11   N11   1.308394 A    
N1    Ni1   1.864404 S    
C28   H18   1.081980 S    
C16   N16   1.326183 A    
C32   C42   1.391436 A    
C34   C36   1.407659 A    
C65   C70   1.398787 A    
C74   C78   1.411659 A    
C27   C29   1.396820 A    
C82   C84   1.526676 S    
C9    C21   1.379892 A    
C79   C84   1.539528 S    
C6    C22   1.377316 A    
C40   C42   1.392507 A    
C55   H41   1.083456 S    
C62   Cl2   1.760219 S    
C52   C72   1.396541 A    
C13   C19   1.363204 A    
C28   C72   1.397949 A    
C25   C74   1.398194 A    
C30   H34   1.083413 S    
C9    N9    1.326062 A    
C59   I3    2.133086 S    
C54   C64   1.388041 A    
C4    N4    1.336011 A    
C26   H44   1.080005 S    
C57   C59   1.416587 A    
C43   H31   1.082059 S    
C5    C21   1.382098 A    
C85   I1    2.135258 S    
C31   H23   1.080439 S    
C2    N2    1.336419 A    
C16   H14   1.071002 S    
C30   C50   1.402760 A    
C45   C47   1.414459 A    
C58   C60   1.420654 A    
C11   C23   1.354998 A    
C33   H25   1.083338 S    
N8    N12   1.393886 A    
C27   H17   1.080574 S    
C12   N12   1.336003 A    
N5    N9    1.394012 A    
N3    N13   1.397619 A    
C14   N14   1.314675 A    
N6    N10   1.394011 A    
C3    C19   1.405910 A    
C8    C24   1.381628 A    
N3    Ni2   1.847311 S    
C52   C76   1.395531 A    
N4    Ni1   1.847312 S    
C29   C49   1.404122 A    
C16   C18   1.395287 A    
C61   Cl1   1.758304 S    
C2    C18   1.399110 A    
H15   C71   1.082612 S    
N1    N15   1.397493 A    
C27   C71   1.396730 A    
H36   C76   1.081301 S    
C1    H1    1.078313 S    
C38   C40   1.397947 A    
N4    N14   1.397621 A    
C68   C70   1.424768 A    
C65   C67   1.404938 A    
N8    Ni3   1.881192 S    
C53   C63   1.391064 A    
C80   C83   1.542824 S    
C20   C67   1.460258 S    
H35   C75   1.083338 S    
N5    Ni3   1.882586 S    
C49   C75   1.404477 A    
C82   Cl6   1.781621 S    
C26   C78   1.395818 A    
C50   C76   1.399871 A    
C33   C35   1.405645 A    
N11   Ni1   1.847365 S    
N12   Ni2   1.847366 S    
C57   C70   1.479916 S    
C15   C17   1.390555 A    
C25   H43   1.082560 S    
C53   H39   1.073716 S    
C7    I5    2.171394 S    
C15   N15   1.336047 A    
C44   H32   1.075503 S    
C43   C48   1.370744 A    
C31   C41   1.395699 A    
H38   C64   1.079179 S    
C49   C74   1.472420 S    
C80   C82   1.539840 S    
C50   C73   1.467977 S    
C37   H27   1.083592 S    
C86   I2    2.150208 S    
C79   H45   1.107949 S    
C36   C38   1.409544 A    
N14   Ni3   1.882309 S    
C5    H5    1.081068 S    
N15   Ni3   1.881481 S    
C23   C46   1.464380 S    
N13   Ni4   1.882311 S    
C6    H6    1.081707 S    
C60   C62   1.406599 A    
C66   C69   1.374232 A    
C43   C45   1.397632 A    
C54   C56   1.384138 A    
C14   C20   1.380185 A    
C66   Cl4   1.775628 S    
C24   C45   1.469066 S    
C62   C64   1.395126 A    
H37   C63   1.083168 S    
C3    H3    1.081567 S    
C40   H30   1.081725 S    
C79   C85   1.553768 S    
N2    N16   1.397494 A    
C7    N7    1.376377 A    
C65   Cl3   1.770611 S    
C60   I4    2.135259 S    
C4    H4    1.077697 S    
C1    C17   1.384206 A    
C10   N10   1.323564 A    
C8    N8    1.332828 A    
C22   C84   1.439394 S    
C66   C68   1.391650 A    
C35   C37   1.402461 A    
H16   C72   1.082620 S    
C35   C48   1.484274 S    
C5    N5    1.329878 A    
C26   C73   1.378831 A    
N6    Ni4   1.882584 S    
C19   C68   1.455084 S    
C55   C57   1.404585 A    
C25   C77   1.408980 A    
C28   C30   1.393118 A    
C39   H29   1.082420 S    
C51   C71   1.399418 A    
H20   C52   1.076536 S    
C12   H10   1.080347 S    
C7    C23   1.392067 A    
C81   Cl5   1.786297 S    
C44   C47   1.401165 A    
C2    H2    1.080401 S    
C14   H12   1.063801 S    
C56   H42   1.077672 S    
C18   C77   1.477701 S    
C4    C20   1.400556 A    
C84   C86   1.530549 S    
C9    H7    1.078685 S    
C51   C75   1.398462 A    
C46   C48   1.413337 A    
C59   C61   1.408151 A    
C81   C86   1.527690 S    
N9    Ni2   1.864497 S    
C82   C85   1.547335 S    
N10   Ni1   1.864494 S    
C56   C58   1.401680 A    
C73   C77   1.417855 A    
H21   C41   1.080695 S    
C21   C83   1.450053 S    
C11   H9    1.071895 S    
C32   C34   1.393084 A    
C31   C33   1.395905 A    
C38   H28   1.076959 S    
C53   C55   1.397920 A    
C81   C83   1.532781 S    
C80   C86   1.542488 S    
C67   C69   1.403303 A    
