data_mof_unit_60699.cif
_audit_creation_date              2012-12-10T19:12:26-0500
_audit_creation_method            fapswitch 2.2
_symmetry_space_group_name_H-M    P1
_symmetry_Int_Tables_number       1
_space_group_crystal_system       monoclinic
_cell_length_a                    44.626467
_cell_length_b                    38.945183
_cell_length_c                    21.628908
_cell_angle_alpha                 90.0
_cell_angle_beta                  60.709357
_cell_angle_gamma                 90.0
_cell_volume                      32784.731099

loop_
_atom_site_label
_atom_site_type_symbol
_atom_type_description
_atom_site_fract_x
_atom_site_fract_y
_atom_site_fract_z
_atom_type_partial_charge
C1    C     C_R   0.067304 0.499985 0.432774 0.864978
C2    C     C_R   0.932695 0.499985 0.567226 0.864977
C3    C     C_R   0.567305 0.999985 0.432774 0.864978
C4    C     C_R   0.432695 0.999985 0.567226 0.864977
C5    C     C_R   0.974342 0.486604 0.742348 -0.317750
C6    C     C_R   0.025658 0.486604 0.257653 -0.317749
C7    C     C_R   0.474342 0.986604 0.742347 -0.317749
C8    C     C_R   0.525658 0.986604 0.257653 -0.317748
C9    C     C_R   0.973145 0.487749 0.807425 0.428820
C10   C     C_R   0.026855 0.487748 0.192575 0.428818
C11   C     C_R   0.473145 0.987748 0.807425 0.428818
C12   C     C_R   0.526855 0.987748 0.192575 0.428818
C13   C     C_R   0.999941 0.504430 0.812650 -0.147475
C14   C     C_R   0.000058 0.504430 0.187350 -0.147474
C15   C     C_R   0.499941 0.004430 0.812650 -0.147473
C16   C     C_R   0.500059 0.004430 0.187350 -0.147473
C17   C     C_R   0.378766 0.483514 0.071930 -0.222202
C18   C     C_R   0.621234 0.483514 0.928070 -0.222201
C19   C     C_R   0.878766 0.983514 0.071930 -0.222202
C20   C     C_R   0.121234 0.983514 0.928070 -0.222203
C21   C     C_R   0.343397 0.479958 0.106433 -0.224074
C22   C     C_R   0.656603 0.479958 0.893567 -0.224075
C23   C     C_R   0.843397 0.979958 0.106433 -0.224075
C24   C     C_R   0.156603 0.979958 0.893567 -0.224075
C25   C     C_R   0.323563 0.493009 0.174706 0.044463
C26   C     C_R   0.676437 0.493009 0.825294 0.044462
C27   C     C_R   0.823562 0.993009 0.174706 0.044463
C28   C     C_R   0.176437 0.993009 0.825294 0.044463
C29   C     C_R   0.338933 0.510012 0.209325 0.447665
C30   C     C_R   0.661067 0.510012 0.790675 0.447666
C31   C     C_R   0.838933 0.010013 0.209324 0.447665
C32   C     C_R   0.161067 0.010013 0.790675 0.447667
C33   C     C_R   0.375114 0.512316 0.175822 0.072275
C34   C     C_R   0.624886 0.512316 0.824178 0.072274
C35   C     C_R   0.875114 0.012316 0.175822 0.072275
C36   C     C_R   0.124886 0.012316 0.824178 0.072274
C37   C     C_R   0.395060 0.499309 0.105816 -0.139580
C38   C     C_R   0.604940 0.499309 0.894183 -0.139581
C39   C     C_R   0.895060 0.999309 0.105816 -0.139580
C40   C     C_R   0.104940 0.999309 0.894183 -0.139580
C41   C     C_R   0.267948 0.471768 0.274583 0.367136
C42   C     C_R   0.732052 0.471768 0.725417 0.367135
C43   C     C_R   0.767948 0.971768 0.274583 0.367136
C44   C     C_R   0.232052 0.971768 0.725417 0.367134
C45   C     C_R   0.000894 0.499883 0.618867 0.894556
C46   C     C_R   0.999106 0.499883 0.381133 0.894556
C47   C     C_R   0.500894 0.999883 0.618867 0.894557
C48   C     C_R   0.499106 0.999883 0.381133 0.894556
C49   C     C_R   0.231822 0.473874 0.312978 0.421368
C50   C     C_R   0.768178 0.473874 0.687022 0.421368
C51   C     C_R   0.731822 0.973874 0.312978 0.421368
C52   C     C_R   0.268178 0.973874 0.687022 0.421369
C53   C     C_R   0.214351 0.491895 0.283820 -0.047326
C54   C     C_R   0.785649 0.491895 0.716180 -0.047327
C55   C     C_R   0.714351 0.991895 0.283820 -0.047326
C56   C     C_R   0.285649 0.991895 0.716180 -0.047327
C57   C     C_R   0.232434 0.508005 0.217929 -0.355800
C58   C     C_R   0.767566 0.508005 0.782071 -0.355799
C59   C     C_R   0.732434 0.008004 0.217929 -0.355800
C60   C     C_R   0.267566 0.008004 0.782071 -0.355801
C61   C     C_R   0.268136 0.507855 0.181274 0.192066
C62   C     C_R   0.731864 0.507855 0.818726 0.192067
C63   C     C_R   0.768136 0.007854 0.181274 0.192067
C64   C     C_R   0.231864 0.007854 0.818726 0.192068
C65   C     C_R   0.286067 0.489988 0.209703 -0.040915
C66   C     C_R   0.713933 0.489988 0.790296 -0.040917
C67   C     C_R   0.786067 0.989988 0.209704 -0.040918
C68   C     C_R   0.213933 0.989988 0.790296 -0.040916
C69   C     C_R   0.156892 0.464864 0.347516 -0.088940
C70   C     C_R   0.843108 0.464864 0.652484 -0.088940
C71   C     C_R   0.656892 0.964864 0.347517 -0.088940
C72   C     C_R   0.343108 0.964864 0.652483 -0.088939
C73   C     C_R   0.121409 0.467257 0.384039 -0.278704
C74   C     C_R   0.878591 0.467257 0.615961 -0.278705
C75   C     C_R   0.621409 0.967257 0.384039 -0.278704
C76   C     C_R   0.378591 0.967257 0.615960 -0.278704
C77   C     C_R   0.105051 0.499332 0.395447 -0.085926
C78   C     C_R   0.894949 0.499332 0.604552 -0.085927
C79   C     C_R   0.605051 0.999332 0.395448 -0.085927
C80   C     C_R   0.394949 0.999332 0.604552 -0.085927
C81   C     C_R   0.125206 0.529460 0.369528 0.214982
C82   C     C_R   0.874794 0.529460 0.630472 0.214981
C83   C     C_R   0.625206 0.029460 0.369527 0.214981
C84   C     C_R   0.374794 0.029460 0.630473 0.214981
C85   C     C_R   0.161007 0.526639 0.332937 -0.262183
C86   C     C_R   0.838993 0.526639 0.667063 -0.262183
C87   C     C_R   0.661007 0.026639 0.332937 -0.262184
C88   C     C_R   0.338993 0.026639 0.667064 -0.262183
C89   C     C_R   0.061429 0.522216 0.623687 -0.226967
C90   C     C_R   0.938570 0.522216 0.376313 -0.226967
C91   C     C_R   0.561429 0.022217 0.623687 -0.226967
C92   C     C_R   0.438571 0.022217 0.376313 -0.226966
C93   C     C_R   0.176835 0.494502 0.322338 0.168970
C94   C     C_R   0.823165 0.494502 0.677662 0.168971
C95   C     C_R   0.676835 0.994502 0.322338 0.168971
C96   C     C_R   0.323165 0.994502 0.677662 0.168971
C97   C     C_R   0.000000 0.432928 0.000000 0.916344
C98   C     C_R   0.500000 0.932928 0.000000 0.916344
C99   C     C_R   0.000030 0.501810 0.879531 0.944256
C100  C     C_R   0.999970 0.501810 0.120469 0.944258
C101  C     C_R   0.500030 0.001810 0.879531 0.944258
C102  C     C_R   0.499970 0.001810 0.120469 0.944259
C103  C     C_R   0.000000 0.567043 1.000000 0.939669
C104  C     C_R   0.500000 0.067043 1.000000 0.939668
C105  C     C_R   0.500000 0.432571 0.000000 0.954737
C106  C     C_R   0.000000 0.932571 0.000000 0.954738
C107  C     C_R   0.432728 0.500417 0.067588 0.863759
C108  C     C_R   0.567271 0.500417 0.932412 0.863756
C109  C     C_R   0.932728 0.000416 0.067588 0.863758
C110  C     C_R   0.067271 0.000416 0.932412 0.863755
C111  C     C_R   0.500000 0.567015 0.000000 0.894754
C112  C     C_R   0.000000 0.067015 0.000000 0.894753
C113  C     C_R   0.527163 0.622649 0.943815 0.398299
C114  C     C_R   0.472837 0.622649 0.056185 0.398299
C115  C     C_R   0.027163 0.122649 0.943815 0.398300
C116  C     C_R   0.972837 0.122649 0.056185 0.398298
C117  C     C_R   0.526343 0.658414 0.942100 0.437700
C118  C     C_R   0.473657 0.658414 0.057900 0.437700
C119  C     C_R   0.026343 0.158414 0.942100 0.437701
C120  C     C_R   0.973657 0.158414 0.057900 0.437701
C121  C     C_R   0.500000 0.676558 1.000000 -0.294812
C122  C     C_R   0.000000 0.176558 1.000000 -0.294813
C123  C     C_R   0.088594 0.538257 0.627091 0.179490
C124  C     C_R   0.911406 0.538257 0.372909 0.179490
C125  C     C_R   0.588593 0.038258 0.627092 0.179490
C126  C     C_R   0.411407 0.038259 0.372908 0.179491
C127  C     C_R   0.500000 0.604538 0.000000 -0.455347
C128  C     C_R   0.000000 0.104538 0.000000 -0.455348
C129  C     C_R   0.474251 0.731974 0.994536 -0.156969
C130  C     C_R   0.525749 0.731974 0.005463 -0.156968
C131  C     C_R   0.974251 0.231974 0.994536 -0.156968
C132  C     C_R   0.025749 0.231974 0.005463 -0.156968
C133  C     C_R   0.973615 0.267686 0.995169 0.440692
C134  C     C_R   0.026385 0.267686 0.004831 0.440692
C135  C     C_R   0.473615 0.767686 0.995169 0.440693
C136  C     C_R   0.526385 0.767686 0.004831 0.440693
C137  C     C_R   0.000000 0.285906 1.000000 -0.175474
C138  C     C_R   0.500000 0.785906 1.000000 -0.175475
C139  C     C_R   0.500000 0.714192 1.000000 -0.089699
C140  C     C_R   0.000000 0.214192 1.000000 -0.089698
C141  C     C_R   0.987041 0.341725 0.065021 0.440246
C142  C     C_R   0.012959 0.341725 0.934978 0.440245
C143  C     C_R   0.487041 0.841725 0.065021 0.440245
C144  C     C_R   0.512959 0.841725 0.934978 0.440245
C145  C     C_R   0.987512 0.377594 0.064583 0.142372
C146  C     C_R   0.012488 0.377594 0.935417 0.142371
C147  C     C_R   0.487512 0.877594 0.064583 0.142371
C148  C     C_R   0.512488 0.877594 0.935417 0.142372
C149  C     C_R   0.000000 0.395526 1.000000 -0.325963
C150  C     C_R   0.500000 0.895526 1.000000 -0.325963
C151  C     C_R   1.000000 0.323636 1.000000 -0.286405
C152  C     C_R   0.500000 0.823636 1.000000 -0.286405
C153  C     C_R   0.509014 0.376469 0.936609 0.116481
C154  C     C_R   0.490986 0.376469 0.063391 0.116481
C155  C     C_R   0.009015 0.876470 0.936609 0.116481
C156  C     C_R   0.990985 0.876470 0.063391 0.116480
C157  C     C_R   0.083217 0.550484 0.693238 0.136189
C158  C     C_R   0.916783 0.550485 0.306762 0.136189
C159  C     C_R   0.583216 0.050486 0.693239 0.136190
C160  C     C_R   0.416784 0.050486 0.306761 0.136190
C161  C     C_R   0.506644 0.340677 0.937802 0.419164
C162  C     C_R   0.493355 0.340677 0.062198 0.419163
C163  C     C_R   0.006646 0.840677 0.937801 0.419164
C164  C     C_R   0.993354 0.840677 0.062199 0.419164
C165  C     C_R   0.500000 0.322639 1.000000 -0.078219
C166  C     C_R   0.000000 0.822639 1.000000 -0.078219
C167  C     C_R   0.500000 0.394696 1.000000 -0.296212
C168  C     C_R   0.000000 0.894696 1.000000 -0.296210
C169  C     C_R   0.469841 0.267195 0.046617 0.406122
C170  C     C_R   0.530159 0.267195 0.953383 0.406122
C171  C     C_R   0.969840 0.767196 0.046615 0.406121
C172  C     C_R   0.030160 0.767196 0.953384 0.406121
C173  C     C_R   0.970452 0.731350 0.047740 -0.299268
C174  C     C_R   0.029548 0.731350 0.952259 -0.299267
C175  C     C_R   0.470452 0.231350 0.047742 -0.299267
C176  C     C_R   0.529548 0.231350 0.952257 -0.299266
C177  C     C_R   0.000000 0.713516 1.000000 -0.012187
C178  C     C_R   0.500000 0.213516 1.000000 -0.012188
C179  C     C_R   0.500000 0.284989 1.000000 -0.020544
C180  C     C_R   0.000000 0.784989 1.000000 -0.020544
C181  C     C_R   0.973833 0.657614 0.994565 0.428787
C182  C     C_R   0.026167 0.657614 0.005435 0.428788
C183  C     C_R   0.473832 0.157614 0.994567 0.428787
C184  C     C_R   0.526167 0.157614 0.005432 0.428787
C185  C     C_R   0.973179 0.622058 0.998674 -0.217157
C186  C     C_R   0.026821 0.622058 0.001326 -0.217159
C187  C     C_R   0.473179 0.122058 0.998676 -0.217159
C188  C     C_R   0.526821 0.122058 0.001324 -0.217158
C189  C     C_R   0.000000 0.604279 1.000000 -0.218072
C190  C     C_R   0.500000 0.104279 1.000000 -0.218070
C191  C     C_R   0.052021 0.542821 0.755480 0.195656
C192  C     C_R   0.947979 0.542821 0.244520 0.195655
C193  C     C_R   0.552021 0.042822 0.755481 0.195655
C194  C     C_R   0.447979 0.042822 0.244519 0.195654
C195  C     C_R   0.000000 0.675909 1.000000 -0.095694
C196  C     C_R   0.500000 0.175909 1.000000 -0.095693
C197  C     C_R   0.027719 0.520256 0.752180 -0.045467
C198  C     C_R   0.972281 0.520257 0.247820 -0.045467
C199  C     C_R   0.527719 0.020257 0.752180 -0.045469
C200  C     C_R   0.472281 0.020257 0.247820 -0.045469
C201  C     C_R   0.030669 0.514041 0.685666 -0.001796
C202  C     C_R   0.969331 0.514041 0.314334 -0.001796
C203  C     C_R   0.530669 0.014042 0.685666 -0.001797
C204  C     C_R   0.469331 0.014042 0.314334 -0.001797
C205  C     C_R   0.002611 0.499573 0.682771 -0.093018
C206  C     C_R   0.997389 0.499573 0.317229 -0.093018
C207  C     C_R   0.502611 0.999573 0.682771 -0.093018
C208  C     C_R   0.497389 0.999573 0.317229 -0.093019
H1    H     H_    0.953293 0.475258 0.737801 0.145859
H2    H     H_    0.046707 0.475258 0.262199 0.145858
H3    H     H_    0.453294 0.975257 0.737801 0.145860
H4    H     H_    0.546706 0.975257 0.262199 0.145859
H5    H     H_    0.218685 0.521629 0.195767 0.173598
H6    H     H_    0.781315 0.521629 0.804233 0.173597
H7    H     H_    0.718685 0.021628 0.195766 0.173597
H8    H     H_    0.281315 0.021628 0.804234 0.173597
H9    H     H_    0.168810 0.439775 0.338347 0.171406
H10   H     H_    0.831190 0.439775 0.661652 0.171406
H11   H     H_    0.668810 0.939775 0.338349 0.171406
H12   H     H_    0.331190 0.939775 0.661651 0.171406
H13   H     H_    0.106794 0.443707 0.402928 0.185815
H14   H     H_    0.893206 0.443707 0.597072 0.185815
H15   H     H_    0.606794 0.943707 0.402929 0.185815
H16   H     H_    0.393206 0.943707 0.597070 0.185815
H17   H     H_    0.176522 0.549648 0.313299 0.148511
H18   H     H_    0.823478 0.549648 0.686702 0.148511
H19   H     H_    0.676522 0.049648 0.313298 0.148511
H20   H     H_    0.323478 0.049648 0.686702 0.148511
H21   H     H_    0.064821 0.515523 0.572076 0.146004
H22   H     H_    0.935179 0.515523 0.427924 0.146004
H23   H     H_    0.564821 0.015524 0.572077 0.146004
H24   H     H_    0.435179 0.015524 0.427923 0.146004
H25   H     H_    0.454348 0.717926 0.990352 0.197730
H26   H     H_    0.545651 0.717926 0.009648 0.197730
H27   H     H_    0.954348 0.217926 0.990352 0.197729
H28   H     H_    0.045651 0.217926 0.009648 0.197730
H29   H     H_    0.947770 0.717260 0.084823 0.178787
H30   H     H_    0.052230 0.717260 0.915177 0.178787
H31   H     H_    0.447771 0.217260 0.084826 0.178786
H32   H     H_    0.552229 0.217260 0.915173 0.178786
H33   H     H_    0.952694 0.608197 0.996333 0.191882
H34   H     H_    0.047306 0.608198 0.003667 0.191882
H35   H     H_    0.452693 0.108198 0.996336 0.191883
H36   H     H_    0.547307 0.108198 0.003663 0.191882
H37   H     H_    0.393531 0.473017 0.018997 0.181378
H38   H     H_    0.606468 0.473017 0.981002 0.181378
H39   H     H_    0.893532 0.973016 0.018998 0.181378
H40   H     H_    0.106468 0.973016 0.981002 0.181378
H41   H     H_    0.331355 0.467102 0.079803 0.171738
H42   H     H_    0.668645 0.467102 0.920196 0.171739
H43   H     H_    0.831355 0.967101 0.079804 0.171739
H44   H     H_    0.168645 0.967101 0.920196 0.171739
O1    O     O_R   0.050910 0.528730 0.449110 -0.594047
O2    O     O_R   0.949090 0.528730 0.550890 -0.594047
O3    O     O_R   0.550910 0.028730 0.449110 -0.594047
O4    O     O_R   0.449090 0.028730 0.550890 -0.594047
O5    O     O_R   0.449090 0.499920 0.102610 -0.626733
O6    O     O_R   0.550910 0.499920 0.897390 -0.626732
O7    O     O_R   0.949090 0.999920 0.102610 -0.626732
O8    O     O_R   0.050910 0.999920 0.897390 -0.626731
O9    O     O_R   0.449080 0.499990 0.999170 -0.617965
O10   O     O_R   0.550920 0.499990 0.000830 -0.617966
O11   O     O_R   0.949080 0.999990 0.999170 -0.617965
O12   O     O_R   0.050920 0.999990 0.000830 -0.617966
O13   O     O_R   0.500010 0.550840 0.051820 -0.600456
O14   O     O_R   0.499990 0.550840 0.948180 -0.600454
O15   O     O_R   0.000010 0.050840 0.051820 -0.600455
O16   O     O_R   0.999990 0.050840 0.948180 -0.600455
O17   O     O_R   0.050900 0.471250 0.449120 -0.629989
O18   O     O_R   0.949100 0.471250 0.550880 -0.629988
O19   O     O_R   0.550900 0.971250 0.449120 -0.629988
O20   O     O_R   0.449100 0.971250 0.550880 -0.629988
O21   O     O_R   1.000000 0.528730 0.591610 -0.617730
O22   O     O_R   0.000000 0.528730 0.408390 -0.617729
O23   O     O_R   0.500000 0.028730 0.591610 -0.617730
O24   O     O_R   0.500000 0.028730 0.408390 -0.617729
O25   O     O_R   0.999990 0.471250 0.591620 -0.618694
O26   O     O_R   0.000010 0.471250 0.408380 -0.618693
O27   O     O_R   0.499990 0.971250 0.591620 -0.618694
O28   O     O_R   0.500010 0.971250 0.408380 -0.618693
O29   O     O_R   0.971250 0.449070 0.028730 -0.619061
O30   O     O_R   0.028750 0.449070 0.971270 -0.619062
O31   O     O_R   0.471250 0.949070 0.028730 -0.619061
O32   O     O_R   0.528750 0.949070 0.971270 -0.619062
O33   O     O_R   0.971250 0.499980 0.937120 -0.559781
O34   O     O_R   0.028750 0.499980 0.062880 -0.559782
O35   O     O_R   0.471250 0.999980 0.937120 -0.559782
O36   O     O_R   0.528750 0.999980 0.062880 -0.559782
O37   O     O_R   0.028730 0.499990 0.879660 -0.634241
O38   O     O_R   0.971270 0.499990 0.120340 -0.634241
O39   O     O_R   0.528730 0.999990 0.879660 -0.634241
O40   O     O_R   0.471270 0.999990 0.120340 -0.634241
O41   O     O_R   0.971250 0.550900 0.028730 -0.629913
O42   O     O_R   0.028750 0.550900 0.971270 -0.629913
O43   O     O_R   0.471250 0.050900 0.028730 -0.629914
O44   O     O_R   0.528750 0.050900 0.971270 -0.629914
O45   O     O_R   0.499990 0.449010 0.051620 -0.596422
O46   O     O_R   0.500010 0.449010 0.948380 -0.596421
O47   O     O_R   0.999990 0.949010 0.051620 -0.596423
O48   O     O_R   0.000010 0.949010 0.948380 -0.596421
Zn1   Zn    Zn3+2 1.000000 0.538380 0.500000 0.980441
Zn2   Zn    Zn3+2 0.500000 0.038380 0.500000 0.980440
Zn3   Zn    Zn3+2 1.000000 0.461610 0.500000 0.970595
Zn4   Zn    Zn3+2 0.500000 0.961610 0.500000 0.970595
Zn5   Zn    Zn3+2 0.961610 0.499980 0.038370 0.993517
Zn6   Zn    Zn3+2 0.038390 0.499980 0.961630 0.993517
Zn7   Zn    Zn3+2 0.461610 0.999980 0.038370 0.993517
Zn8   Zn    Zn3+2 0.538390 0.999980 0.961630 0.993517
Zn9   Zn    Zn3+2 0.500000 0.499910 0.069070 0.976985
Zn10  Zn    Zn3+2 0.500000 0.499910 0.930930 0.976986
Zn11  Zn    Zn3+2 0.000000 0.999910 0.069070 0.976985
Zn12  Zn    Zn3+2 1.000000 0.999910 0.930930 0.976986
N1    N     N_2   0.390624 0.528100 0.212674 -0.309968
H45   H     H_    0.411998 0.542887 0.182611 0.263143
C209  C     C_3   0.393622 0.506129 0.263364 -0.711499
H46   H     H_    0.411003 0.484181 0.235991 0.245629
H47   H     H_    0.368035 0.496080 0.302981 0.255587
H48   H     H_    0.404271 0.521083 0.291890 0.240555
N2    N     N_2   0.609376 0.528101 0.787326 -0.309968
H49   H     H_    0.588002 0.542887 0.817389 0.263144
C210  C     C_3   0.606378 0.506129 0.736635 -0.711498
H50   H     H_    0.588997 0.484181 0.764009 0.245628
H51   H     H_    0.631965 0.496080 0.697019 0.255587
H52   H     H_    0.595728 0.521083 0.708110 0.240555
N3    N     N_2   0.890624 0.028101 0.212674 -0.309968
H53   H     H_    0.911998 0.042888 0.182611 0.263144
C211  C     C_3   0.893622 0.006130 0.263365 -0.711498
H54   H     H_    0.911003 0.984182 0.235991 0.245628
H55   H     H_    0.868035 0.996081 0.302981 0.255588
H56   H     H_    0.904271 0.021084 0.291890 0.240555
N4    N     N_2   0.109376 0.028101 0.787326 -0.309968
H57   H     H_    0.088002 0.042888 0.817389 0.263144
C212  C     C_3   0.106378 0.006130 0.736635 -0.711498
H58   H     H_    0.088997 0.984182 0.764009 0.245628
H59   H     H_    0.131965 0.996081 0.697019 0.255587
H60   H     H_    0.095728 0.021084 0.708110 0.240555
O49   O     O_3   0.284581 0.452384 0.302310 -0.757153
H61   H     H_    0.308296 0.447211 0.264796 0.341151
O50   O     O_3   0.715419 0.452385 0.697689 -0.757153
H62   H     H_    0.691704 0.447211 0.735203 0.341152
O51   O     O_3   0.784581 0.952385 0.302311 -0.757152
H63   H     H_    0.808296 0.947211 0.264797 0.341152
O52   O     O_3   0.215419 0.952385 0.697689 -0.757153
H64   H     H_    0.191704 0.947211 0.735203 0.341152
O53   O     O_3   0.212846 0.459259 0.379459 -0.775160
H65   H     H_    0.228291 0.448452 0.394542 0.390153
O54   O     O_3   0.787154 0.459259 0.620541 -0.775160
H66   H     H_    0.771709 0.448452 0.605458 0.390152
O55   O     O_3   0.712846 0.959260 0.379459 -0.775160
H67   H     H_    0.728291 0.948452 0.394543 0.390153
O56   O     O_3   0.287154 0.959260 0.620540 -0.775160
H68   H     H_    0.271709 0.948452 0.605457 0.390153
N5    N     N_2   0.285941 0.526324 0.116371 -0.302510
H69   H     H_    0.273926 0.525440 0.086003 0.226687
C213  C     C_3   0.295108 0.561040 0.124264 -0.705960
H70   H     H_    0.271570 0.576601 0.155932 0.232825
H71   H     H_    0.311084 0.561164 0.150655 0.259770
H72   H     H_    0.310235 0.572977 0.071152 0.235700
N6    N     N_2   0.714059 0.526323 0.883629 -0.302510
H73   H     H_    0.726074 0.525440 0.913997 0.226686
C214  C     C_3   0.704892 0.561040 0.875736 -0.705960
H74   H     H_    0.728429 0.576601 0.844068 0.232826
H75   H     H_    0.688915 0.561164 0.849345 0.259770
H76   H     H_    0.689765 0.572977 0.928848 0.235701
N7    N     N_2   0.785941 0.026323 0.116370 -0.302510
H77   H     H_    0.773926 0.025439 0.086003 0.226686
C215  C     C_3   0.795108 0.061039 0.124263 -0.705962
H78   H     H_    0.771570 0.076600 0.155931 0.232826
H79   H     H_    0.811084 0.061164 0.150654 0.259770
H80   H     H_    0.810235 0.072977 0.071151 0.235701
N8    N     N_2   0.214059 0.026323 0.883630 -0.302509
H81   H     H_    0.226074 0.025439 0.913997 0.226686
C216  C     C_3   0.204892 0.061039 0.875737 -0.705960
H82   H     H_    0.228429 0.076600 0.844069 0.232825
H83   H     H_    0.188915 0.061164 0.849346 0.259769
H84   H     H_    0.189765 0.072977 0.928849 0.235700
N9    N     N_2   0.109991 0.562414 0.377429 -0.290583
H85   H     H_    0.122283 0.577320 0.332367 0.220511
C217  C     C_3   0.104979 0.580907 0.439762 -0.710269
H86   H     H_    0.130100 0.586028 0.437063 0.230279
H87   H     H_    0.088302 0.566012 0.488369 0.264718
H88   H     H_    0.092153 0.605796 0.443020 0.228467
N10   N     N_2   0.890009 0.562414 0.622572 -0.290583
H89   H     H_    0.877717 0.577320 0.667633 0.220511
C218  C     C_3   0.895021 0.580907 0.560239 -0.710268
H90   H     H_    0.869900 0.586028 0.562938 0.230279
H91   H     H_    0.911698 0.566012 0.511631 0.264718
H92   H     H_    0.907847 0.605796 0.556981 0.228467
N11   N     N_2   0.609991 0.062413 0.377427 -0.290583
H93   H     H_    0.622283 0.077320 0.332366 0.220511
C219  C     C_3   0.604979 0.080907 0.439760 -0.710268
H94   H     H_    0.630100 0.086029 0.437061 0.230279
H95   H     H_    0.588302 0.066012 0.488368 0.264719
H96   H     H_    0.592153 0.105796 0.443017 0.228467
N12   N     N_2   0.390009 0.062413 0.622573 -0.290583
H97   H     H_    0.377717 0.077320 0.667635 0.220511
C220  C     C_3   0.395021 0.080907 0.560241 -0.710269
H98   H     H_    0.369900 0.086029 0.562940 0.230280
H99   H     H_    0.411698 0.066012 0.511633 0.264719
H100  H     H_    0.407847 0.105796 0.556983 0.228468
O57   O     O_3   0.555054 0.606408 0.889023 -0.688154
H101  H     H_    0.557804 0.583384 0.904824 0.310992
O58   O     O_3   0.444946 0.606408 0.110977 -0.688154
H102  H     H_    0.442196 0.583384 0.095176 0.310992
O59   O     O_3   0.055054 0.106408 0.889023 -0.688153
H103  H     H_    0.057804 0.083384 0.904824 0.310991
O60   O     O_3   0.944946 0.106408 0.110978 -0.688154
H104  H     H_    0.942196 0.083384 0.095176 0.310992
O61   O     O_3   0.552320 0.674519 0.883174 -0.682809
H105  H     H_    0.545858 0.698533 0.880543 0.344743
O62   O     O_3   0.447680 0.674519 0.116825 -0.682809
H106  H     H_    0.454142 0.698533 0.119457 0.344743
O63   O     O_3   0.052319 0.174519 0.883174 -0.682809
H107  H     H_    0.045858 0.198533 0.880543 0.344743
O64   O     O_3   0.947680 0.174519 0.116826 -0.682810
H108  H     H_    0.954142 0.198533 0.119457 0.344743
O65   O     O_3   0.946870 0.283374 0.990952 -0.735555
H109  H     H_    0.947804 0.308529 0.995688 0.349643
O66   O     O_3   0.053130 0.283374 0.009047 -0.735556
H110  H     H_    0.052196 0.308529 0.004312 0.349644
O67   O     O_3   0.446870 0.783373 0.990952 -0.735556
H111  H     H_    0.447804 0.808529 0.995687 0.349643
O68   O     O_3   0.553130 0.783373 0.009048 -0.735556
H112  H     H_    0.552196 0.808529 0.004312 0.349643
O69   O     O_3   0.973621 0.325606 0.130311 -0.716491
H113  H     H_    0.972154 0.300541 0.125347 0.348479
O70   O     O_3   0.026378 0.325606 0.869689 -0.716492
H114  H     H_    0.027846 0.300541 0.874652 0.348480
O71   O     O_3   0.473621 0.825606 0.130311 -0.716492
H115  H     H_    0.472154 0.800541 0.125347 0.348480
O72   O     O_3   0.526379 0.825606 0.869689 -0.716491
H116  H     H_    0.527846 0.800541 0.874652 0.348479
N13   N     N_2   0.975530 0.395286 0.130228 -0.257932
H117  H     H_    0.960821 0.416738 0.136455 0.237401
C221  C     C_3   0.001685 0.401226 0.150066 -0.674227
H118  H     H_    0.022157 0.418090 0.110467 0.246637
H119  H     H_    0.013160 0.376496 0.153632 0.268769
H120  H     H_    0.990052 0.413965 0.202703 0.230952
N14   N     N_2   0.024470 0.395286 0.869772 -0.257931
H121  H     H_    0.039179 0.416738 0.863545 0.237401
C222  C     C_3   0.998315 0.401226 0.849934 -0.674226
H122  H     H_    0.977843 0.418090 0.889533 0.246637
H123  H     H_    0.986840 0.376496 0.846368 0.268769
H124  H     H_    0.009948 0.413965 0.797297 0.230952
N15   N     N_2   0.475530 0.895285 0.130228 -0.257932
H125  H     H_    0.460821 0.916738 0.136455 0.237401
C223  C     C_3   0.501684 0.901226 0.150067 -0.674226
H126  H     H_    0.522156 0.918089 0.110468 0.246637
H127  H     H_    0.513159 0.876495 0.153633 0.268770
H128  H     H_    0.490051 0.913965 0.202703 0.230952
N16   N     N_2   0.524470 0.895286 0.869772 -0.257932
H129  H     H_    0.539179 0.916738 0.863545 0.237401
C224  C     C_3   0.498316 0.901226 0.849933 -0.674226
H130  H     H_    0.477844 0.918090 0.889532 0.246637
H131  H     H_    0.486841 0.876496 0.846367 0.268769
H132  H     H_    0.509949 0.913965 0.797297 0.230952
N17   N     N_2   0.520348 0.394132 0.871120 -0.260563
H133  H     H_    0.511829 0.383820 0.838560 0.269546
C225  C     C_3   0.556782 0.401516 0.833626 -0.671939
H134  H     H_    0.571761 0.377234 0.816840 0.257897
H135  H     H_    0.564273 0.416404 0.867783 0.225838
H136  H     H_    0.563086 0.417103 0.785803 0.219589
N18   N     N_2   0.479652 0.394132 0.128880 -0.260563
H137  H     H_    0.488171 0.383820 0.161440 0.269545
C226  C     C_3   0.443218 0.401516 0.166374 -0.671937
H138  H     H_    0.428239 0.377234 0.183160 0.257897
H139  H     H_    0.435727 0.416404 0.132217 0.225838
H140  H     H_    0.436914 0.417103 0.214197 0.219589
N19   N     N_2   0.020351 0.894132 0.871119 -0.260564
H141  H     H_    0.011833 0.883820 0.838557 0.269546
C227  C     C_3   0.056785 0.901517 0.833628 -0.671944
H142  H     H_    0.071763 0.877235 0.816844 0.257898
H143  H     H_    0.064274 0.916404 0.867787 0.225838
H144  H     H_    0.063089 0.917103 0.785805 0.219590
N20   N     N_2   0.979649 0.894132 0.128881 -0.260565
H145  H     H_    0.988167 0.883820 0.161443 0.269547
C228  C     C_3   0.943215 0.901517 0.166371 -0.671944
H146  H     H_    0.928236 0.877235 0.183156 0.257898
H147  H     H_    0.935726 0.916404 0.132213 0.225839
H148  H     H_    0.936911 0.917103 0.214195 0.219590
O73   O     O_3   0.511950 0.324274 0.876485 -0.741966
H149  H     H_    0.500833 0.301436 0.888358 0.342654
O74   O     O_3   0.488050 0.324274 0.123515 -0.741966
H150  H     H_    0.499167 0.301436 0.111641 0.342654
O75   O     O_3   0.011953 0.824274 0.876483 -0.741966
H151  H     H_    0.000835 0.801436 0.888356 0.342654
O76   O     O_3   0.988047 0.824274 0.123516 -0.741966
H152  H     H_    0.999165 0.801436 0.111644 0.342654
O77   O     O_3   0.440353 0.285394 0.090329 -0.734178
H153  H     H_    0.421685 0.269027 0.119438 0.341532
O78   O     O_3   0.559647 0.285394 0.909671 -0.734178
H154  H     H_    0.578315 0.269027 0.880562 0.341532
O79   O     O_3   0.940353 0.785394 0.090325 -0.734177
H155  H     H_    0.921684 0.769027 0.119433 0.341531
O80   O     O_3   0.059647 0.785394 0.909675 -0.734177
H156  H     H_    0.078316 0.769027 0.880567 0.341531
O81   O     O_3   0.948899 0.673203 0.984021 -0.758882
H157  H     H_    0.957557 0.695660 0.960632 0.346635
O82   O     O_3   0.051101 0.673203 0.015978 -0.758882
H158  H     H_    0.042443 0.695660 0.039368 0.346635
O83   O     O_3   0.448898 0.173203 0.984026 -0.758883
H159  H     H_    0.457555 0.195660 0.960637 0.346635
O84   O     O_3   0.551102 0.173203 0.015974 -0.758882
H160  H     H_    0.542445 0.195660 0.039363 0.346635
N21   N     N_2   0.119841 0.544414 0.562853 -0.336580
H161  H     H_    0.135053 0.564128 0.563428 0.233370
C229  C     C_3   0.139261 0.513988 0.527354 -0.707354
H162  H     H_    0.162071 0.521371 0.476493 0.260896
H163  H     H_    0.123488 0.496061 0.515235 0.251629
H164  H     H_    0.148105 0.500794 0.561103 0.242985
N22   N     N_2   0.880159 0.544414 0.437147 -0.336580
H165  H     H_    0.864947 0.564128 0.436572 0.233370
C230  C     C_3   0.860739 0.513989 0.472646 -0.707353
H166  H     H_    0.837929 0.521371 0.523508 0.260896
H167  H     H_    0.876512 0.496062 0.484765 0.251629
H168  H     H_    0.851895 0.500795 0.438897 0.242985
N23   N     N_2   0.619841 0.044416 0.562854 -0.336581
H169  H     H_    0.635052 0.064130 0.563429 0.233371
C231  C     C_3   0.639261 0.013991 0.527354 -0.707358
H170  H     H_    0.662070 0.021374 0.476493 0.260895
H171  H     H_    0.623488 0.996064 0.515235 0.251629
H172  H     H_    0.648105 0.000797 0.561103 0.242987
N24   N     N_2   0.380160 0.044416 0.437146 -0.336580
H173  H     H_    0.364949 0.064130 0.436570 0.233370
C232  C     C_3   0.360739 0.013991 0.472646 -0.707357
H174  H     H_    0.337929 0.021374 0.523507 0.260895
H175  H     H_    0.376512 0.996064 0.484765 0.251629
H176  H     H_    0.351895 0.000797 0.438897 0.242987
N25   N     N_2   0.108849 0.570174 0.698230 -0.324150
H177  H     H_    0.133425 0.560598 0.669033 0.233745
C233  C     C_3   0.106832 0.606828 0.689785 -0.788736
H178  H     H_    0.126874 0.620010 0.697317 0.249637
H179  H     H_    0.081413 0.616898 0.729855 0.262317
H180  H     H_    0.110997 0.612895 0.635974 0.235802
N26   N     N_2   0.891151 0.570175 0.301770 -0.324150
H181  H     H_    0.866575 0.560599 0.330967 0.233745
C234  C     C_3   0.893168 0.606829 0.310215 -0.788734
H182  H     H_    0.873126 0.620010 0.302683 0.249637
H183  H     H_    0.918587 0.616898 0.270145 0.262317
H184  H     H_    0.889004 0.612895 0.364025 0.235802
N27   N     N_2   0.608848 0.070176 0.698232 -0.324149
H185  H     H_    0.633424 0.060601 0.669034 0.233745
C235  C     C_3   0.606830 0.106830 0.689787 -0.788734
H186  H     H_    0.626871 0.120012 0.697319 0.249636
H187  H     H_    0.581411 0.116899 0.729857 0.262318
H188  H     H_    0.610995 0.112897 0.635977 0.235802
N28   N     N_2   0.391152 0.070177 0.301768 -0.324149
H189  H     H_    0.366576 0.060602 0.330965 0.233744
C236  C     C_3   0.393170 0.106831 0.310212 -0.788732
H190  H     H_    0.373129 0.120013 0.302680 0.249636
H191  H     H_    0.418589 0.116900 0.270142 0.262317
H192  H     H_    0.389006 0.112897 0.364023 0.235801
N29   N     N_2   0.042743 0.561951 0.818407 -0.284059
H193  H     H_    0.062842 0.569592 0.825964 0.265097
C237  C     C_3   0.017581 0.588700 0.832415 -0.788643
H194  H     H_    0.024290 0.612146 0.852247 0.238636
H195  H     H_    0.991826 0.579557 0.872897 0.241441
H196  H     H_    0.016445 0.595997 0.783843 0.246374
N30   N     N_2   0.957257 0.561951 0.181592 -0.284059
H197  H     H_    0.937158 0.569593 0.174036 0.265096
C238  C     C_3   0.982419 0.588700 0.167584 -0.788642
H198  H     H_    0.975710 0.612146 0.147754 0.238636
H199  H     H_    0.008174 0.579557 0.127102 0.241441
H200  H     H_    0.983556 0.595997 0.216156 0.246375
N31   N     N_2   0.542742 0.061951 0.818409 -0.284060
H201  H     H_    0.562841 0.069594 0.825966 0.265096
C239  C     C_3   0.517579 0.088700 0.832417 -0.788639
H202  H     H_    0.524289 0.112147 0.852246 0.238635
H203  H     H_    0.491824 0.079557 0.872902 0.241441
H204  H     H_    0.516441 0.095996 0.783846 0.246374
N32   N     N_2   0.457258 0.061952 0.181591 -0.284060
H205  H     H_    0.437160 0.069594 0.174034 0.265096
C240  C     C_3   0.482421 0.088700 0.167582 -0.788639
H206  H     H_    0.475712 0.112147 0.147754 0.238635
H207  H     H_    0.508176 0.079557 0.127097 0.241440
H208  H     H_    0.483560 0.095995 0.216153 0.246374
O85   O     O_3   0.946258 0.472472 0.866155 -0.757361
H209  H     H_    0.930235 0.461609 0.852508 0.334037
O86   O     O_3   0.053742 0.472472 0.133845 -0.757362
H210  H     H_    0.069765 0.461609 0.147492 0.334037
O87   O     O_3   0.446258 0.972472 0.866155 -0.757362
H211  H     H_    0.430235 0.961608 0.852508 0.334038
O88   O     O_3   0.553742 0.972471 0.133846 -0.757363
H212  H     H_    0.569764 0.961607 0.147492 0.334038
O89   O     O_3   0.317708 0.524478 0.275050 -0.751180
H213  H     H_    0.331103 0.539798 0.288889 0.364306
O90   O     O_3   0.682292 0.524478 0.724950 -0.751180
H214  H     H_    0.668897 0.539798 0.711112 0.364306
O91   O     O_3   0.817708 0.024478 0.275050 -0.751181
H215  H     H_    0.831103 0.039798 0.288888 0.364307
O92   O     O_3   0.182292 0.024478 0.724950 -0.751180
H216  H     H_    0.168897 0.039798 0.711112 0.364307

loop_
_geom_bond_atom_site_label_1
_geom_bond_atom_site_label_2
_ccdc_geom_bond_type
C4    O20   A    
C219  H96   S    
O70   H114  S    
C63   N7    S    
C55   C59   A    
C231  H172  S    
C1    C77   S    
O89   H213  S    
C142  C146  A    
C83   C87   A    
O80   H156  S    
C239  H202  S    
C3    C79   S    
C115  O59   S    
O49   H61   S    
C144  C148  A    
C170  C176  A    
C212  H58   S    
C76   H16   S    
C234  H184  S    
C133  C137  A    
C171  C173  A    
C46   O22   A    
C69   C93   A    
C220  H99   S    
C183  O83   S    
C20   C40   A    
C59   H7    S    
C229  H163  S    
C71   C95   A    
C92   H24   S    
C29   C33   A    
C226  H140  S    
O69   H113  S    
C9    C13   A    
C100  O38   A    
C131  C140  A    
C11   C15   A    
C61   N5    S    
C12   C16   A    
C120  C122  A    
C238  H199  S    
C124  C158  A    
C70   C74   A    
C108  O10   A    
C136  O68   S    
C192  C198  A    
C177  C195  S    
C112  O16   A    
O4    Zn2   S    
C141  C145  A    
C99   O33   A    
O1    Zn1   S    
C194  N32   S    
C2    O2    A    
O12   Zn11  S    
C41   C49   A    
N5    C213  S    
C47   O27   A    
C156  N20   S    
C48   O28   A    
C25   C29   A    
C214  H76   S    
N32   C240  S    
C27   C31   A    
N18   H137  S    
C28   C32   A    
C147  C150  A    
O6    Zn10  S    
C216  H84   S    
N23   C231  S    
C62   C66   A    
C98   O31   A    
C222  H124  S    
C40   C110  S    
C131  H27   S    
N19   H141  S    
C116  O60   S    
C17   C21   A    
C153  C161  A    
C142  O70   S    
C142  C151  A    
C109  O7    A    
C224  H132  S    
C19   C23   A    
C223  H127  S    
C110  O8    A    
C2    C78   S    
C158  C192  A    
N20   C228  S    
C162  C165  A    
C78   C82   A    
C213  H70   S    
C48   C208  S    
C183  C196  A    
C107  O9    A    
C70   H10   S    
C14   C100  S    
C132  H28   S    
C174  C177  A    
O16   Zn12  S    
C164  O76   S    
C58   H6    S    
C55   C95   S    
C143  C147  A    
C45   O25   A    
N11   H93   S    
C154  C167  A    
C132  C140  A    
N10   H89   S    
O68   H112  S    
O15   Zn11  S    
C103  O42   A    
C98   C150  S    
C212  H60   S    
C113  O57   S    
C155  N19   S    
O27   Zn4   S    
C91   C125  A    
C84   C88   A    
C120  O64   S    
C57   C61   A    
O18   Zn3   S    
O42   Zn6   S    
C59   C63   A    
C73   H13   S    
C60   C64   A    
O30   Zn6   S    
C18   C38   A    
C228  H147  S    
C237  H194  S    
N7    H77   S    
O46   Zn10  S    
C49   C53   A    
C221  H119  S    
C215  H80   S    
C51   C55   A    
O87   H211  S    
O29   Zn5   S    
C72   C96   A    
C61   C65   A    
C39   C109  S    
C29   O89   S    
C132  C134  A    
C210  H50   S    
C239  H204  S    
C129  H25   S    
O39   Zn8   S    
C64   N8    S    
C73   C77   A    
O61   H105  S    
O59   H103  S    
C75   C79   A    
C161  C165  A    
C90   C202  A    
C79   C83   A    
N2    C210  S    
O67   H111  S    
O66   H110  S    
O64   H108  S    
C202  C206  A    
C41   O49   S    
O20   Zn4   S    
O57   H101  S    
C135  O67   S    
C186  H34   S    
C118  O62   S    
N31   H201  S    
C104  O43   A    
C225  H135  S    
N27   H185  S    
C13   C197  A    
C64   C68   A    
C28   C68   S    
C148  C150  A    
C22   H42   S    
C227  H143  S    
C184  O84   S    
C173  H29   S    
N1    C209  S    
C1    O17   A    
C156  C168  A    
C100  O34   A    
C3    O19   A    
C101  O35   A    
C188  C190  A    
C102  O36   A    
N3    C211  S    
N29   H193  S    
O36   Zn8   S    
C33   N1    S    
C129  C135  A    
C85   C93   A    
C194  C200  A    
O72   H116  S    
C163  O75   S    
C133  O65   S    
C198  C202  A    
C16   C200  A    
C200  C204  A    
C44   C52   A    
C176  C178  A    
O26   Zn3   S    
O83   H159  S    
O8    Zn12  S    
C158  N26   S    
N15   H125  S    
C34   N2    S    
C172  C174  A    
O73   H149  S    
C72   H12   S    
N21   C229  S    
C30   C34   A    
C26   C66   S    
C172  O80   S    
C204  C208  A    
C42   C66   A    
C111  O13   A    
C7    C207  A    
C10   C14   A    
C211  H55   S    
C217  H88   S    
C123  C157  A    
C155  C163  A    
C178  C196  S    
C115  C128  A    
C116  C120  A    
C91   H23   S    
C230  H167  S    
C13   C99   S    
C5    C9    A    
O75   H151  S    
C97   O29   A    
N4    C212  S    
C235  H186  S    
C129  C139  A    
C17   H37   S    
C8    C12   A    
C210  H52   S    
N25   H177  S    
C235  H188  S    
C15   C101  S    
C192  N30   S    
O40   Zn7   S    
C19   C39   A    
C42   C50   A    
C113  C117  A    
C48   O24   A    
C213  H71   S    
C57   H5    S    
C26   C30   A    
C115  C119  A    
C74   C78   A    
C165  C179  S    
C232  H174  S    
C85   H17   S    
C105  O46   A    
C4    O4    A    
N22   H165  S    
N6    H73   S    
O47   Zn11  S    
C231  H171  S    
N17   H133  S    
C21   C25   A    
C209  H48   S    
C18   C22   A    
C154  C162  A    
C76   C80   A    
C84   N12   S    
C7    H3    S    
N24   H173  S    
C11   O87   S    
C185  C189  A    
C117  C121  A    
C234  H183  S    
C5    H1    S    
C170  C179  A    
C107  O5    A    
C121  C139  S    
C60   H8    S    
C122  C140  S    
C144  C152  A    
C220  H98   S    
C32   O92   S    
C157  N25   S    
C30   O90   S    
O32   Zn8   S    
C88   H20   S    
C175  H31   S    
C226  H139  S    
C161  O73   S    
N26   C234  S    
O14   Zn10  S    
C237  H196  S    
C145  C149  A    
C6    C206  A    
C27   C67   S    
N16   H129  S    
C43   O51   S    
C209  H46   S    
C166  C180  S    
C43   C67   A    
C238  H198  S    
C232  H176  S    
O76   H152  S    
C97   C149  S    
C90   H22   S    
C182  C195  A    
C218  H91   S    
C8    H4    S    
O78   H154  S    
C169  C179  A    
C81   C85   A    
C58   C62   A    
O43   Zn7   S    
C88   C96   A    
O63   H107  S    
O44   Zn8   S    
N7    C215  S    
N29   C237  S    
N28   H189  S    
C80   C84   A    
C134  C137  A    
C141  O69   S    
N5    H69   S    
O23   Zn2   S    
C217  H86   S    
O33   Zn5   S    
O5    Zn9   S    
C214  H75   S    
C50   C54   A    
C69   H9    S    
C70   C94   A    
C37   C107  S    
C216  H83   S    
C117  O61   S    
N23   H169  S    
C98   O32   A    
C222  H123  S    
C159  N27   S    
N8    H81   S    
C160  N28   S    
C71   H11   S    
C162  O74   S    
C62   N6    S    
C182  C186  A    
C224  H131  S    
C187  C190  A    
C23   H43   S    
C42   O50   S    
O56   H68   S    
C49   O53   S    
N13   C221  S    
C69   C73   A    
C103  C189  S    
C106  O47   A    
C92   C204  A    
C119  O63   S    
C172  C180  A    
C212  H59   S    
N32   H205  S    
N14   H121  S    
O79   H155  S    
C153  C167  A    
C199  C203  A    
N17   C225  S    
C229  H162  S    
O19   Zn4   S    
C130  C139  A    
C144  O72   S    
C1    O1    A    
C103  O41   A    
C175  C178  A    
N19   C227  S    
O55   H67   S    
C2    O18   A    
C130  C136  A    
C82   N10   S    
C83   N11   S    
O86   H210  S    
C24   C28   A    
O9    Zn10  S    
C219  H94   S    
C163  C166  A    
C35   N3    S    
C187  H35   S    
C220  H100  S    
C145  N13   S    
O54   H66   S    
O17   Zn3   S    
C53   C57   A    
C229  H164  S    
C185  H33   S    
C138  C152  S    
O37   Zn6   S    
O71   H115  S    
C130  H26   S    
C33   C37   A    
C223  H126  S    
C35   C39   A    
O90   H214  S    
C236  H190  S    
C183  C187  A    
C146  C149  A    
C14   C198  A    
O50   H62   S    
C24   H44   S    
C155  C168  A    
O84   H160  S    
C238  H200  S    
C182  O82   S    
C169  C175  A    
C215  H79   S    
C112  O15   A    
O45   Zn9   S    
C146  N14   S    
C6    H2    S    
C143  C152  A    
C176  H32   S    
C123  N21   S    
C87   H19   S    
C239  H203  S    
C31   C35   A    
C188  H36   S    
O22   Zn1   S    
C32   C36   A    
C101  O39   A    
C221  H118  S    
C102  O40   A    
C218  H90   S    
C56   C96   S    
C45   C205  S    
C233  H179  S    
C90   C124  A    
O35   Zn7   S    
C92   C126  A    
C6    C10   A    
N12   H97   S    
C125  C159  A    
C4    C80   S    
C126  C160  A    
C104  O44   A    
C74   H14   S    
C45   O21   A    
O25   Zn3   S    
C230  H168  S    
C186  C189  A    
N14   C222  S    
C223  H128  S    
C211  H54   S    
N4    H57   S    
C193  C199  A    
C82   C86   A    
C114  C127  A    
N24   C232  S    
C43   C51   A    
N1    H45   S    
C236  H192  S    
C159  C193  A    
C46   O26   A    
C181  O81   S    
C153  N17   S    
C38   C108  S    
N3    H53   S    
C181  C195  A    
C112  C128  S    
N2    H49   S    
C56   C60   A    
C22   C26   A    
O62   H106  S    
N11   C219  S    
C171  O79   S    
C216  H82   S    
C91   C203  A    
C81   N9    S    
N16   C224  S    
C135  C138  A    
C89   C201  A    
O52   H64   S    
N22   C230  S    
C36   N4    S    
C240  H208  S    
C148  N16   S    
C108  O6    A    
O58   H102  S    
C227  H142  S    
C157  C191  A    
O65   H109  S    
C19   H39   S    
C231  H170  S    
N30   C238  S    
C193  N31   S    
O51   H63   S    
C7    C11   A    
O24   Zn2   S    
N21   H161  S    
C228  H146  S    
C51   O55   S    
O74   H150  S    
N28   C236  S    
O21   Zn1   S    
C230  H166  S    
C228  H148  S    
C174  H30   S    
C21   H41   S    
C47   O23   A    
C126  N24   S    
C217  H87   S    
C143  O71   S    
O82   H158  S    
C233  H178  S    
C8    C208  A    
O81   H157  S    
N15   C223  S    
O48   Zn12  S    
C184  C196  A    
C86   C94   A    
O7    Zn11  S    
C20   C24   A    
C210  H51   S    
N26   H181  S    
C235  H187  S    
C197  C201  A    
C77   C81   A    
C109  O11   A    
C170  O78   S    
C110  O12   A    
C221  H120  S    
O34   Zn6   S    
C75   H15   S    
C184  C188  A    
C240  H206  S    
C105  O45   A    
O11   Zn12  S    
C147  N15   S    
C46   C206  S    
O31   Zn7   S    
C9    O85   S    
N31   C239  S    
C225  H136  S    
C63   C67   A    
C209  H47   S    
N9    C217  S    
C53   C93   S    
O28   Zn4   S    
C50   O54   S    
C36   C40   A    
C233  H180  S    
C25   C65   S    
C136  C138  A    
C227  H144  S    
C125  N23   S    
N20   H145  S    
C181  C185  A    
C41   C65   A    
C89   C123  A    
N8    C216  S    
C234  H182  S    
C203  C207  A    
O91   H215  S    
C219  H95   S    
C105  C167  S    
C87   C95   A    
C118  C121  A    
C106  C168  S    
N10   C218  S    
C215  H78   S    
O41   Zn5   S    
C18   H38   S    
N30   H197  S    
C173  C177  A    
O60   H104  S    
C104  C190  S    
C226  H138  S    
C72   C76   A    
N6    C214  S    
C17   C37   A    
C236  H191  S    
C237  H195  S    
N9    H85   S    
C114  C118  A    
O2    Zn1   S    
C169  O77   S    
C31   O91   S    
C16   C102  S    
C12   O88   S    
C114  O58   S    
O85   H209  S    
C23   C27   A    
C232  H175  S    
C111  C127  S    
C86   H18   S    
C171  C180  A    
C44   C68   A    
O10   Zn9   S    
C134  O66   S    
C141  C151  A    
C52   O56   S    
C160  C194  A    
C54   C58   A    
C119  C122  A    
O38   Zn5   S    
C201  C205  A    
C34   C38   A    
C10   O86   S    
C191  C197  A    
C111  O14   A    
C131  C133  A    
C240  H207  S    
C211  H56   S    
C113  C127  A    
C44   O52   S    
C214  H74   S    
C154  N18   S    
C47   C207  S    
O77   H153  S    
C218  H92   S    
O3    Zn2   S    
C164  C166  A    
O88   H212  S    
N27   C235  S    
C97   O30   A    
C71   C75   A    
N12   C220  S    
C222  H122  S    
C124  N22   S    
N25   C233  S    
C225  H134  S    
C15   C199  A    
C224  H130  S    
C3    O3    A    
C54   C94   S    
C191  N29   S    
C5    C205  A    
O92   H216  S    
C20   H40   S    
C213  H72   S    
O13   Zn9   S    
C156  C164  A    
N13   H117  S    
C116  C128  A    
N18   C226  S    
C137  C151  S    
C89   H21   S    
O53   H65   S    
C99   O37   A    
C106  O48   A    
C52   C56   A    
