data_mof_unit_50830.cif
_audit_creation_date              2012-12-10T17:46:20-0500
_audit_creation_method            fapswitch 2.2
_symmetry_space_group_name_H-M    P1
_symmetry_Int_Tables_number       1
_space_group_crystal_system       triclinic
_cell_length_a                    14.124558
_cell_length_b                    10.642117
_cell_length_c                    9.982887
_cell_angle_alpha                 90.222424
_cell_angle_beta                  89.689029
_cell_angle_gamma                 90.980553
_cell_volume                      1500.32702852

loop_
_atom_site_label
_atom_site_type_symbol
_atom_type_description
_atom_site_fract_x
_atom_site_fract_y
_atom_site_fract_z
_atom_type_partial_charge
C1    C     C_R   0.501499 0.260945 0.500793 0.938949
C2    C     C_R   0.581258 0.063111 0.507926 0.369489
C3    C     C_R   0.577443 0.934273 0.508824 -0.254005
C4    C     C_R   0.329472 0.496693 0.500496 0.848133
C5    C     C_R   0.490543 0.871968 0.495644 -0.127416
C6    C     C_R   0.347675 0.379286 0.133824 0.111575
C7    C     C_R   0.262326 0.363767 0.063037 0.261926
C8    C     C_R   0.266992 0.355103 0.924010 0.330760
C9    C     C_R   0.352771 0.379585 0.859884 -0.272369
C10   C     C_R   0.426877 0.441795 0.927388 0.019782
C11   C     C_R   0.425598 0.442463 0.070938 0.056063
C12   C     C_1   0.772100 0.497645 0.499254 -0.144483
C13   C     C_R   0.569381 0.558114 0.071694 -0.157814
C14   C     C_R   0.570005 0.558038 0.928668 0.257712
C15   C     C_R   0.494098 0.739062 0.499387 0.927296
C16   C     C_R   0.670566 0.499990 0.499684 0.919339
C17   C     C_1   0.227892 0.491833 0.501606 -0.172500
C18   C     C_1   0.142559 0.490208 0.501546 0.105338
C19   C     C_1   0.042625 0.490622 0.500968 0.111615
C20   C     C_1   0.957319 0.492307 0.500331 0.063196
C21   C     C_1   0.857404 0.495152 0.499595 0.031694
C22   C     C_3   0.735124 0.565271 0.867671 -0.691753
C23   C     C_R   0.322470 0.133204 0.521276 -0.305815
C24   C     C_3   0.093502 0.833955 0.540078 -0.677653
C25   C     C_3   0.333604 0.778596 0.230954 -0.688340
C26   C     C_3   0.398573 0.168968 0.168567 -0.709049
C27   C     C_R   0.235267 0.073739 0.501729 0.456489
C28   C     C_R   0.231089 0.948273 0.460173 0.125306
C29   C     C_R   0.316142 0.880495 0.444638 0.057751
C30   C     C_R   0.404211 0.937247 0.482932 0.029119
C31   C     C_R   0.407493 0.067015 0.506092 -0.071905
C32   C     C_R   0.496547 0.128491 0.505476 -0.142100
Cl1   Cl    Cl    0.692822 0.140046 0.513680 -0.585553
Cl2   Cl    Cl    0.170104 0.299916 0.829450 -0.489224
Cl3   Cl    Cl    0.131672 0.162508 0.514276 -0.490987
Cl4   Cl    Cl    0.157526 0.317754 0.148129 -0.512800
H1    H     H_    0.360399 0.345947 0.759611 0.231679
H2    H     H_    0.135831 0.754719 0.577925 0.203036
H3    H     H_    0.023168 0.797221 0.507760 0.236156
H4    H     H_    0.082568 0.902842 0.622380 0.287112
H5    H     H_    0.254987 0.710436 0.390144 0.216932
H6    H     H_    0.335899 0.684344 0.183120 0.241327
H7    H     H_    0.403027 0.826835 0.214158 0.246148
H8    H     H_    0.277109 0.833603 0.182586 0.222996
H9    H     H_    0.311338 0.269731 0.296198 0.264153
H10   H     H_    0.464130 0.186638 0.109043 0.246349
H11   H     H_    0.343011 0.127005 0.102953 0.241559
H12   H     H_    0.323071 0.232237 0.545552 0.162502
H13   H     H_    0.415098 0.099659 0.246548 0.236804
H14   H     H_    0.642608 0.882233 0.516206 0.172848
H15   H     H_    0.625548 0.606303 0.125607 0.153749
H16   H     H_    0.646913 0.717473 0.884351 0.216040
H17   H     H_    0.762573 0.570793 0.971677 0.224172
H18   H     H_    0.785858 0.615125 0.800226 0.236763
H19   H     H_    0.730287 0.465192 0.835771 0.268771
H20   H     H_    0.139217 0.840649 0.341523 0.235505
N1    N     N_R   0.499190 0.498800 0.142780 -0.097182
N2    N     N_R   0.499160 0.498720 0.857170 -0.097221
N3    N     N_2   0.643452 0.623395 0.859341 -0.276124
N4    N     N_2   0.141269 0.893602 0.428095 -0.263621
N5    N     N_2   0.314441 0.764943 0.372916 -0.297522
N6    N     N_2   0.365852 0.284940 0.229059 -0.232678
O1    O     O_R   0.500000 0.316780 0.614690 -0.620068
O2    O     O_R   0.499990 0.316750 0.385360 -0.568869
O3    O     O_R   0.373720 0.500010 0.614690 -0.613696
O4    O     O_R   0.373710 0.499990 0.385360 -0.587248
O5    O     O_R   0.500010 0.683250 0.614640 -0.602701
O6    O     O_R   0.500000 0.683220 0.385310 -0.598741
O7    O     O_R   0.626290 0.500010 0.614640 -0.568214
O8    O     O_R   0.626280 0.499990 0.385310 -0.596286
Zn1   Zn    Zn3+2 0.500010 0.500020 0.653130 0.975112
Zn2   Zn    Zn3+2 0.499990 0.499980 0.346870 0.972697

loop_
_geom_bond_atom_site_label_1
_geom_bond_atom_site_label_2
_ccdc_geom_bond_type
C25   H6    S    
C8    C9    A    
C24   H2    S    
C22   H19   S    
H16   N3    S    
C23   C27   A    
C22   H17   S    
C27   Cl3   S    
C9    C10   A    
C19   C20   T    
H5    N5    S    
C24   N4    S    
C15   O5    A    
C25   H7    S    
C9    H1    S    
C17   C18   T    
C26   N6    S    
C3    C5    A    
C7    C8    A    
C22   H18   S    
C25   N5    S    
C13   C14   A    
H20   N4    S    
C4    O4    A    
C14   N3    S    
C6    N6    S    
C29   C30   A    
C28   N4    S    
C11   N1    A    
C26   H11   S    
C15   O6    A    
C1    O1    A    
C25   H8    S    
C28   C29   A    
C10   N2    A    
C3    H14   S    
O1    Zn1   S    
C2    C3    A    
C6    C7    A    
O5    Zn1   S    
O2    Zn2   S    
N1    Zn2   S    
C13   H15   S    
C30   C31   A    
C14   N2    A    
C29   N5    S    
N2    Zn1   S    
C5    C15   S    
C13   N1    A    
C10   C11   A    
C4    C17   S    
C1    O2    A    
C12   C16   S    
H9    N6    S    
C6    C11   A    
C24   H3    S    
C16   O8    A    
C20   C21   S    
C2    Cl1   S    
C2    C32   A    
C5    C30   A    
C7    Cl4   S    
C26   H13   S    
C22   N3    S    
O7    Zn1   S    
C26   H10   S    
C4    O3    A    
C18   C19   S    
C8    Cl2   S    
C23   H12   S    
C24   H4    S    
O3    Zn1   S    
C12   C21   T    
O8    Zn2   S    
C1    C32   S    
O4    Zn2   S    
C16   O7    A    
C31   C32   A    
O6    Zn2   S    
C27   C28   A    
C23   C31   A    
