data_mof_unit_20493.cif
_audit_creation_date              2012-12-10T17:26:05-0500
_audit_creation_method            fapswitch 2.2
_symmetry_space_group_name_H-M    P1
_symmetry_Int_Tables_number       1
_space_group_crystal_system       triclinic
_cell_length_a                    25.995022
_cell_length_b                    26.035857
_cell_length_c                    22.24042
_cell_angle_alpha                 90.428021
_cell_angle_beta                  126.017588
_cell_angle_gamma                 89.682726
_cell_volume                      12174.5593883

loop_
_atom_site_label
_atom_site_type_symbol
_atom_type_description
_atom_site_fract_x
_atom_site_fract_y
_atom_site_fract_z
_atom_type_partial_charge
C1    C     C_R   0.900288 0.749893 0.300757 0.804294
C2    C     C_R   0.099653 0.250186 0.699242 0.818199
C3    C     C_R   0.099699 0.750068 0.699361 0.811052
C4    C     C_R   0.900378 0.250044 0.300651 0.835179
C5    C     C_R   0.400291 0.249866 0.300760 0.805111
C6    C     C_R   0.599652 0.750160 0.699240 0.817324
C7    C     C_R   0.599681 0.250026 0.699354 0.809505
C8    C     C_R   0.400367 0.750009 0.300656 0.835343
C9    C     C_3   0.193869 0.774166 0.975561 -0.378191
C10   C     C_3   0.780615 0.296883 0.024830 -0.372719
C11   C     C_3   0.809520 0.766059 0.025118 -0.377720
C12   C     C_3   0.209086 0.291314 0.975813 -0.373440
C13   C     C_3   0.719875 0.203910 0.975215 -0.378279
C14   C     C_3   0.306663 0.726869 0.024549 -0.375124
C15   C     C_3   0.290395 0.209053 0.024195 -0.381274
C16   C     C_3   0.689930 0.734372 0.974856 -0.375140
C17   C     C_1   0.139288 0.750265 0.778586 -0.139544
C18   C     C_1   0.861029 0.250378 0.221452 -0.130023
C19   C     C_1   0.860528 0.749739 0.221509 -0.139152
C20   C     C_1   0.139258 0.250677 0.778489 -0.120268
C21   C     C_1   0.639229 0.249960 0.778564 -0.141366
C22   C     C_1   0.361013 0.750140 0.221465 -0.131018
C23   C     C_1   0.360511 0.249522 0.221517 -0.140195
C24   C     C_1   0.639221 0.750480 0.778483 -0.120940
C25   C     C_3   0.239279 0.702414 0.974914 0.578603
C26   C     C_3   0.714901 0.243294 0.024540 0.579261
C27   C     C_3   0.752562 0.702952 0.024062 0.577671
C28   C     C_3   0.285766 0.254274 0.975888 0.580851
C29   C     C_3   0.785577 0.257498 0.975482 0.576986
C30   C     C_3   0.261272 0.798616 0.025232 0.579404
C31   C     C_3   0.213725 0.246091 0.024136 0.578163
C32   C     C_3   0.746888 0.797478 0.975913 0.578161
C33   C     C_3   0.212554 0.750802 0.926231 0.007401
C34   C     C_3   0.787411 0.251236 0.073842 0.005809
C35   C     C_3   0.787319 0.750155 0.073833 0.007854
C36   C     C_3   0.212681 0.251182 0.926172 0.005725
C37   C     C_3   0.713069 0.249547 0.926189 0.007413
C38   C     C_3   0.287971 0.750211 0.073867 0.006183
C39   C     C_3   0.286810 0.249184 0.073839 0.007531
C40   C     C_3   0.712140 0.750272 0.926150 0.006283
C41   C     C_1   0.172423 0.750540 0.845269 0.028519
C42   C     C_1   0.827836 0.250785 0.154784 0.034240
C43   C     C_1   0.827364 0.749866 0.154813 0.027638
C44   C     C_1   0.172462 0.250993 0.845186 0.031566
C45   C     C_1   0.672556 0.249805 0.845240 0.026935
C46   C     C_1   0.328017 0.750198 0.154801 0.033609
C47   C     C_1   0.327148 0.249309 0.154820 0.025530
C48   C     C_1   0.672219 0.750476 0.845175 0.032317
C49   C     C_R   0.736417 0.696153 0.381664 0.174699
C50   C     C_R   0.215288 0.345888 0.529533 0.158523
C51   C     C_R   0.258273 0.799830 0.622476 0.118990
C52   C     C_R   0.743540 0.198431 0.380954 0.121743
C53   C     C_R   0.236213 0.196645 0.381192 0.171538
C54   C     C_R   0.714727 0.846025 0.528595 0.158239
C55   C     C_R   0.759905 0.297459 0.624743 0.096839
C56   C     C_R   0.243984 0.697935 0.381560 0.122601
C57   C     C_R   0.699987 0.650891 0.355296 0.068852
C58   C     C_R   0.262902 0.381651 0.577026 0.085345
C59   C     C_R   0.313868 0.825687 0.677664 0.095914
C60   C     C_R   0.687595 0.173122 0.325270 0.116022
C61   C     C_R   0.199547 0.151513 0.354368 0.068317
C62   C     C_R   0.762116 0.882067 0.575633 0.085378
C63   C     C_R   0.815931 0.322729 0.680305 0.077248
C64   C     C_R   0.188270 0.672223 0.326186 0.114722
C65   C     C_R   0.676376 0.631139 0.392803 -0.249490
C66   C     C_R   0.326651 0.367003 0.616452 -0.288768
C67   C     C_R   0.362178 0.832593 0.669748 -0.198978
C68   C     C_R   0.636760 0.170567 0.329452 -0.278154
C69   C     C_R   0.175825 0.131592 0.391671 -0.250359
C70   C     C_R   0.825952 0.867680 0.615135 -0.291090
C71   C     C_R   0.863574 0.330563 0.671460 -0.192646
C72   C     C_R   0.137474 0.669515 0.330415 -0.271743
C73   C     C_R   0.679987 0.660096 0.448350 0.147641
C74   C     C_R   0.343313 0.320333 0.600154 0.138878
C75   C     C_R   0.358467 0.812163 0.609573 0.088478
C76   C     C_R   0.639218 0.193606 0.387708 0.093285
C77   C     C_R   0.179580 0.160290 0.447502 0.147046
C78   C     C_R   0.842895 0.820937 0.599357 0.137779
C79   C     C_R   0.858931 0.311342 0.610156 0.087882
C80   C     C_R   0.139680 0.692881 0.388320 0.089932
C81   C     C_R   0.707721 0.709989 0.465732 -0.010509
C82   C     C_R   0.294702 0.289312 0.540575 0.019641
C83   C     C_R   0.305617 0.779801 0.555943 -0.007733
C84   C     C_R   0.694211 0.222734 0.443880 0.025129
C85   C     C_R   0.207534 0.210113 0.465342 -0.011213
C86   C     C_R   0.794470 0.789574 0.540148 0.020294
C87   C     C_R   0.805936 0.279204 0.556380 -0.007068
C88   C     C_R   0.194428 0.722390 0.444168 0.024293
C89   C     C_R   0.140630 0.750451 0.501300 0.913790
C90   C     C_R   0.859922 0.250365 0.499837 0.849623
C91   C     C_R   0.859142 0.750988 0.498972 0.847175
C92   C     C_R   0.139652 0.250330 0.499148 0.835000
C93   C     C_R   0.640776 0.250596 0.501579 0.910549
C94   C     C_R   0.359979 0.750440 0.499959 0.849464
C95   C     C_R   0.359160 0.250969 0.498999 0.846427
C96   C     C_R   0.639652 0.750324 0.499157 0.835442
C97   C     C_R   0.749174 0.720407 0.446747 -0.013587
C98   C     C_R   0.233177 0.296083 0.521157 -0.003328
C99   C     C_R   0.253059 0.776083 0.560149 -0.011389
C100  C     C_R   0.747782 0.224337 0.441436 -0.010578
C101  C     C_R   0.249056 0.220605 0.446483 -0.013491
C102  C     C_R   0.732916 0.796209 0.520708 -0.003611
C103  C     C_R   0.753739 0.275054 0.561140 -0.010844
C104  C     C_R   0.248027 0.724069 0.441791 -0.009824
C105  C     C_R   0.693938 0.751777 0.495850 -0.145571
C106  C     C_R   0.301168 0.253790 0.495748 -0.153786
C107  C     C_R   0.303413 0.751824 0.498844 -0.109161
C108  C     C_R   0.697354 0.249204 0.502513 -0.120012
C109  C     C_R   0.193946 0.251781 0.495845 -0.146150
C110  C     C_R   0.801124 0.753828 0.495680 -0.153552
C111  C     C_R   0.803361 0.251769 0.498723 -0.109838
C112  C     C_R   0.197196 0.749334 0.502244 -0.118821
C113  C     C_R   0.113733 0.946063 0.552010 -0.172791
C114  C     C_R   0.886722 0.053643 0.453245 -0.184950
C115  C     C_R   0.886861 0.946771 0.454344 -0.221182
C116  C     C_R   0.115117 0.052832 0.558992 -0.179861
C117  C     C_R   0.613769 0.446118 0.552308 -0.233510
C118  C     C_R   0.386770 0.553596 0.453743 -0.186282
C119  C     C_R   0.386923 0.446725 0.454664 -0.217597
C120  C     C_R   0.615068 0.552914 0.559178 -0.204879
C121  C     C_R   0.170363 0.972325 0.580389 0.101158
C122  C     C_R   0.831876 0.027414 0.432694 0.141236
C123  C     C_R   0.831741 0.973547 0.433452 0.115316
C124  C     C_R   0.171305 0.026216 0.584965 0.121615
C125  C     C_R   0.670470 0.472630 0.580939 0.097504
C126  C     C_R   0.332033 0.527339 0.433522 0.140762
C127  C     C_R   0.331899 0.473472 0.434161 0.116060
C128  C     C_R   0.671267 0.526274 0.585360 0.172964
C129  C     C_R   0.056857 0.026787 0.527473 0.027050
C130  C     C_R   0.943487 0.972944 0.477610 0.046328
C131  C     C_R   0.943446 0.027177 0.477160 0.028708
C132  C     C_R   0.056463 0.972583 0.525768 0.026488
C133  C     C_R   0.556791 0.526825 0.527494 0.028991
C134  C     C_R   0.443485 0.472922 0.477742 0.042457
C135  C     C_R   0.443427 0.527158 0.477331 0.027342
C136  C     C_R   0.556426 0.472604 0.525810 0.054545
C137  C     C_R   0.999806 0.053830 0.500445 -0.115082
C138  C     C_R   0.999682 0.945979 0.500443 -0.115213
C139  C     C_R   0.499726 0.553835 0.500424 -0.116727
C140  C     C_R   0.499656 0.445977 0.500442 -0.115690
C141  C     C_R   0.999677 0.889909 0.499938 0.783178
C142  C     C_R   0.999762 0.110023 0.499773 0.781405
C143  C     C_R   0.499681 0.389909 0.499943 0.788826
C144  C     C_R   0.499675 0.610025 0.499708 0.782174
C145  C     C_R   0.000058 0.609514 0.498957 0.814238
C146  C     C_R   0.000063 0.389948 0.500144 0.910638
C147  C     C_R   0.500056 0.109511 0.498924 0.810984
C148  C     C_R   0.500065 0.889946 0.500138 0.909467
C149  C     C_R   0.882422 0.543590 0.387073 0.563180
C150  C     C_R   0.089063 0.453066 0.635607 0.560994
C151  C     C_R   0.119732 0.544182 0.597496 0.576864
C152  C     C_R   0.918594 0.449582 0.360523 0.560731
C153  C     C_R   0.382445 0.043528 0.386762 0.563581
C154  C     C_R   0.589079 0.953084 0.635533 0.559652
C155  C     C_R   0.619755 0.044169 0.597355 0.576352
C156  C     C_R   0.418714 0.949477 0.360453 0.558371
C157  C     C_R   0.842606 0.519333 0.317579 -0.069737
C158  C     C_R   0.147648 0.476843 0.687135 -0.061003
C159  C     C_R   0.164543 0.520970 0.666183 -0.067957
C160  C     C_R   0.862541 0.473546 0.302930 -0.059920
C161  C     C_R   0.342641 0.019158 0.317338 -0.076557
C162  C     C_R   0.647696 0.976825 0.687016 -0.065445
C163  C     C_R   0.664591 0.020934 0.666024 -0.074183
C164  C     C_R   0.362635 0.973361 0.302792 -0.065148
C165  C     C_R   0.955200 0.472290 0.432697 -0.166507
C166  C     C_R   0.056157 0.524945 0.551976 -0.166257
C167  C     C_R   0.047666 0.473812 0.562824 -0.174689
C168  C     C_R   0.945420 0.524256 0.439732 -0.166868
C169  C     C_R   0.455263 0.972252 0.432587 -0.167152
C170  C     C_R   0.556165 0.024942 0.551866 -0.166778
C171  C     C_R   0.547673 0.973819 0.562745 -0.175265
C172  C     C_R   0.445450 0.024231 0.439534 -0.166108
C173  C     C_R   0.000606 0.445675 0.498900 -0.092433
C174  C     C_R   0.000266 0.552898 0.496708 -0.095729
C175  C     C_R   0.500625 0.945667 0.498839 -0.092219
C176  C     C_R   0.500266 0.052889 0.496587 -0.096683
C177  C     C_3   0.792467 0.212989 0.024477 0.023204
C178  C     C_3   0.278845 0.775511 0.975913 0.022879
C179  C     C_3   0.216964 0.207031 0.974540 0.022929
C180  C     C_3   0.725817 0.781636 0.024608 0.022630
C181  C     C_3   0.221683 0.725525 0.024191 0.022938
C182  C     C_3   0.708012 0.287803 0.975548 0.024855
C183  C     C_3   0.773639 0.718794 0.975381 0.023186
C184  C     C_3   0.282522 0.293336 0.025474 0.024921
H1    H     H_    0.115687 0.904579 0.551860 0.151874
H2    H     H_    0.884251 0.095075 0.450787 0.152529
H3    H     H_    0.884789 0.905293 0.452499 0.142706
H4    H     H_    0.118000 0.094146 0.565354 0.140035
H5    H     H_    0.615854 0.404621 0.552459 0.143594
H6    H     H_    0.384301 0.595026 0.451394 0.152527
H7    H     H_    0.384843 0.405247 0.452731 0.142769
H8    H     H_    0.617964 0.594220 0.565621 0.139440
H9    H     H_    0.147601 0.792360 0.955159 0.165259
H10   H     H_    0.804490 0.334732 0.045483 0.168615
H11   H     H_    0.858374 0.777886 0.045994 0.166677
H12   H     H_    0.176841 0.325072 0.955717 0.166546
H13   H     H_    0.696005 0.166058 0.954592 0.163811
H14   H     H_    0.352934 0.708681 0.044951 0.167009
H15   H     H_    0.322636 0.175293 0.044281 0.162093
H16   H     H_    0.641074 0.722549 0.953975 0.167425
H17   H     H_    0.862492 0.892736 0.658263 0.149844
H18   H     H_    0.153289 0.094191 0.376267 0.155434
H19   H     H_    0.095392 0.648310 0.288083 0.143787
H20   H     H_    0.904809 0.353090 0.712632 0.147546
H21   H     H_    0.363340 0.391815 0.659875 0.150572
H22   H     H_    0.654004 0.593676 0.377747 0.155471
H23   H     H_    0.594506 0.149635 0.286897 0.139515
H24   H     H_    0.403209 0.855387 0.710724 0.148628
O1    O     O_3   0.000000 0.750000 0.500000 -0.495729
O2    O     O_3   0.000000 0.250000 0.500000 -0.493418
O3    O     O_3   0.500000 0.250000 0.500000 -0.495152
O4    O     O_3   0.500000 0.750000 0.500000 -0.492939
O5    O     O_R   0.887450 0.719640 0.335600 -0.633324
O6    O     O_R   0.112550 0.280360 0.664400 -0.603482
O7    O     O_R   0.112550 0.719640 0.664400 -0.624109
O8    O     O_R   0.887450 0.280360 0.335600 -0.603128
O9    O     O_R   0.387450 0.219640 0.335600 -0.635666
O10   O     O_R   0.612550 0.780360 0.664400 -0.602577
O11   O     O_R   0.612550 0.219640 0.664400 -0.628105
O12   O     O_R   0.387450 0.780360 0.335600 -0.600825
O13   O     O_R   0.094250 0.780350 0.456890 -0.639052
O14   O     O_R   0.905750 0.219650 0.543110 -0.638581
O15   O     O_R   0.905750 0.780350 0.543110 -0.638849
O16   O     O_R   0.094250 0.219650 0.456890 -0.660915
O17   O     O_R   0.594250 0.280350 0.456890 -0.642965
O18   O     O_R   0.405750 0.719650 0.543110 -0.638480
O19   O     O_R   0.405750 0.280350 0.543110 -0.639672
O20   O     O_R   0.594250 0.719650 0.456890 -0.659494
O21   O     O_R   0.008810 0.865800 0.456890 -0.638233
O22   O     O_R   0.991190 0.134200 0.543110 -0.634416
O23   O     O_R   0.991190 0.865800 0.543110 -0.649101
O24   O     O_R   0.008810 0.134200 0.456890 -0.655850
O25   O     O_R   0.508810 0.365800 0.456890 -0.637645
O26   O     O_R   0.491190 0.634200 0.543110 -0.635366
O27   O     O_R   0.491190 0.365800 0.543110 -0.648009
O28   O     O_R   0.508810 0.634200 0.456890 -0.656988
O29   O     O_R   0.948090 0.634190 0.456900 -0.591435
O30   O     O_R   0.051910 0.365810 0.543100 -0.621132
O31   O     O_R   0.051910 0.634190 0.543100 -0.590431
O32   O     O_R   0.948090 0.365810 0.456900 -0.616435
O33   O     O_R   0.448090 0.134190 0.456900 -0.592113
O34   O     O_R   0.551910 0.865810 0.543100 -0.620609
O35   O     O_R   0.551910 0.134190 0.543100 -0.591820
O36   O     O_R   0.448090 0.865810 0.456900 -0.616379
O37   O     O_R   0.137350 0.719630 0.543100 -0.600836
O38   O     O_R   0.862650 0.280370 0.456900 -0.646046
O39   O     O_R   0.862650 0.719630 0.456900 -0.627629
O40   O     O_R   0.137350 0.280370 0.543100 -0.634108
O41   O     O_R   0.637350 0.219630 0.543100 -0.597320
O42   O     O_R   0.362650 0.780370 0.456900 -0.646101
O43   O     O_R   0.362650 0.219630 0.456900 -0.627337
O44   O     O_R   0.637350 0.780370 0.543100 -0.635549
O45   O     O_R   0.948170 0.780360 0.335600 -0.638991
O46   O     O_R   0.051830 0.219640 0.664400 -0.647092
O47   O     O_R   0.051830 0.780360 0.664400 -0.646817
O48   O     O_R   0.948170 0.219640 0.335600 -0.641910
O49   O     O_R   0.448170 0.280360 0.335600 -0.636258
O50   O     O_R   0.551830 0.719640 0.664400 -0.649126
O51   O     O_R   0.551830 0.280360 0.664400 -0.643587
O52   O     O_R   0.448170 0.719640 0.335600 -0.644720
Zn1   Zn    Zn3+2 0.074160 0.706620 0.561580 1.021739
Zn2   Zn    Zn3+2 0.925840 0.293380 0.438420 1.004147
Zn3   Zn    Zn3+2 0.925840 0.706620 0.438420 0.996834
Zn4   Zn    Zn3+2 0.074160 0.293380 0.561580 1.005502
Zn5   Zn    Zn3+2 0.574160 0.206620 0.561580 1.017735
Zn6   Zn    Zn3+2 0.425840 0.793380 0.438420 1.005318
Zn7   Zn    Zn3+2 0.425840 0.206620 0.438420 0.994062
Zn8   Zn    Zn3+2 0.574160 0.793380 0.561580 1.005479
Zn9   Zn    Zn3+2 0.012590 0.793370 0.438410 0.969603
Zn10  Zn    Zn3+2 0.987410 0.206630 0.561590 0.966000
Zn11  Zn    Zn3+2 0.987410 0.793370 0.561590 0.948440
Zn12  Zn    Zn3+2 0.012590 0.206630 0.438410 0.954445
Zn13  Zn    Zn3+2 0.512590 0.293370 0.438410 0.968812
Zn14  Zn    Zn3+2 0.487410 0.706630 0.561590 0.963515
Zn15  Zn    Zn3+2 0.487410 0.293370 0.561590 0.950200
Zn16  Zn    Zn3+2 0.512590 0.706630 0.438410 0.952210
N1    N     N_3   0.227108 0.542497 0.713352 -0.392699
H25   H     H_    0.236026 0.552368 0.764324 0.191489
H26   H     H_    0.260034 0.514574 0.722559 0.174976
N2    N     N_3   0.825335 0.449672 0.230963 -0.401024
H27   H     H_    0.780309 0.441324 0.217237 0.189058
H28   H     H_    0.820162 0.475646 0.192134 0.177595
N3    N     N_3   0.781642 0.541497 0.263067 -0.405221
H29   H     H_    0.779077 0.549525 0.215398 0.196366
H30   H     H_    0.746471 0.514682 0.249352 0.174533
N4    N     N_3   0.190226 0.454395 0.759161 -0.395147
H31   H     H_    0.232475 0.444459 0.766235 0.186544
H32   H     H_    0.200470 0.481835 0.799333 0.179893
N5    N     N_3   0.727183 0.042418 0.713133 -0.393378
H33   H     H_    0.736172 0.052284 0.764141 0.184282
H34   H     H_    0.760061 0.014468 0.722274 0.175895
N6    N     N_3   0.325468 0.949386 0.230881 -0.376673
H35   H     H_    0.280440 0.941024 0.217137 0.191856
H36   H     H_    0.320283 0.975281 0.191966 0.176456
N7    N     N_3   0.281607 0.041206 0.262812 -0.406945
H37   H     H_    0.278950 0.049132 0.215061 0.185372
H38   H     H_    0.246521 0.014355 0.249278 0.176277
N8    N     N_3   0.690300 0.954354 0.759028 -0.379192
H39   H     H_    0.732523 0.944390 0.766058 0.186552
H40   H     H_    0.700597 0.981776 0.799240 0.177928
N9    N     N_3   0.775252 0.946424 0.412102 -0.474371
H41   H     H_    0.781430 0.906814 0.410755 0.183894
H42   H     H_    0.768627 0.952744 0.453599 0.177700
N10   N     N_3   0.228919 0.054686 0.616701 -0.468420
H43   H     H_    0.247324 0.046305 0.586732 0.187852
H44   H     H_    0.261783 0.042803 0.671593 0.175190
N11   N     N_3   0.226549 0.943364 0.605335 -0.469530
H45   H     H_    0.243250 0.954572 0.574649 0.183396
H46   H     H_    0.261192 0.952286 0.661197 0.172621
N12   N     N_3   0.776405 0.056354 0.410756 -0.466182
H47   H     H_    0.764682 0.047845 0.447200 0.182794
H48   H     H_    0.738869 0.044320 0.357479 0.194260
N13   N     N_3   0.275513 0.446321 0.413120 -0.474468
H49   H     H_    0.281659 0.406719 0.411638 0.184319
H50   H     H_    0.269153 0.452573 0.454845 0.177421
N14   N     N_3   0.729151 0.554389 0.617536 -0.463625
H51   H     H_    0.747428 0.545734 0.587479 0.205521
H52   H     H_    0.761826 0.541659 0.672054 0.191857
N15   N     N_3   0.727829 0.445008 0.607530 -0.484520
H53   H     H_    0.736746 0.420790 0.649907 0.188026
H54   H     H_    0.719976 0.421955 0.564157 0.195233
N16   N     N_3   0.276679 0.556248 0.412088 -0.466039
H55   H     H_    0.265350 0.547722 0.448889 0.182950
H56   H     H_    0.238922 0.544171 0.358962 0.193830
O53   O     O_3   0.855031 0.581488 0.403880 -0.546249
C185  C     C_3   0.851006 0.564144 0.460945 -0.285491
H57   H     H_    0.898920 0.560451 0.514555 0.149065
H58   H     H_    0.824761 0.527106 0.445655 0.141660
H59   H     H_    0.824156 0.593005 0.469288 0.192363
O54   O     O_3   0.073210 0.410297 0.658127 -0.563084
C186  C     C_3   0.025531 0.424139 0.667040 -0.334561
H60   H     H_    0.979787 0.432642 0.612595 0.150957
H61   H     H_    0.040372 0.457399 0.705727 0.161160
H62   H     H_    0.017371 0.391220 0.691817 0.197879
O55   O     O_3   0.141807 0.581169 0.573344 -0.536755
C187  C     C_3   0.139341 0.561693 0.512309 -0.299636
H63   H     H_    0.089443 0.558744 0.461857 0.140294
H64   H     H_    0.163687 0.523794 0.525004 0.153351
H65   H     H_    0.164617 0.588791 0.499775 0.193014
O56   O     O_3   0.937474 0.404859 0.344493 -0.564103
C188  C     C_3   0.988313 0.416376 0.340453 -0.349232
H66   H     H_    0.002342 0.380701 0.325920 0.190137
H67   H     H_    0.030729 0.430260 0.394791 0.144164
H68   H     H_    0.973842 0.445064 0.296220 0.165218
O57   O     O_3   0.355011 0.081481 0.403420 -0.545043
C189  C     C_3   0.350658 0.064137 0.460238 -0.289059
H69   H     H_    0.398471 0.060306 0.513954 0.147074
H70   H     H_    0.324246 0.027170 0.444722 0.140875
H71   H     H_    0.323812 0.093065 0.468489 0.191804
O58   O     O_3   0.573213 0.910346 0.658091 -0.558339
C190  C     C_3   0.525595 0.924247 0.667082 -0.321966
H72   H     H_    0.479838 0.932771 0.612662 0.144619
H73   H     H_    0.540506 0.957512 0.705776 0.157369
H74   H     H_    0.517432 0.891354 0.691891 0.202019
O59   O     O_3   0.641814 0.081211 0.573246 -0.536497
C191  C     C_3   0.638932 0.061970 0.511838 -0.296850
H75   H     H_    0.588944 0.059329 0.461509 0.139106
H76   H     H_    0.662973 0.023968 0.524027 0.153149
H77   H     H_    0.664265 0.089063 0.499378 0.192647
O60   O     O_3   0.437673 0.904743 0.344550 -0.560141
C192  C     C_3   0.488397 0.916305 0.340322 -0.328645
H78   H     H_    0.502592 0.880599 0.326057 0.193474
H79   H     H_    0.530766 0.930434 0.394517 0.137403
H80   H     H_    0.473718 0.944820 0.295828 0.165222
N17   N     N_3   0.839540 0.172035 0.052587 -0.437825
H81   H     H_    0.836085 0.156053 0.007101 0.206031
H82   H     H_    0.884520 0.188779 0.086872 0.182240
N18   N     N_3   0.309444 0.803056 0.948103 -0.437457
H83   H     H_    0.350437 0.820177 0.993792 0.206941
H84   H     H_    0.279051 0.832747 0.914261 0.180311
N19   N     N_3   0.180291 0.159715 0.945371 -0.438775
H85   H     H_    0.187628 0.139665 0.990349 0.204673
H86   H     H_    0.132182 0.169678 0.910946 0.184491
N20   N     N_3   0.700304 0.816205 0.052884 -0.439002
H87   H     H_    0.662538 0.836266 0.007518 0.206408
H88   H     H_    0.735454 0.843148 0.087438 0.181024
N21   N     N_3   0.191048 0.698012 0.051984 -0.439212
H89   H     H_    0.150161 0.680759 0.006323 0.206927
H90   H     H_    0.221503 0.668424 0.086054 0.180264
N22   N     N_3   0.660947 0.328765 0.947431 -0.438724
H91   H     H_    0.664351 0.344715 0.992902 0.206873
H92   H     H_    0.615962 0.312039 0.913063 0.179226
N23   N     N_3   0.799157 0.684217 0.947118 -0.438789
H93   H     H_    0.836955 0.664191 0.992499 0.205163
H94   H     H_    0.764028 0.657244 0.912621 0.180107
N24   N     N_3   0.319189 0.340655 0.054642 -0.436209
H95   H     H_    0.311854 0.360704 0.009664 0.208044
H96   H     H_    0.367299 0.330699 0.089077 0.183389
O61   O     O_3   0.680745 0.239218 0.055457 -0.598071
C193  C     C_3   0.622477 0.214188 0.004764 -0.333642
H97   H     H_    0.630361 0.172650 0.000979 0.169329
H98   H     H_    0.595355 0.232036 0.948727 0.148487
H99   H     H_    0.592897 0.217362 0.025594 0.191302
O62   O     O_3   0.221869 0.652686 0.943385 -0.600521
C194  C     C_3   0.268107 0.616972 0.993633 -0.326101
H100  H     H_    0.278509 0.620177 0.049716 0.150905
H101  H     H_    0.312442 0.621443 0.997453 0.170037
H102  H     H_    0.249707 0.577702 0.972326 0.193935
O63   O     O_3   0.320002 0.261775 0.945608 -0.595907
C195  C     C_3   0.383149 0.244911 0.996408 -0.330563
H103  H     H_    0.385179 0.202285 0.999364 0.166210
H104  H     H_    0.405770 0.261866 0.052725 0.149372
H105  H     H_    0.411300 0.257298 0.976271 0.194579
O64   O     O_3   0.761547 0.653540 0.054541 -0.602557
C196  C     C_3   0.709570 0.621996 0.003627 -0.327885
H106  H     H_    0.699464 0.622273 0.947578 0.152218
H107  H     H_    0.666614 0.633615 0.999984 0.172337
H108  H     H_    0.721208 0.581907 0.024141 0.190996
O65   O     O_3   0.278840 0.848279 0.056981 -0.590953
C197  C     C_3   0.232531 0.884081 0.007109 -0.321709
H109  H     H_    0.188282 0.879448 0.003435 0.167413
H110  H     H_    0.222005 0.881141 0.950942 0.147946
H111  H     H_    0.250947 0.923306 0.028708 0.192020
O66   O     O_3   0.819718 0.261567 0.944544 -0.597520
C198  C     C_3   0.877937 0.286683 0.995162 -0.329128
H112  H     H_    0.905113 0.268883 0.051234 0.149463
H113  H     H_    0.869972 0.328214 0.998872 0.169458
H114  H     H_    0.907500 0.283534 0.974305 0.191259
O67   O     O_3   0.737869 0.846877 0.945385 -0.592085
C199  C     C_3   0.789797 0.878461 0.996292 -0.313603
H115  H     H_    0.832803 0.866840 0.000045 0.168209
H116  H     H_    0.799826 0.878237 0.052302 0.148004
H117  H     H_    0.778144 0.918531 0.975693 0.193680
O68   O     O_3   0.179531 0.238583 0.054468 -0.598591
C200  C     C_3   0.116385 0.255461 0.003725 -0.330309
H118  H     H_    0.093715 0.238493 0.947406 0.151137
H119  H     H_    0.114370 0.298088 0.000756 0.167591
H120  H     H_    0.088278 0.243098 0.023930 0.194370
N25   N     N_3   0.750978 0.721577 0.336302 -0.430448
H121  H     H_    0.708049 0.731454 0.286132 0.176212
H122  H     H_    0.774303 0.695531 0.323853 0.258226
N26   N     N_3   0.149939 0.361835 0.483698 -0.456113
H123  H     H_    0.145394 0.391042 0.448844 0.161573
H124  H     H_    0.138645 0.377658 0.517929 0.229397
N27   N     N_3   0.208119 0.797753 0.631690 -0.454760
H125  H     H_    0.194927 0.835239 0.634384 0.181517
H126  H     H_    0.225012 0.779269 0.681733 0.212102
N28   N     N_3   0.795191 0.197576 0.374260 -0.446148
H127  H     H_    0.780313 0.215124 0.324277 0.209505
H128  H     H_    0.806975 0.159401 0.372659 0.185149
N29   N     N_3   0.251006 0.222240 0.336153 -0.427479
H129  H     H_    0.208165 0.232352 0.286035 0.180601
H130  H     H_    0.274234 0.196224 0.323529 0.259465
N30   N     N_3   0.649267 0.861669 0.482722 -0.455417
H131  H     H_    0.644451 0.890722 0.447525 0.162015
H132  H     H_    0.637954 0.877609 0.516875 0.229019
N31   N     N_3   0.710484 0.294286 0.635081 -0.449251
H133  H     H_    0.697176 0.331437 0.638959 0.161558
H134  H     H_    0.728047 0.275027 0.684783 0.225989
N32   N     N_3   0.295539 0.697363 0.374691 -0.446734
H135  H     H_    0.280390 0.714767 0.324526 0.202817
H136  H     H_    0.307674 0.659256 0.373360 0.183421
N33   N     N_3   0.689066 0.624297 0.292185 -0.448034
H137  H     H_    0.707364 0.587123 0.308798 0.215972
H138  H     H_    0.639923 0.621269 0.252202 0.180119
N34   N     N_3   0.246199 0.431532 0.588110 -0.488266
H139  H     H_    0.265541 0.435617 0.644483 0.190677
H140  H     H_    0.267489 0.458905 0.575122 0.178560
N35   N     N_3   0.320326 0.846246 0.741779 -0.474663
H141  H     H_    0.359957 0.829003 0.788899 0.190337
H142  H     H_    0.329581 0.885564 0.745070 0.176937
N36   N     N_3   0.682946 0.149327 0.263894 -0.467498
H143  H     H_    0.672193 0.110497 0.262342 0.180038
H144  H     H_    0.644908 0.166218 0.214908 0.189755
N37   N     N_3   0.188527 0.125202 0.291024 -0.446360
H145  H     H_    0.206675 0.087960 0.307298 0.215685
H146  H     H_    0.139373 0.122338 0.251003 0.181077
N38   N     N_3   0.745110 0.931971 0.586229 -0.488214
H147  H     H_    0.764469 0.936325 0.642572 0.190276
H148  H     H_    0.766194 0.959314 0.572918 0.178543
N39   N     N_3   0.823536 0.341755 0.745777 -0.472418
H149  H     H_    0.863241 0.323697 0.791800 0.193902
H150  H     H_    0.833294 0.381074 0.750622 0.178583
N40   N     N_3   0.183772 0.648271 0.264988 -0.475785
H151  H     H_    0.173204 0.609423 0.263673 0.181253
H152  H     H_    0.145649 0.664975 0.215886 0.189772
N41   N     N_3   0.665331 0.634433 0.493336 -0.452137
H153  H     H_    0.616299 0.628265 0.461571 0.232419
H154  H     H_    0.680432 0.655598 0.541141 0.179208
N42   N     N_3   0.406181 0.300691 0.653013 -0.416056
H155  H     H_    0.438851 0.328565 0.661848 0.214310
H156  H     H_    0.412351 0.295620 0.703485 0.166576
N43   N     N_3   0.407419 0.829392 0.603311 -0.495787
H157  H     H_    0.387635 0.845971 0.551404 0.195963
H158  H     H_    0.440125 0.800251 0.616456 0.193664
N44   N     N_3   0.585344 0.185510 0.389044 -0.451952
H159  H     H_    0.544841 0.200003 0.339884 0.178764
H160  H     H_    0.579105 0.146005 0.390408 0.160538
N45   N     N_3   0.164932 0.134381 0.492341 -0.450527
H161  H     H_    0.115892 0.128255 0.460602 0.232507
H162  H     H_    0.180127 0.155352 0.540326 0.181031
N46   N     N_3   0.905865 0.801591 0.652493 -0.412544
H163  H     H_    0.938385 0.829508 0.661030 0.212681
H164  H     H_    0.912020 0.796804 0.703001 0.169106
N47   N     N_3   0.906847 0.329711 0.602760 -0.495648
H165  H     H_    0.886051 0.346384 0.550689 0.196992
H166  H     H_    0.939965 0.301110 0.615213 0.190966
N48   N     N_3   0.085709 0.684883 0.389501 -0.452769
H167  H     H_    0.045228 0.699175 0.340133 0.182857
H168  H     H_    0.079571 0.645401 0.391217 0.162382

loop_
_geom_bond_atom_site_label_1
_geom_bond_atom_site_label_2
_ccdc_geom_bond_type
O2    Zn2   S    
N16   H56   S    
N35   H141  S    
C126  C127  A    
C74   N42   S    
C200  H118  S    
C7    O51   A    
N47   H165  S    
C34   C42   S    
C136  C140  A    
C155  O59   S    
N42   H155  S    
C79   C87   A    
C152  C165  A    
C152  O56   S    
C28   O63   S    
C61   N37   S    
N9    H41   S    
C135  C139  A    
C58   C66   A    
C38   C181  S    
C56   N32   S    
C50   N26   S    
C199  H115  S    
C123  N9    S    
C11   H11   S    
C197  H111  S    
C9    H9    S    
C92   C109  S    
C3    O7    A    
O27   Zn15  S    
C62   C70   A    
C120  C133  A    
O19   Zn15  S    
C151  O55   S    
O21   Zn9   S    
C5    O9    A    
C93   O41   A    
O10   Zn8   S    
C185  H57   S    
C116  C124  A    
C162  N8    S    
C157  N3    S    
C4    C18   S    
N25   H122  S    
O4    Zn6   S    
C98   C109  A    
C29   C177  S    
O2    Zn4   S    
C82   C98   A    
C149  C168  A    
C2    O46   A    
C73   C81   A    
N18   H83   S    
C192  H80   S    
N12   H48   S    
C166  C174  A    
C115  C123  A    
O54   C186  S    
C84   C100  A    
C59   N35   S    
C92   O16   A    
O56   C188  S    
O32   Zn2   S    
C147  C176  S    
C193  H98   S    
O22   Zn10  S    
C27   C35   S    
C191  H77   S    
C153  C161  A    
N14   H51   S    
O28   Zn16  S    
N24   H96   S    
N31   H134  S    
O15   Zn11  S    
C14   C38   S    
C142  O24   A    
O59   C191  S    
C147  O35   A    
C185  H59   S    
C120  C128  A    
N48   H167  S    
O64   C196  S    
C15   C39   S    
C16   C40   S    
C72   H19   S    
C87   C103  A    
C26   C182  S    
N26   H123  S    
C63   C71   A    
C133  C139  A    
C157  C160  A    
C158  C159  A    
C10   C182  S    
C200  H120  S    
C36   C44   S    
N8    H39   S    
C37   C45   S    
N23   H93   S    
C130  C138  A    
O43   Zn7   S    
C32   C40   S    
C39   C47   S    
C40   C48   S    
C53   N29   S    
C86   C110  A    
O17   Zn13  S    
C199  H117  S    
C184  N24   S    
O35   Zn5   S    
C149  O53   S    
C187  H63   S    
C138  C141  S    
C126  N16   S    
C63   N39   S    
C11   C35   S    
C130  C131  A    
N2    H27   S    
C80   C88   A    
C54   N30   S    
N17   H81   S    
N4    H32   S    
N40   H151  S    
O20   Zn16  S    
N6    H36   S    
C89   O37   A    
C3    C17   S    
N36   H144  S    
O58   C190  S    
C27   C183  S    
O62   C194  S    
C49   C97   A    
O55   C187  S    
C93   O17   A    
C129  C137  A    
O4    Zn8   S    
C100  C111  A    
O2    Zn12  S    
C32   C180  S    
C34   C177  S    
O65   C197  S    
C196  H106  S    
C132  C138  A    
C104  C107  A    
O39   Zn3   S    
N22   H91   S    
O40   Zn4   S    
N32   H136  S    
C137  C142  S    
N15   H54   S    
C4    O8    A    
C15   C179  S    
O50   Zn14  S    
C69   C77   A    
C190  H72   S    
C160  N2    S    
C140  C143  S    
O37   Zn1   S    
C71   C79   A    
C92   O40   A    
C190  H74   S    
N7    H38   S    
N25   H121  S    
C168  C174  A    
N35   H142  S    
C30   C38   S    
C13   H13   S    
C8    O12   A    
C96   O20   A    
N39   H150  S    
C89   O13   A    
C51   N27   S    
C142  O22   A    
C170  C171  A    
C147  O33   A    
O63   C195  S    
C66   C74   A    
C49   C57   A    
O41   Zn5   S    
N20   H87   S    
C52   C60   A    
C59   C67   A    
C53   C61   A    
C146  O30   A    
C183  N23   S    
N34   H139  S    
C55   C63   A    
C8    C22   S    
C198  H113  S    
O34   Zn8   S    
C35   C43   S    
N13   H49   S    
C39   C184  S    
C16   H16   S    
C64   N40   S    
C40   C183  S    
C16   C27   S    
N10   H44   S    
C25   O62   S    
C6    C24   S    
C69   H18   S    
C121  N11   S    
C26   O61   S    
N1    H25   S    
C148  O34   A    
N44   H159  S    
C90   C111  S    
C187  H65   S    
C94   O42   A    
O3    Zn7   S    
O60   C192  S    
C88   C104  A    
C80   N48   S    
C21   C45   T    
C188  H67   S    
C71   H20   S    
C81   C105  A    
C94   C107  S    
C50   C98   A    
C119  C134  A    
C23   C47   T    
C24   C48   T    
C31   O68   S    
N47   H166  S    
C196  H108  S    
O45   Zn9   S    
C164  N6    S    
C66   H21   S    
C155  C163  A    
C52   C100  A    
N30   H131  S    
C151  C159  A    
C8    O52   A    
C95   C106  S    
C115  H3    S    
C189  H70   S    
N43   H157  S    
C5    C23   S    
C79   N47   S    
O2    Zn10  S    
C113  H1    S    
C5    O49   A    
N5    H33   S    
C30   C178  S    
N45   H162  S    
C28   C36   S    
C197  H109  S    
C14   C178  S    
C117  H5    S    
C9    C30   S    
O68   C200  S    
C127  N13   S    
C52   N28   S    
C11   C32   S    
C20   C44   T    
C12   C31   S    
C159  N1    S    
C13   C26   S    
C67   C75   A    
C4    O48   A    
C116  H4    S    
C86   C102  A    
C189  H71   S    
C101  C106  A    
C154  C162  A    
C30   O65   S    
C195  H103  S    
N42   H156  S    
O1    Zn1   S    
C134  C135  A    
C68   C76   A    
C144  O26   A    
C199  H116  S    
C28   C184  S    
O8    Zn2   S    
C72   C80   A    
C153  C172  A    
N26   H124  S    
N37   H146  S    
C154  C171  A    
C82   C106  A    
C186  H62   S    
C38   C46   S    
C9    C181  S    
C150  O54   S    
O52   Zn16  S    
C113  C121  A    
C145  C174  S    
N3    H29   S    
C148  O36   A    
C182  N22   S    
O31   Zn1   S    
C185  H58   S    
N27   H126  S    
C117  C125  A    
C67   H24   S    
C16   C180  S    
C25   C33   S    
C115  C130  A    
C119  C127  A    
C96   C105  S    
C113  C132  A    
O29   Zn3   S    
C12   H12   S    
C114  C131  A    
O30   Zn4   S    
C119  H7    S    
C76   C84   A    
N18   H84   S    
O13   Zn9   S    
C181  N21   S    
C192  H79   S    
C89   C112  S    
O5    Zn3   S    
C91   C110  S    
O6    Zn4   S    
C85   C109  A    
C10   H10   S    
C93   C108  S    
C76   N44   S    
C194  H102  S    
N29   H130  S    
C87   C111  A    
C141  O21   A    
N19   H85   S    
O3    Zn5   S    
N46   H163  S    
C102  C105  A    
N14   H52   S    
N33   H138  S    
N28   H127  S    
C6    O10   A    
O44   Zn8   S    
O67   C199  S    
C53   C101  A    
C180  N20   S    
C154  O58   S    
N48   H168  S    
O51   Zn15  S    
O38   Zn2   S    
C167  C173  A    
C129  C132  A    
C75   N43   S    
N16   H55   S    
C36   C179  S    
C9    C33   S    
C200  H119  S    
N8    H40   S    
C74   C82   A    
C195  H105  S    
C77   N45   S    
C19   C43   T    
O1    Zn3   S    
N9    H42   S    
C91   O39   A    
C1    C19   S    
C144  O28   A    
C2    C20   S    
N11   H45   S    
C50   C58   A    
C56   C104  A    
C78   N46   S    
C95   O43   A    
N7    H37   S    
N36   H143  S    
C54   C62   A    
C7    C21   S    
N31   H133  S    
C31   C179  S    
C83   C99   A    
C37   C182  S    
N39   H149  S    
N41   H153  S    
C131  C137  A    
N28   H128  S    
C14   H14   S    
N40   H152  S    
O25   Zn13  S    
C49   N25   S    
C169  C175  A    
N44   H160  S    
O42   Zn6   S    
C187  H64   S    
N43   H158  S    
C1    O5    A    
O66   C198  S    
C96   O44   A    
C91   O15   A    
C32   O67   S    
C161  C164  A    
N22   H92   S    
C162  C163  A    
N12   H47   S    
N41   H154  S    
C150  C158  A    
O11   Zn5   S    
C54   C102  A    
C179  N19   S    
C57   C65   A    
C194  H100  S    
C190  H73   S    
C193  H97   S    
O4    Zn14  S    
C141  O23   A    
C114  H2    S    
C6    O50   A    
C33   C41   S    
C120  H8    S    
N24   H95   S    
C125  N15   S    
C118  H6    S    
C155  C170  A    
C75   C83   A    
C15   C28   S    
C12   C184  S    
C125  C128  A    
C13   C177  S    
C150  C167  A    
C90   O38   A    
C84   C108  A    
O36   Zn6   S    
C14   C25   S    
O53   C185  S    
N20   H88   S    
N13   H50   S    
C94   O18   A    
N15   H53   S    
C88   C112  A    
C60   C68   A    
N34   H140  S    
C29   C37   S    
O18   Zn14  S    
C117  C136  A    
C149  C157  A    
C118  C135  A    
C55   N31   S    
C152  C160  A    
C70   C78   A    
O7    Zn1   S    
C153  O57   S    
C186  H60   S    
O12   Zn6   S    
C193  H99   S    
C189  H69   S    
N46   H164  S    
O47   Zn11  S    
C188  H66   S    
O48   Zn12  S    
O3    Zn15  S    
N6    H35   S    
N2    H28   S    
C90   O14   A    
N17   H82   S    
C134  C140  A    
N4    H31   S    
C196  H107  S    
O16   Zn12  S    
C165  C173  A    
C146  C173  S    
C55   C103  A    
C156  C169  A    
C122  N12   S    
C65   C73   A    
N30   H132  S    
C143  O27   A    
C121  C124  A    
C18   C42   T    
C57   N33   S    
C26   C34   S    
C116  C129  A    
C31   C39   S    
O9    Zn7   S    
C145  O29   A    
C133  C136  A    
O24   Zn12  S    
C29   O66   S    
C12   C36   S    
N45   H161  S    
O33   Zn7   S    
C197  H110  S    
C73   N41   S    
C7    O11   A    
C78   C86   A    
C70   H17   S    
O1    Zn9   S    
N32   H135  S    
C60   N36   S    
C161  N7    S    
C68   H23   S    
C25   C181  S    
C3    O47   A    
O4    Zn16  S    
C51   C99   A    
C148  C175  S    
N21   H90   S    
C11   C183  S    
C95   O19   A    
C195  H104  S    
C62   N38   S    
C65   H22   S    
N19   H86   S    
C128  N14   S    
C171  C175  A    
O46   Zn10  S    
O23   Zn11  S    
N11   H46   S    
O14   Zn10  S    
C191  H76   S    
N23   H94   S    
C124  N10   S    
C1    O45   A    
C15   H15   S    
C139  C144  S    
C198  H112  S    
C58   N34   S    
C56   C64   A    
N37   H145  S    
C198  H114  S    
C10   C34   S    
N38   H147  S    
C186  H61   S    
N21   H89   S    
C163  N5    S    
C10   C29   S    
N10   H43   S    
N38   H148  S    
C165  C168  A    
N1    H26   S    
C166  C167  A    
C169  C172  A    
C51   C59   A    
C85   C101  A    
C188  H68   S    
C61   C69   A    
C35   C180  S    
C158  N4    S    
C22   C46   T    
C33   C178  S    
O3    Zn13  S    
C13   C37   S    
C146  O32   A    
C27   O64   S    
C2    O6    A    
C151  C166  A    
C192  H78   S    
C156  O60   S    
O49   Zn13  S    
O26   Zn14  S    
C143  O25   A    
C178  N18   S    
O57   C189  S    
C97   C110  A    
C194  H101  S    
N29   H129  S    
O61   C193  S    
C81   C97   A    
C99   C112  A    
C145  O31   A    
C191  H75   S    
N5    H34   S    
C83   C107  A    
C64   C72   A    
N33   H137  S    
C17   C41   T    
C77   C85   A    
N27   H125  S    
C114  C122  A    
C172  C176  A    
O1    Zn11  S    
C170  C176  A    
C156  C164  A    
C177  N17   S    
C103  C108  A    
C118  C126  A    
C122  C123  A    
N3    H30   S    
