data_mof_unit_20265.cif
_audit_creation_date              2012-12-10T18:09:53-0500
_audit_creation_method            fapswitch 2.2
_symmetry_space_group_name_H-M    P1
_symmetry_Int_Tables_number       1
_space_group_crystal_system       triclinic
_cell_length_a                    10.796438
_cell_length_b                    12.583975
_cell_length_c                    13.227542
_cell_angle_alpha                 83.710745
_cell_angle_beta                  87.769273
_cell_angle_gamma                 100.780291
_cell_volume                      1751.52893543

loop_
_atom_site_label
_atom_site_type_symbol
_atom_type_description
_atom_site_fract_x
_atom_site_fract_y
_atom_site_fract_z
_atom_type_partial_charge
C1    C     C_R   0.484145 0.439598 0.691296 0.940958
C2    C     C_R   0.457318 0.445576 0.974614 0.061876
C3    C     C_R   0.440275 0.473300 0.871333 0.026222
C4    C     C_R   0.741482 0.500171 0.498853 0.907454
C5    C     C_R   0.470405 0.528757 0.039411 -0.025285
C6    C     C_R   0.427955 0.626876 0.007752 0.086901
C7    C     C_R   0.385586 0.643937 0.910625 -0.164858
C8    C     C_R   0.395091 0.569294 0.842762 -0.103617
C9    C     C_R   0.530760 0.521076 0.131481 0.331196
C10   C     C_R   0.469110 0.689443 0.170727 -0.147868
C11   C     C_R   0.464075 0.401877 0.800792 -0.087888
C12   C     C_3   0.120338 0.504752 0.505289 -0.322876
C13   C     C_R   0.348090 0.094242 0.333892 0.382291
C14   C     C_R   0.644287 0.798347 0.630399 -0.028567
C15   C     C_R   0.685341 0.904544 0.649260 -0.262134
C16   C     C_R   0.519052 0.560086 0.309106 0.934229
C17   C     C_R   0.645582 0.989310 0.589985 0.436090
C18   C     C_R   0.546071 0.965332 0.522832 -0.099164
C19   C     C_R   0.513289 0.855633 0.502939 0.216090
C20   C     C_R   0.481020 0.043352 0.471770 -0.024804
C21   C     C_R   0.402825 0.014512 0.390676 0.020462
C22   C     C_R   0.378411 0.906319 0.370528 -0.172717
C23   C     C_3   0.092812 0.585112 0.412238 0.173675
C24   C     C_R   0.428869 0.828470 0.428129 -0.161611
C25   C     C_R   0.484308 0.147353 0.501600 0.032353
C26   C     C_R   0.367680 0.199022 0.362335 -0.034104
C27   C     C_R   0.257678 0.501088 0.502511 1.046979
C28   C     C_3   0.906286 0.390226 0.487123 -0.359332
C29   C     C_3   0.046306 0.389657 0.489942 -0.374227
C30   C     C_3   0.950166 0.590082 0.416320 0.204761
C31   C     C_3   0.921452 0.533715 0.607643 0.267717
C32   C     C_3   0.878118 0.503125 0.502124 -0.205414
C33   C     C_3   0.905520 0.755375 0.342801 -0.097456
C34   C     C_3   0.068308 0.537072 0.612580 0.577678
C35   C     C_3   0.800851 0.510759 0.763383 -0.105638
C36   C     C_R   0.429614 0.707131 0.073004 -0.098358
C37   C     C_R   0.515402 0.594895 0.201145 -0.123413
C38   C     C_R   0.473704 0.294585 0.836542 -0.161461
C39   C     C_R   0.461838 0.260071 0.940664 -0.068399
C40   C     C_R   0.453436 0.335016 0.009500 -0.006374
H1    H     H_    0.872084 0.365166 0.413429 0.256903
H2    H     H_    0.360063 0.584260 0.769564 0.263475
H3    H     H_    0.330596 0.263065 0.319479 0.199603
H4    H     H_    0.316460 0.879100 0.312423 0.232481
H5    H     H_    0.526560 0.170618 0.569888 0.191897
H6    H     H_    0.681098 0.733277 0.671590 0.155734
H7    H     H_    0.757562 0.921091 0.703090 0.213269
H8    H     H_    0.400416 0.747188 0.411272 0.211858
H9    H     H_    0.063182 0.326796 0.550581 0.243589
H10   H     H_    0.078528 0.362287 0.418044 0.275972
H11   H     H_    0.909901 0.567204 0.344671 0.176545
H12   H     H_    0.149865 0.666970 0.417138 0.189974
H13   H     H_    0.902286 0.617337 0.612062 0.176392
H14   H     H_    0.157112 0.842624 0.569290 0.396549
H15   H     H_    0.812090 0.718065 0.317152 0.147098
H16   H     H_    0.980731 0.760826 0.281586 0.198006
H17   H     H_    0.900550 0.839318 0.358466 0.217526
H18   H     H_    0.752603 0.463599 0.284259 0.362335
H19   H     H_    0.085301 0.959467 0.201120 0.388496
H20   H     H_    0.941343 0.150312 0.632899 0.397988
H21   H     H_    0.049811 0.458846 0.171915 0.421805
H22   H     H_    0.736261 0.564049 0.733798 0.107837
H23   H     H_    0.458330 0.747314 0.223645 0.172715
H24   H     H_    0.878739 0.558424 0.801160 0.235494
H25   H     H_    0.746365 0.447819 0.821960 0.210644
H26   H     H_    0.117500 0.442407 0.882363 0.391151
H27   H     H_    0.349407 0.716651 0.885810 0.194035
H28   H     H_    0.395135 0.781155 0.050038 0.177867
H29   H     H_    0.488631 0.237153 0.784147 0.187225
H30   H     H_    0.440377 0.305762 0.089508 0.207916
H31   H     H_    0.462479 0.175948 0.968158 0.195314
H32   H     H_    0.857012 0.331327 0.550153 0.318138
N1    N     N_R   0.433240 0.222190 0.444680 -0.149951
N2    N     N_R   0.566070 0.776970 0.554790 -0.121318
O1    O     O_R   0.468120 0.366740 0.627160 -0.596146
O2    O     O_2   0.276040 0.694453 0.653137 -0.322701
O3    O     O_3   0.111794 0.772895 0.549108 -0.546804
O4    O     O_3   0.932968 0.696185 0.433273 -0.576710
O5    O     O_2   0.601360 0.332497 0.205439 -0.314550
O6    O     O_2   0.714316 0.430831 0.048405 -0.260544
O7    O     O_3   0.762963 0.509121 0.217511 -0.552924
O8    O     O_2   0.220213 0.169594 0.178678 -0.293137
O9    O     O_2   0.336193 0.024603 0.149743 -0.324016
O10   O     O_3   0.127944 0.973791 0.264574 -0.555678
O11   O     O_2   0.750649 0.172437 0.473374 -0.306237
O12   O     O_R   0.510770 0.544830 0.662520 -0.649580
O13   O     O_2   0.717671 0.181262 0.658390 -0.344837
O14   O     O_3   0.899728 0.090845 0.595486 -0.524872
O15   O     O_2   0.162598 0.656037 0.214024 -0.312496
O16   O     O_2   0.253940 0.503998 0.287818 -0.344891
O17   O     O_3   0.021923 0.463069 0.243350 -0.525247
O18   O     O_3   0.847106 0.458193 0.685115 -0.569838
O19   O     O_2   0.003148 0.335959 0.730904 -0.245725
O20   O     O_2   0.225279 0.413354 0.705398 -0.389093
O21   O     O_3   0.092074 0.495866 0.830477 -0.493496
O22   O     O_R   0.663880 0.410950 0.482330 -0.596015
O23   O     O_R   0.706530 0.589040 0.517700 -0.604528
O24   O     O_R   0.489230 0.455170 0.337480 -0.568487
O25   O     O_R   0.531880 0.633260 0.372840 -0.671691
O26   O     O_R   0.293470 0.410960 0.482300 -0.590091
O27   O     O_R   0.336120 0.589050 0.517670 -0.602255
O28   O     O_2   0.074194 0.697170 0.737360 -0.280073
S1    S     S_3+6 0.136991 0.676487 0.639993 0.006998
S2    S     S_3+6 0.652715 0.443498 0.149122 0.031939
S3    S     S_3+6 0.258465 0.067649 0.226766 0.014165
S4    S     S_3+6 0.752885 0.114047 0.578404 -0.009603
S5    S     S_3+6 0.137814 0.552711 0.286511 -0.031869
S6    S     S_3+6 0.097970 0.441177 0.720340 0.053385
Zn1   Zn    Zn3+2 0.471520 0.381090 0.476390 1.054186
Zn2   Zn    Zn3+2 0.528480 0.618910 0.523610 0.987536

loop_
_geom_bond_atom_site_label_1
_geom_bond_atom_site_label_2
_ccdc_geom_bond_type
C33   H15   S    
C30   H11   S    
C12   C29   S    
C10   H23   S    
C1    C11   S    
C15   H7    S    
H20   O14   S    
C7    C8    A    
C14   H6    S    
C29   H9    S    
C12   C23   S    
O20   S6    D    
C40   H30   S    
O6    S2    D    
C10   C37   A    
C14   N2    A    
C28   C29   S    
O12   Zn2   S    
C8    H2    S    
O16   S5    D    
O19   S6    D    
C38   C39   A    
C33   O4    S    
C20   C25   A    
C35   H25   S    
C28   H1    S    
C26   N1    A    
C18   C19   A    
O8    S3    D    
C4    O22   A    
C22   H4    S    
C35   H24   S    
C18   C20   A    
C16   C37   S    
H14   O3    S    
C35   O18   S    
O2    S1    D    
C38   H29   S    
O26   Zn1   S    
O24   Zn1   S    
C4    O23   A    
C28   H32   S    
C26   H3    S    
O10   S3    S    
C29   H10   S    
C27   O26   A    
O1    Zn1   S    
C12   C27   S    
C1    O1    A    
C23   C30   S    
O17   S5    S    
C28   C32   S    
H19   O10   S    
C13   S3    S    
C3    C8    A    
H18   O7    S    
C39   C40   A    
O27   Zn2   S    
O25   Zn2   S    
C27   O27   A    
O9    S3    D    
C24   H8    S    
C11   C38   A    
C5    C9    A    
O14   S4    S    
C31   C32   S    
C23   S5    S    
O15   S5    D    
C9    C37   A    
C17   C18   A    
C31   C34   S    
C13   C21   A    
C31   H13   S    
C4    C32   S    
C22   C24   A    
C13   C26   A    
O3    S1    S    
C2    C5    A    
C12   C34   S    
O11   S4    D    
C25   H5    S    
C1    O12   A    
C15   C17   A    
C33   H17   S    
C19   N2    A    
N2    Zn2   S    
C36   H28   S    
C16   O25   A    
N1    Zn1   S    
C6    C7    A    
O22   Zn1   S    
C34   S1    S    
C34   S6    S    
C2    C3    A    
C17   S4    S    
C30   C32   S    
O23   Zn2   S    
C16   O24   A    
C23   H12   S    
C5    C6    A    
O13   S4    D    
C33   H16   S    
C9    S2    S    
C6    C36   A    
C19   C24   A    
C35   H22   S    
C25   N1    A    
O28   S1    D    
O5    S2    D    
C3    C11   A    
O21   S6    S    
C7    H27   S    
C30   O4    S    
C2    C40   A    
C20   C21   A    
C31   O18   S    
C39   H31   S    
C14   C15   A    
C10   C36   A    
C21   C22   A    
H21   O17   S    
H26   O21   S    
O7    S2    S    
