data_mof_unit_32340.cif
_audit_creation_date              2013-03-05T15:57:02-0500
_audit_creation_method            fapswitch 2.2
_symmetry_space_group_name_H-M    P1
_symmetry_Int_Tables_number       1
_space_group_crystal_system       triclinic
_cell_length_a                    14.65088
_cell_length_b                    7.169056
_cell_length_c                    13.592504
_cell_angle_alpha                 89.999989
_cell_angle_beta                  99.878471
_cell_angle_gamma                 90.0
_cell_volume                      1406.49448383

loop_
_atom_site_label
_atom_site_type_symbol
_atom_site_description
_atom_site_fract_x
_atom_site_fract_y
_atom_site_fract_z
_atom_type_partial_charge
O1    O     O_R   0.336930 0.638190 0.166330 -0.594391
O2    O     O_R   0.663070 0.361810 0.833670 -0.594384
O3    O     O_R   0.163070 0.138190 0.333670 -0.594388
O4    O     O_R   0.836930 0.861810 0.666330 -0.594387
O5    O     O_R   0.147900 0.305430 0.139630 -0.571411
O6    O     O_R   0.852100 0.694570 0.860370 -0.571416
O7    O     O_R   0.352100 0.805430 0.360370 -0.571414
O8    O     O_R   0.647900 0.194570 0.639630 -0.571416
C1    C     C_R   0.115091 0.477588 0.113130 0.965092
C2    C     C_R   0.884909 0.522412 0.886870 0.965087
C3    C     C_R   0.384909 0.977588 0.386870 0.965087
C4    C     C_R   0.615091 0.022412 0.613130 0.965088
O9    O     O_R   0.335280 0.308290 0.154310 -0.564333
O10   O     O_R   0.664720 0.691710 0.845690 -0.564330
O11   O     O_R   0.164720 0.808290 0.345690 -0.564332
O12   O     O_R   0.835280 0.191710 0.654310 -0.564330
O13   O     O_R   0.351790 0.140890 0.348460 -0.588476
O14   O     O_R   0.648210 0.859110 0.651540 -0.588476
O15   O     O_R   0.148210 0.640890 0.151540 -0.588477
O16   O     O_R   0.851790 0.359110 0.848460 -0.588475
C5    C     C_R   0.362453 0.477263 0.131226 0.998022
C6    C     C_R   0.637546 0.522737 0.868773 0.998007
C7    C     C_R   0.137547 0.977263 0.368774 0.998017
C8    C     C_R   0.862453 0.022737 0.631226 0.998010
O17   O     O_3   0.255200 0.472570 0.313680 -0.267644
O18   O     O_3   0.744800 0.527430 0.686320 -0.267644
O19   O     O_3   0.244800 0.972570 0.186320 -0.267647
O20   O     O_3   0.755200 0.027430 0.813680 -0.267643
V1    V     V_3+5 0.249040 0.196590 0.238190 1.261106
V2    V     V_3+5 0.750960 0.803410 0.761810 1.261113
V3    V     V_3+5 0.250960 0.696590 0.261810 1.261106
V4    V     V_3+5 0.749040 0.303410 0.738190 1.261113
C9    C     C_R   0.065030 0.852682 0.513583 0.403118
C10   C     C_R   0.934972 0.147320 0.486419 0.403122
C11   C     C_R   0.434966 0.352686 0.986412 0.403112
C12   C     C_R   0.565027 0.647318 0.013581 0.403125
C13   C     C_R   0.995253 0.864909 0.572589 -0.187292
C14   C     C_R   0.004749 0.135092 0.427412 -0.187310
C15   C     C_R   0.504744 0.364913 0.927407 -0.187285
C16   C     C_R   0.495251 0.635090 0.072588 -0.187333
H1    H     H_    0.994036 0.762236 0.630858 0.177629
H2    H     H_    0.005965 0.237766 0.369144 0.177624
H3    H     H_    0.505960 0.262244 0.869136 0.177633
H4    H     H_    0.494036 0.737762 0.130857 0.177619
C17   C     C_R   0.930533 0.011682 0.561306 -0.333440
C18   C     C_R   0.069468 0.988319 0.438695 -0.333437
C19   C     C_R   0.569466 0.511682 0.938693 -0.333439
C20   C     C_R   0.430530 0.488319 0.061303 -0.333429
C21   C     C_1   0.533920 0.008212 0.533130 -0.175129
C22   C     C_1   0.466080 0.991788 0.466870 -0.175128
C23   C     C_1   0.966080 0.508212 0.966870 -0.175129
C24   C     C_1   0.033920 0.491788 0.033130 -0.175127
N1    N     N_R   0.133210 0.707522 0.534674 0.242137
O21   O     O_R   0.108942 0.542247 0.560268 -0.375353
O22   O     O_R   0.220944 0.747703 0.544644 -0.389611
N2    N     N_R   0.866794 0.292483 0.465331 0.242135
O23   O     O_R   0.891067 0.457767 0.439754 -0.375359
O24   O     O_R   0.779059 0.252305 0.455352 -0.389615
N3    N     N_R   0.366783 0.207534 0.965317 0.242137
O25   O     O_R   0.391043 0.042270 0.939699 -0.375351
O26   O     O_R   0.279050 0.247718 0.955362 -0.389616
N4    N     N_R   0.633205 0.792481 0.034668 0.242134
O27   O     O_R   0.608930 0.957771 0.060234 -0.375364
O28   O     O_R   0.720940 0.752301 0.044653 -0.389613

loop_
_geom_bond_atom_site_label_1
_geom_bond_atom_site_label_2
_geom_bond_distance
_ccdc_geom_bond_type
O2    C6    1.326546 A    
C11   C15   1.406196 A    
O1    C5    1.326546 A    
N4    O27   1.301463 A    
O14   V2    1.974329 S    
O12   V4    2.007949 S    
O19   V1    1.750768 S    
C9    N1    1.436905 S    
O13   V1    1.974327 S    
O3    C7    1.326546 A    
C16   H4    1.083625 S    
O8    C4    1.350803 A    
C5    C20   1.493202 S    
O15   V3    1.974329 S    
O10   C6    1.329376 A    
O11   C7    1.329375 A    
C4    C21   1.470830 S    
O9    C5    1.329376 A    
N3    O25   1.301453 A    
O12   C8    1.329376 A    
C10   C17   1.417259 A    
N1    O21   1.301452 A    
C10   N2    1.436900 S    
C9    C18   1.417261 A    
O3    V1    2.001728 S    
O5    C1    1.350803 A    
C1    C24   1.470830 S    
O10   V2    2.007950 S    
C12   N4    1.436897 S    
C11   C20   1.417264 A    
C11   N3    1.436908 S    
O6    V2    1.979428 S    
N2    O24   1.301454 A    
C6    C19   1.493200 S    
O5    V1    1.979429 S    
N1    O22   1.301453 A    
O1    V3    2.001727 S    
C13   H1    1.083624 S    
O4    C8    1.326546 A    
C9    C13   1.406191 A    
N3    O26   1.301448 A    
C14   C18   1.407084 A    
O6    C2    1.350803 A    
C2    C23   1.470830 S    
C13   C17   1.407083 A    
C23   C24   1.227087 T    
O8    V4    1.979429 S    
C14   H2    1.083625 S    
C8    C17   1.493202 S    
C12   C16   1.406188 A    
C7    C18   1.493203 S    
O7    V3    1.979429 S    
N2    O23   1.301462 A    
C15   H3    1.083624 S    
C12   C19   1.417257 A    
O2    V4    2.001728 S    
C21   C22   1.227087 T    
O16   V4    1.974329 S    
C4    O14   1.338540 A    
C16   C20   1.407084 A    
C3    C22   1.470830 S    
O18   V4    1.750768 S    
C3    O13   1.338540 A    
O7    C3    1.350803 A    
N4    O28   1.301455 A    
C10   C14   1.406189 A    
C15   C19   1.407082 A    
O11   V3    2.007950 S    
C1    O15   1.338540 A    
O4    V2    2.001728 S    
O17   V3    1.750768 S    
O9    V1    2.007949 S    
C2    O16   1.338540 A    
O20   V2    1.750768 S    
