data_mof_unit_65584.cif
_audit_creation_date              2012-12-10T18:19:09-0500
_audit_creation_method            fapswitch 2.2
_symmetry_space_group_name_H-M    P1
_symmetry_Int_Tables_number       1
_space_group_crystal_system       triclinic
_cell_length_a                    18.665899
_cell_length_b                    18.505232
_cell_length_c                    18.698178
_cell_angle_alpha                 109.306166
_cell_angle_beta                  109.682042
_cell_angle_gamma                 109.301962
_cell_volume                      4979.39111356

loop_
_atom_site_label
_atom_site_type_symbol
_atom_type_description
_atom_site_fract_x
_atom_site_fract_y
_atom_site_fract_z
_atom_type_partial_charge
C1    C     C_R   0.624510 0.503064 0.620953 0.812497
C2    C     C_R   0.375466 0.496920 0.379051 0.812068
C3    C     C_3   0.316311 0.221330 0.471802 0.334655
C4    C     C_3   0.684939 0.779274 0.529982 0.331383
C5    C     C_3   0.313298 0.309725 0.502470 0.003122
C6    C     C_3   0.686711 0.690272 0.497569 -0.000277
C7    C     C_3   0.189387 0.189792 0.500607 0.045942
C8    C     C_3   0.810555 0.810049 0.499208 0.047311
C9    C     C_3   0.149571 0.218182 0.434471 -0.370515
C10   C     C_3   0.850364 0.780326 0.563975 -0.372639
C11   C     C_3   0.245599 0.152527 0.475487 -0.431812
C12   C     C_3   0.755597 0.848061 0.526211 -0.418184
C13   C     C_3   0.750114 0.595146 0.774832 -0.272918
C14   C     C_3   0.250278 0.405089 0.224939 -0.272827
C15   C     C_3   0.817625 0.592003 0.847697 -0.372827
C16   C     C_3   0.182637 0.408219 0.152186 -0.373367
C17   C     C_3   0.647529 0.433597 0.712085 0.246526
C18   C     C_3   0.352415 0.566984 0.288526 0.247263
C19   C     C_3   0.754730 0.479399 0.657350 0.337947
C20   C     C_3   0.244781 0.519871 0.342432 0.337522
C21   C     C_3   0.692836 0.502345 0.688691 -0.052629
C22   C     C_3   0.307111 0.497655 0.311345 -0.053041
C23   C     C_R   0.381234 0.378397 0.502264 0.805427
C24   C     C_R   0.618816 0.621608 0.497799 0.805260
C25   C     C_3   0.811487 0.500764 0.810585 -0.035084
C26   C     C_3   0.188489 0.499301 0.189483 -0.035672
C27   C     C_3   0.717952 0.428296 0.778882 -0.330672
C28   C     C_3   0.281981 0.572090 0.221538 -0.330281
C29   C     C_3   0.828003 0.484326 0.732315 -0.460007
C30   C     C_3   0.171700 0.515271 0.267564 -0.458086
C31   C     C_3   0.996418 0.308528 0.808799 -0.127559
C32   C     C_3   0.003715 0.691446 0.191361 -0.159297
C33   C     C_R   0.996840 0.118171 0.620791 0.955598
C34   C     C_R   0.003291 0.881955 0.379227 0.894791
C35   C     C_R   0.121029 0.121798 0.500308 0.893727
C36   C     C_R   0.878954 0.878036 0.499521 0.858858
C37   C     C_R   0.000836 0.621599 0.121810 0.940976
C38   C     C_R   0.999330 0.378392 0.878359 0.941746
C39   C     C_R   0.878778 0.500095 0.878745 0.913456
C40   C     C_R   0.121216 0.499964 0.121312 0.912115
C41   C     C_3   0.905370 0.185401 0.649903 -0.188227
C42   C     C_3   0.095851 0.816658 0.349488 -0.180049
C43   C     C_3   0.012071 0.170974 0.768736 0.152346
C44   C     C_3   0.985124 0.827059 0.230115 0.177296
C45   C     C_3   0.074569 0.348699 0.794073 -0.467380
C46   C     C_3   0.926188 0.651129 0.206882 -0.383369
C47   C     C_3   0.001338 0.237156 0.834591 0.214294
C48   C     C_3   0.997377 0.762036 0.164927 0.210435
C49   C     C_3   0.909701 0.264056 0.720082 -0.303169
C50   C     C_3   0.091054 0.737059 0.279952 -0.298359
C51   C     C_3   0.994720 0.185130 0.687944 -0.004444
C52   C     C_3   0.005343 0.814791 0.312203 -0.041730
C53   C     C_3   0.071378 0.276592 0.720030 0.151913
C54   C     C_3   0.930744 0.722777 0.282386 0.153931
C55   C     C_3   0.323400 0.342249 0.596183 -0.180375
C56   C     C_3   0.675396 0.658351 0.403432 -0.173515
C57   C     C_3   0.248098 0.271490 0.593633 -0.389155
C58   C     C_3   0.750500 0.729021 0.405733 -0.395304
C59   C     C_3   0.222815 0.292639 0.439565 -0.440865
C60   C     C_3   0.777095 0.706000 0.558981 -0.438198
H1    H     H_    0.138449 0.382049 0.855062 0.152674
H2    H     H_    0.861998 0.618631 0.146507 0.139374
H3    H     H_    0.381342 0.234356 0.517402 0.177848
H4    H     H_    0.619946 0.767176 0.485399 0.178609
H5    H     H_    0.278080 0.135835 0.524523 0.193469
H6    H     H_    0.723135 0.865725 0.478136 0.193991
H7    H     H_    0.202694 0.090132 0.411404 0.228659
H8    H     H_    0.799339 0.910038 0.590646 0.231009
H9    H     H_    0.213668 0.275141 0.373084 0.199207
H10   H     H_    0.787033 0.722987 0.625639 0.198389
H11   H     H_    0.109527 0.160849 0.366667 0.201838
H12   H     H_    0.891311 0.837142 0.632104 0.203093
H13   H     H_    0.706574 0.609676 0.798713 0.138830
H14   H     H_    0.294117 0.391173 0.201185 0.138606
H15   H     H_    0.885604 0.645578 0.876390 0.254623
H16   H     H_    0.114719 0.354488 0.123428 0.254661
H17   H     H_    0.803222 0.602894 0.902288 0.171339
H18   H     H_    0.197035 0.397580 0.097597 0.170653
H19   H     H_    0.134687 0.276478 0.746279 0.090723
H20   H     H_    0.866156 0.720635 0.257672 0.087774
H21   H     H_    0.611973 0.456480 0.743425 0.096654
H22   H     H_    0.388451 0.544732 0.257520 0.095947
H23   H     H_    0.706879 0.436638 0.835322 0.154848
H24   H     H_    0.293316 0.563994 0.165277 0.154547
H25   H     H_    0.785950 0.529398 0.641159 0.159724
H26   H     H_    0.213413 0.469367 0.358029 0.159914
H27   H     H_    0.892283 0.539178 0.753163 0.201952
H28   H     H_    0.107346 0.460330 0.246436 0.202380
H29   H     H_    0.832522 0.423147 0.710060 0.200554
H30   H     H_    0.167208 0.576464 0.290008 0.199833
H31   H     H_    0.711780 0.362053 0.749500 0.261364
H32   H     H_    0.287853 0.638194 0.250853 0.261520
H33   H     H_    0.898979 0.199422 0.595200 0.182341
H34   H     H_    0.105242 0.805113 0.405977 0.177746
H35   H     H_    0.915228 0.314145 0.698432 0.189189
H36   H     H_    0.085974 0.687864 0.302764 0.193831
H37   H     H_    0.072127 0.400594 0.777312 0.227898
H38   H     H_    0.928294 0.598428 0.222383 0.239280
H39   H     H_    0.080892 0.183962 0.800274 0.114566
H40   H     H_    0.915426 0.811616 0.198741 0.110386
H41   H     H_    0.938671 0.200227 0.831302 0.202514
H42   H     H_    0.060032 0.799924 0.168657 0.207173
H43   H     H_    0.316233 0.402139 0.614896 0.144695
H44   H     H_    0.681861 0.598075 0.383574 0.149302
H45   H     H_    0.273537 0.252117 0.642883 0.223609
H46   H     H_    0.724884 0.749334 0.357423 0.225375
H47   H     H_    0.207960 0.299191 0.611120 0.149855
H48   H     H_    0.789456 0.700595 0.386600 0.142378
H49   H     H_    0.218125 0.353669 0.463362 0.194699
H50   H     H_    0.780889 0.644559 0.533950 0.196082
H51   H     H_    0.105650 0.241508 0.449062 0.204395
H52   H     H_    0.893411 0.756447 0.547971 0.197573
O1    O     O_R   0.592570 0.552270 0.644860 -0.669525
O2    O     O_R   0.407430 0.447730 0.355140 -0.669458
O3    O     O_R   0.947720 0.540390 0.092600 -0.637041
O4    O     O_R   0.052280 0.459610 0.907400 -0.635762
O5    O     O_R   0.959660 0.552230 0.907350 -0.616945
O6    O     O_R   0.040340 0.447770 0.092650 -0.616385
O7    O     O_R   0.855120 0.447750 0.907440 -0.627727
O8    O     O_R   0.144880 0.552250 0.092560 -0.628683
O9    O     O_R   0.592650 0.447750 0.540350 -0.533756
O10   O     O_R   0.407350 0.552250 0.459650 -0.534323
O11   O     O_R   0.407370 0.459660 0.552260 -0.647693
O12   O     O_R   0.592630 0.540340 0.447740 -0.647002
O13   O     O_R   0.407450 0.355140 0.447760 -0.562998
O14   O     O_R   0.592550 0.644860 0.552240 -0.563221
O15   O     O_R   0.052270 0.092540 0.644860 -0.630814
O16   O     O_R   0.947730 0.907460 0.355140 -0.622319
O17   O     O_R   0.947710 0.092600 0.540380 -0.630670
O18   O     O_R   0.052290 0.907400 0.459620 -0.644589
O19   O     O_R   0.144880 0.092570 0.552230 -0.638159
O20   O     O_R   0.855120 0.907430 0.447770 -0.638011
O21   O     O_R   0.040310 0.092630 0.447750 -0.607553
O22   O     O_R   0.959690 0.907370 0.552250 -0.616941
O23   O     O_R   0.052260 0.644880 0.092510 -0.624706
O24   O     O_R   0.947740 0.355120 0.907490 -0.626842
Zn1   Zn    Zn3+2 0.499940 0.569790 0.569780 1.015242
Zn2   Zn    Zn3+2 0.500060 0.430210 0.430220 1.017114
Zn3   Zn    Zn3+2 0.069820 0.999960 0.569760 0.972015
Zn4   Zn    Zn3+2 0.930180 0.000040 0.430240 0.981545
Zn5   Zn    Zn3+2 0.069800 0.569760 0.999940 0.985631
Zn6   Zn    Zn3+2 0.930200 0.430240 0.000060 0.988350
O25   O     O_3   0.307036 0.187527 0.387656 -0.710800
H53   H     H_    0.245590 0.164513 0.343689 0.349291
O26   O     O_3   0.695326 0.812515 0.614614 -0.711908
H54   H     H_    0.756824 0.834697 0.657798 0.347946
C61   C     C_2   0.792669 0.670468 0.760591 0.374268
H55   H     H_    0.759597 0.706847 0.747323 0.096777
O27   O     O_2   0.862247 0.689705 0.761355 -0.590011
C62   C     C_2   0.207925 0.329268 0.238665 0.375451
H56   H     H_    0.241162 0.292918 0.251549 0.096614
O28   O     O_2   0.138319 0.309579 0.237900 -0.589679
O29   O     O_3   0.709064 0.396939 0.580227 -0.702324
H57   H     H_    0.696826 0.349437 0.595457 0.405749
O30   O     O_3   0.290029 0.601933 0.419922 -0.703249
H58   H     H_    0.302306 0.649810 0.405209 0.405569
O31   O     O_3   0.587598 0.349181 0.638028 -0.699648
H59   H     H_    0.532521 0.349217 0.608246 0.339591
O32   O     O_3   0.411775 0.651342 0.362837 -0.698821
H60   H     H_    0.466974 0.651655 0.392999 0.340724
C63   C     C_2   0.827010 0.239906 0.726717 0.471798
H61   H     H_    0.813105 0.203193 0.759628 0.129555
O33   O     O_2   0.774710 0.261273 0.694515 -0.603075
C64   C     C_2   0.173374 0.760394 0.272713 0.468299
H62   H     H_    0.186551 0.795654 0.238390 0.130958
O34   O     O_2   0.226143 0.739965 0.305958 -0.601875
C65   C     C_2   0.824843 0.095582 0.607103 0.452248
H63   H     H_    0.787156 0.055682 0.536222 0.070053
O35   O     O_2   0.802270 0.066143 0.650168 -0.537213
C66   C     C_2   0.174484 0.906682 0.388597 0.459189
H64   H     H_    0.212735 0.949399 0.459159 0.067948
O36   O     O_2   0.194721 0.933266 0.342843 -0.541282
O37   O     O_3   0.060582 0.294004 0.650429 -0.760959
H65   H     H_    0.117435 0.344502 0.670389 0.332033
O38   O     O_3   0.945615 0.704477 0.351751 -0.747646
H66   H     H_    0.924603 0.734675 0.387334 0.326517
O39   O     O_3   0.955780 0.083701 0.743552 -0.737167
H67   H     H_    0.978993 0.076093 0.795116 0.355584
O40   O     O_3   0.038653 0.914494 0.253487 -0.732748
H68   H     H_    0.013508 0.920501 0.201199 0.354821
O41   O     O_3   0.068163 0.274664 0.921272 -0.793769
H69   H     H_    0.125474 0.305611 0.925778 0.317002
O42   O     O_3   0.930756 0.723823 0.077970 -0.794302
H70   H     H_    0.873447 0.691799 0.072997 0.316010
C67   C     C_2   0.412900 0.370061 0.666783 0.301216
H71   H     H_    0.463799 0.438827 0.703466 0.078810
O43   O     O_2   0.429815 0.316530 0.681875 -0.565259
C68   C     C_2   0.585793 0.631554 0.333932 0.302212
H72   H     H_    0.534685 0.562844 0.296685 0.077578
O44   O     O_2   0.569099 0.685789 0.320273 -0.564918

loop_
_geom_bond_atom_site_label_1
_geom_bond_atom_site_label_2
_ccdc_geom_bond_type
C9    H51   S    
C15   H15   S    
O14   Zn1   S    
C1    C21   S    
O31   H59   S    
C47   H41   S    
C20   O30   S    
C28   H24   S    
C44   H40   S    
C40   O6    A    
C61   H55   S    
C42   C50   S    
C3    C11   S    
C33   O15   A    
C47   O41   S    
C50   H36   S    
C35   O21   A    
C29   H29   S    
O26   H54   S    
C53   O37   S    
C65   O35   D    
C20   C30   S    
O37   H65   S    
C7    C11   S    
C12   H8    S    
O15   Zn3   S    
C46   H2    S    
C14   H14   S    
O12   Zn2   S    
C64   H62   S    
C61   O27   D    
C43   H39   S    
C36   O20   A    
C67   O43   D    
C66   H64   S    
O25   H53   S    
C55   H43   S    
C24   O12   A    
C53   H19   S    
C68   O44   D    
C8    C36   S    
C45   H1    S    
O6    Zn6   S    
O24   Zn6   S    
C18   O32   S    
C42   C66   S    
C8    C58   S    
C41   H33   S    
C56   C68   S    
C52   C54   S    
C20   H26   S    
C2    C22   S    
C37   O23   A    
C27   H31   S    
C38   O24   A    
C4    C12   S    
C18   C22   S    
C17   O31   S    
C49   C63   S    
C30   H30   S    
C23   O13   A    
C44   C52   S    
O2    Zn2   S    
C46   H38   S    
O3    Zn6   S    
C45   C53   S    
C42   H34   S    
C16   C26   S    
C32   C48   S    
C46   C54   S    
C1    O1    A    
C31   C49   S    
O18   Zn3   S    
C18   H22   S    
C44   O40   S    
C41   C49   S    
C63   O33   D    
C11   H7    S    
C63   H61   S    
C54   H20   S    
C2    O10   A    
C25   C29   S    
C26   C40   S    
C57   H45   S    
C5    C59   S    
C50   C64   S    
C17   C27   S    
C6    C60   S    
C7    C35   S    
C18   C28   S    
C56   H44   S    
C4    C6    S    
C6    C56   S    
C65   H63   S    
O19   Zn3   S    
C23   O11   A    
C3    C5    S    
C39   O5    A    
C12   H6    S    
C17   C21   S    
C33   C51   S    
O40   H68   S    
C68   H72   S    
C58   H46   S    
C54   O38   S    
O41   H69   S    
O5    Zn5   S    
O42   H70   S    
C62   O28   D    
C38   O4    A    
O32   H60   S    
C5    C23   S    
C13   C15   S    
C60   H10   S    
C8    C12   S    
C6    C24   S    
C14   C62   S    
C3    O25   S    
C28   H32   S    
C32   C37   S    
C49   H35   S    
C10   H52   S    
C44   C48   S    
C32   C50   S    
C59   H9    S    
C34   O16   A    
C57   H47   S    
C41   C51   S    
C13   H13   S    
C26   C30   S    
C55   C57   S    
C19   O29   S    
C14   C16   S    
C25   C27   S    
C13   C61   S    
C30   H28   S    
C19   C29   S    
C34   C52   S    
C35   O19   A    
O22   Zn3   S    
C16   H18   S    
C33   O17   A    
C24   O14   A    
O11   Zn1   S    
C10   C60   S    
C43   O39   S    
C40   O8    A    
C16   H16   S    
C32   C46   S    
C5    C55   S    
O8    Zn5   S    
C9    H11   S    
O10   Zn1   S    
C20   C22   S    
C43   C47   S    
C19   H25   S    
O9    Zn2   S    
C36   O22   A    
C48   O42   S    
C37   O3    A    
C3    H3    S    
O13   Zn2   S    
O20   Zn4   S    
C4    H4    S    
C26   C28   S    
C17   H21   S    
C31   C38   S    
C48   H42   S    
O1    Zn1   S    
C14   C22   S    
C27   H23   S    
O16   Zn4   S    
O38   H66   S    
C45   H37   S    
C13   C21   S    
C2    O2    A    
C43   C51   S    
C67   H71   S    
C15   H17   S    
O17   Zn4   S    
C66   O36   D    
C60   H50   S    
C39   O7    A    
C4    O26   S    
C41   C65   S    
C64   O34   D    
C59   H49   S    
C56   C58   S    
C58   H48   S    
C55   C67   S    
C1    O9    A    
C29   H27   S    
C15   C25   S    
O4    Zn5   S    
C7    C9    S    
O23   Zn5   S    
C34   O18   A    
O21   Zn4   S    
C8    C10   S    
O39   H67   S    
C31   C45   S    
O30   H58   S    
O7    Zn6   S    
C62   H56   S    
C31   C47   S    
C51   C53   S    
O29   H57   S    
C9    C59   S    
C7    C57   S    
C25   C39   S    
C11   H5    S    
C42   C52   S    
C19   C21   S    
C10   H12   S    
