data_mof_unit_20989.cif
_audit_creation_date              2013-03-05T16:15:03-0500
_audit_creation_method            fapswitch 2.2
_symmetry_space_group_name_H-M    P1
_symmetry_Int_Tables_number       1
_space_group_crystal_system       triclinic
_cell_length_a                    23.47345
_cell_length_b                    10.705776
_cell_length_c                    9.563118
_cell_angle_alpha                 89.9441
_cell_angle_beta                  90.666191
_cell_angle_gamma                 90.581836
_cell_volume                      2402.93864008

loop_
_atom_site_label
_atom_site_type_symbol
_atom_site_description
_atom_site_fract_x
_atom_site_fract_y
_atom_site_fract_z
_atom_type_partial_charge
O1    O     O_R   0.500030 0.316850 0.620870 -0.598632
O2    O     O_R   0.499970 0.683150 0.379130 -0.612392
O3    O     O_R   0.500000 0.316860 0.379090 -0.557155
O4    O     O_R   0.500000 0.683140 0.620910 -0.568813
C1    C     C_R   0.499362 0.259926 0.499865 0.791185
C2    C     C_R   0.500826 0.739837 0.500111 0.842079
O5    O     O_R   0.417890 0.499960 0.620920 -0.547566
O6    O     O_R   0.582110 0.500040 0.379080 -0.550511
O7    O     O_R   0.417870 0.499970 0.379140 -0.561807
O8    O     O_R   0.582130 0.500030 0.620860 -0.553062
C3    C     C_R   0.390968 0.501243 0.498660 0.791200
C4    C     C_R   0.608898 0.510307 0.499481 0.844286
Cu1   Cu    Cu3+1 0.500010 0.499990 0.643150 0.986828
Cu2   Cu    Cu3+1 0.499990 0.500010 0.356850 0.977354
C5    C     C_R   0.879793 0.668429 0.457361 0.518942
C6    C     C_R   0.119593 0.464860 0.366886 0.537269
N1    N     N_R   0.851909 0.557867 0.434627 -0.460174
N2    N     N_R   0.149292 0.561429 0.425735 -0.468523
C7    C     C_R   0.879825 0.451853 0.399826 0.516165
C8    C     C_R   0.121770 0.660721 0.481453 0.535182
C9    C     C_R   0.939994 0.450699 0.394499 -0.102623
C10   C     C_R   0.061804 0.672092 0.463831 -0.060104
C11   C     C_R   0.970238 0.563924 0.423516 -0.049798
C12   C     C_R   0.030543 0.564962 0.421070 -0.066650
C13   C     C_R   0.940360 0.675446 0.455020 -0.033365
C14   C     C_R   0.060222 0.456053 0.383869 -0.055949
C15   C     C_R   0.970852 0.339242 0.368500 -0.000889
C16   C     C_R   0.032536 0.783621 0.493587 -0.033540
C17   C     C_R   0.030926 0.340485 0.376364 0.137161
C18   C     C_R   0.972095 0.787753 0.485164 0.080309
O9    O     O_2   0.847998 0.769057 0.485355 -0.565312
O10   O     O_2   0.147629 0.378634 0.292317 -0.527938
O11   O     O_2   0.848562 0.348521 0.371047 -0.552196
O12   O     O_2   0.152352 0.744726 0.556763 -0.508414
C19   C     C_R   0.248841 0.614433 0.365607 0.200568
C20   C     C_R   0.754485 0.538771 0.335616 0.172160
C21   C     C_R   0.307071 0.597323 0.388138 -0.221026
C22   C     C_R   0.696590 0.516831 0.357175 -0.213874
H1    H     H_    0.336747 0.649021 0.323925 0.136917
H2    H     H_    0.670355 0.496449 0.265986 0.201398
C23   C     C_R   0.327940 0.514696 0.490056 -0.069039
C24   C     C_R   0.671973 0.529550 0.490281 -0.111772
C25   C     C_R   0.288712 0.446756 0.573826 0.084657
C26   C     C_R   0.707771 0.571455 0.601642 0.170281
C27   C     C_R   0.229211 0.465668 0.553839 -0.007576
C28   C     C_R   0.767572 0.559239 0.587796 -0.001369
C29   C     C_R   0.209723 0.548310 0.448742 0.223223
C30   C     C_R   0.790993 0.551652 0.452545 0.224770
C31   C     C_3   0.545411 0.043417 0.573064 0.113522
C32   C     C_3   0.456204 0.955891 0.426039 0.127932
C33   C     C_3   0.548939 0.960610 0.441947 0.032984
C34   C     C_3   0.452560 0.037830 0.557488 0.020032
C35   C     C_3   0.501544 0.876566 0.500199 -0.083659
C36   C     C_3   0.499826 0.122837 0.499410 -0.108934
C37   C     C_3   0.497878 0.957880 0.632975 -0.207978
C38   C     C_3   0.503672 0.041065 0.366161 -0.267263
H3    H     H_    0.495795 0.924187 0.742388 0.156535
H4    H     H_    0.505701 0.074304 0.256612 0.147125
C39   C     C_3   0.526007 0.597487 0.050629 0.084278
C40   C     C_3   0.474239 0.401530 0.949933 0.150752
C41   C     C_3   0.474573 0.596397 0.949597 -0.015577
C42   C     C_3   0.525201 0.403647 0.051520 0.036740
N3    N     N_3   0.500040 0.499970 0.858290 -0.199880
N4    N     N_3   0.499960 0.500030 0.141710 -0.219583
C43   C     C_3   0.551241 0.500082 0.953081 0.055764
C44   C     C_3   0.448701 0.498401 0.048113 0.044155
C45   C     C_2   0.941740 0.217675 0.342528 0.413188
H5    H     H_    0.912273 0.179626 0.418416 0.106492
O13   O     O_2   0.951285 0.158646 0.236313 -0.532310
C46   C     C_2   0.064936 0.898571 0.530009 0.451508
H6    H     H_    0.056249 0.946034 0.627169 0.062084
O14   O     O_2   0.100386 0.941441 0.450209 -0.511827
C47   C     C_2   0.443626 0.708389 0.894618 0.366455
H7    H     H_    0.455632 0.800976 0.930763 0.054232
O15   O     O_2   0.403288 0.695953 0.814194 -0.517168
C48   C     C_2   0.556786 0.292817 0.109014 0.422569
H8    H     H_    0.545732 0.199413 0.073978 0.027502
O16   O     O_2   0.596957 0.307351 0.189496 -0.552090
C49   C     C_3   0.555718 0.714870 0.108221 -0.349077
C50   C     C_3   0.586356 0.790130 0.995487 -0.946070
H9    H     H_    0.625702 0.742501 0.963706 0.246747
H10   H     H_    0.558709 0.803830 0.902084 0.251624
H11   H     H_    0.598683 0.883228 0.037790 0.258084
H12   H     H_    0.523263 0.776092 0.155039 0.212020
H13   H     H_    0.587148 0.686766 0.189328 0.266197
C51   C     C_3   0.451290 0.276073 0.895512 -0.352980
C52   C     C_3   0.425062 0.194213 0.009753 -0.785938
H14   H     H_    0.432935 0.094163 0.987109 0.253627
H15   H     H_    0.443470 0.215909 0.114310 0.242239
H16   H     H_    0.378391 0.206853 0.013653 0.289721
H17   H     H_    0.419705 0.292421 0.812295 0.232021
H18   H     H_    0.487316 0.223996 0.850553 0.201918
C53   C     C_2   0.611941 0.479247 0.915593 0.391004
H19   H     H_    0.644748 0.531097 0.971266 0.045930
O17   O     O_2   0.625161 0.391976 0.841191 -0.536719
C54   C     C_2   0.388788 0.505238 0.098755 0.399425
H20   H     H_    0.366689 0.593576 0.095124 0.039702
O18   O     O_2   0.364814 0.413100 0.145887 -0.549322
C55   C     C_3   0.060265 0.223285 0.431422 -0.334620
C56   C     C_3   0.053114 0.215502 0.590149 -0.815701
H21   H     H_    0.061401 0.307838 0.639663 0.259035
H22   H     H_    0.009209 0.184320 0.615939 0.228274
H23   H     H_    0.084150 0.149214 0.635765 0.290044
H24   H     H_    0.042799 0.137854 0.381199 0.236224
H25   H     H_    0.106238 0.219801 0.410575 0.286144
C57   C     C_3   0.943374 0.914104 0.504768 -0.340219
C58   C     C_3   0.924778 0.933807 0.655910 -0.762400
H26   H     H_    0.897959 0.855118 0.693612 0.277941
H27   H     H_    0.962641 0.942019 0.725981 0.228748
H28   H     H_    0.900121 0.021483 0.663094 0.246621
H29   H     H_    0.972150 0.992388 0.476938 0.166456
H30   H     H_    0.908076 0.928144 0.428832 0.261172
C59   C     C_3   0.229761 0.701738 0.250062 -0.371855
C60   C     C_3   0.219734 0.631064 0.113389 -0.766579
H31   H     H_    0.258784 0.580558 0.083178 0.258677
H32   H     H_    0.184063 0.563150 0.124123 0.283446
H33   H     H_    0.208645 0.698077 0.028922 0.250331
H34   H     H_    0.190396 0.751501 0.278882 0.246681
H35   H     H_    0.262749 0.775207 0.232620 0.200199
C61   C     C_3   0.775383 0.550818 0.186960 -0.317485
C62   C     C_3   0.756704 0.675393 0.124132 -0.796545
H36   H     H_    0.709483 0.680836 0.119202 0.241265
H37   H     H_    0.773680 0.754083 0.188524 0.276001
H38   H     H_    0.773464 0.685372 0.016681 0.268718
H39   H     H_    0.822456 0.546470 0.180826 0.228305
H40   H     H_    0.757922 0.472570 0.122591 0.238388
C63   C     C_3   0.309600 0.355600 0.683101 -0.355213
C64   C     C_3   0.305075 0.410858 0.829311 -0.706830
H41   H     H_    0.316453 0.339119 0.907639 0.262748
H42   H     H_    0.334494 0.492031 0.839950 0.266751
H43   H     H_    0.261164 0.441871 0.851303 0.249178
H44   H     H_    0.286519 0.265185 0.676006 0.262552
H45   H     H_    0.353841 0.329781 0.663484 0.164099
C65   C     C_3   0.685673 0.656263 0.715766 -0.379534
C66   C     C_3   0.708849 0.789665 0.700634 -0.795111
H46   H     H_    0.698499 0.827589 0.595526 0.298937
H47   H     H_    0.689436 0.850455 0.780686 0.231134
H48   H     H_    0.755757 0.792664 0.716666 0.263906
H49   H     H_    0.638738 0.663058 0.713930 0.217666
H50   H     H_    0.699112 0.621423 0.819223 0.232428
C67   C     C_2   0.185476 0.403676 0.642768 0.375990
H51   H     H_    0.148896 0.456334 0.676752 0.067186
O19   O     O_2   0.187893 0.293125 0.672878 -0.530757
C68   C     C_2   0.805761 0.555104 0.712952 0.365494
H52   H     H_    0.849953 0.584450 0.706929 0.083098
O20   O     O_2   0.788973 0.511802 0.823296 -0.559175
C69   C     C_2   0.602793 0.918363 0.375375 0.305474
H53   H     H_    0.625683 0.980889 0.306111 0.101625
O21   O     O_2   0.621566 0.814790 0.399952 -0.589016
C70   C     C_2   0.397841 0.079517 0.619297 0.361637
H54   H     H_    0.370647 0.141878 0.560433 0.043807
O22   O     O_2   0.383170 0.041926 0.733913 -0.530212
C71   C     C_3   0.595079 0.091250 0.664227 -0.411578
C72   C     C_3   0.638385 0.167635 0.581350 -0.690142
H55   H     H_    0.661722 0.107002 0.508166 0.231804
H56   H     H_    0.617180 0.243020 0.521425 0.248985
H57   H     H_    0.669947 0.210782 0.654430 0.270272
H58   H     H_    0.577913 0.149926 0.749273 0.228560
H59   H     H_    0.616776 0.010227 0.713000 0.205343
C73   C     C_3   0.406935 0.898157 0.340944 -0.418539
C74   C     C_3   0.364181 0.995076 0.290355 -0.795749
H60   H     H_    0.334158 0.018133 0.374994 0.258503
H61   H     H_    0.386173 0.081648 0.256092 0.261289
H62   H     H_    0.338976 0.956598 0.201050 0.251757
H63   H     H_    0.424771 0.849357 0.249043 0.196742
H64   H     H_    0.384618 0.828290 0.406905 0.208026

loop_
_geom_bond_atom_site_label_1
_geom_bond_atom_site_label_2
_geom_bond_distance
_ccdc_geom_bond_type
C66   H48   1.110091 S    
C52   H14   1.110735 S    
N3    C43   1.496953 S    
C53   H19   1.080277 S    
C15   C17   1.411207 A    
C47   O15   1.219237 D    
C47   H7    1.083580 S    
C69   H53   1.084276 S    
N1    C30   1.442973 S    
C19   C29   1.406773 A    
N2    C29   1.441194 S    
C74   H60   1.109031 S    
C66   H46   1.108937 S    
C57   H30   1.106704 S    
O5    C3    1.322688 A    
C39   N4    1.489542 S    
C40   N3    1.497700 S    
O1    C1    1.308230 A    
C10   C12   1.413472 A    
C31   C71   1.531868 S    
C69   O21   1.218994 D    
C12   C14   1.412241 A    
C22   C24   1.411300 A    
C51   H17   1.096482 S    
C67   O19   1.219502 D    
C65   H50   1.100866 S    
C49   H12   1.108635 S    
C61   H40   1.112129 S    
C5    C13   1.423375 A    
C57   C58   1.530134 S    
C31   C36   1.537474 S    
C71   H58   1.110042 S    
C40   C42   1.532249 S    
C33   C38   1.547815 S    
C27   C29   1.413500 A    
O4    Cu1   1.972059 S    
C41   N3    1.487252 S    
C63   H44   1.106214 S    
C62   H38   1.109236 S    
C4    C24   1.496365 S    
C59   H35   1.111956 S    
C41   C44   1.534761 S    
C34   C36   1.536390 S    
C31   C33   1.539830 S    
C54   O18   1.219269 D    
C42   N4    1.478408 S    
C58   H26   1.109016 S    
C19   C59   1.513308 S    
C46   H6    1.081908 S    
C73   H64   1.109335 S    
C72   H56   1.108205 S    
C34   C37   1.544275 S    
C8    O12   1.348690 S    
C43   C53   1.492295 S    
C55   H24   1.106319 S    
C9    C15   1.425702 A    
C40   C44   1.531017 S    
C3    C23   1.489256 S    
C53   O17   1.219746 D    
C10   C16   1.414374 A    
Cu1   Cu2   2.737916 S    
C64   H41   1.104838 S    
C27   C67   1.490968 S    
C23   C25   1.421662 A    
C42   C48   1.505640 S    
O2    C2    1.306843 A    
C24   C26   1.419136 A    
C50   H11   1.110390 S    
C20   C61   1.514202 S    
C74   H61   1.107462 S    
C26   C28   1.418871 A    
C60   H31   1.110231 S    
C36   C38   1.550731 S    
C57   H29   1.105319 S    
C35   C37   1.543931 S    
C26   C65   1.519593 S    
C55   H25   1.100685 S    
C28   C30   1.414011 A    
C39   C41   1.537485 S    
C32   C35   1.535079 S    
C17   C55   1.527627 S    
C45   H5    1.084617 S    
C1    C36   1.467808 S    
C48   H8    1.082991 S    
C72   H57   1.110098 S    
C50   H10   1.108486 S    
C7    O11   1.348138 S    
C39   C49   1.530872 S    
C65   H49   1.104804 S    
C40   C51   1.531387 S    
C61   H39   1.108654 S    
C50   H9    1.105340 S    
C28   C68   1.487896 S    
C41   C47   1.499747 S    
C31   C37   1.550764 S    
O8    Cu1   1.941845 S    
C56   H23   1.107785 S    
C32   C38   1.547268 S    
C49   C50   1.527501 S    
C45   O13   1.220958 D    
N4    C44   1.491229 S    
C71   H59   1.109962 S    
O7    Cu2   1.941847 S    
O7    C3    1.312382 A    
C32   C34   1.537281 S    
C55   C56   1.531217 S    
Cu1   N3    2.057400 S    
C33   C69   1.496248 S    
O6    C4    1.309669 A    
Cu2   N4    2.057400 S    
C54   H20   1.083595 S    
C56   H22   1.110482 S    
C72   H55   1.108285 S    
C6    N2    1.359761 A    
C73   H63   1.111082 S    
C5    O9    1.345664 S    
C25   C27   1.423989 A    
C62   H36   1.111017 S    
O3    Cu2   1.972059 S    
O8    C4    1.330266 A    
C68   O20   1.220127 D    
C8    C10   1.422147 A    
C9    C11   1.424412 A    
C58   H28   1.110336 S    
C70   O22   1.219454 D    
O4    C2    1.304701 A    
O1    Cu1   1.972412 S    
C2    C35   1.463712 S    
C25   C63   1.510180 S    
C63   C64   1.524022 S    
C64   H43   1.108607 S    
C49   H13   1.107793 S    
C74   H62   1.110455 S    
C61   C62   1.528438 S    
C44   C54   1.495247 S    
C59   C60   1.525560 S    
C13   C18   1.435655 A    
C66   H47   1.110127 S    
O6    Cu2   1.936863 S    
C42   C43   1.524590 S    
C19   C21   1.395152 A    
C51   C52   1.530836 S    
C16   C46   1.479826 S    
C63   H45   1.095693 S    
C48   O16   1.219071 D    
C68   H52   1.082972 S    
O3    C1    1.305598 A    
C6    C14   1.407153 A    
C64   H42   1.108508 S    
C60   H32   1.108932 S    
C5    N1    1.363149 A    
C65   C66   1.530438 S    
C6    O10   1.348439 S    
C32   C73   1.531789 S    
C73   C74   1.525347 S    
C37   H3    1.107881 S    
C21   H1    1.081716 S    
C51   H18   1.108729 S    
C67   H51   1.085085 S    
C39   C43   1.528337 S    
C20   C22   1.394463 A    
C22   H2    1.082808 S    
C58   H27   1.109665 S    
C16   C18   1.421248 A    
C56   H21   1.110906 S    
N1    C7    1.359855 A    
C38   H4    1.107481 S    
C20   C30   1.406917 A    
N2    C8    1.361731 A    
C11   C13   1.425042 A    
C21   C23   1.403011 A    
O2    Cu2   1.972412 S    
C62   H37   1.111832 S    
C60   H33   1.110283 S    
C15   C45   1.483621 S    
C11   C12   1.415962 A    
C59   H34   1.108980 S    
O5    Cu1   1.936868 S    
C14   C17   1.410874 A    
C34   C70   1.492703 S    
C52   H16   1.106269 S    
C52   H15   1.108512 S    
C70   H54   1.081490 S    
C46   O14   1.221390 D    
C33   C35   1.533213 S    
C71   C72   1.526719 S    
C18   C57   1.530162 S    
C7    C9    1.414068 A    
