data_mof_unit_5143.cif
_audit_creation_date              2012-12-10T17:21:11-0500
_audit_creation_method            fapswitch 2.2
_symmetry_space_group_name_H-M    P1
_symmetry_Int_Tables_number       1
_space_group_crystal_system       triclinic
_cell_length_a                    10.102957
_cell_length_b                    10.636948
_cell_length_c                    10.869057
_cell_angle_alpha                 89.723524
_cell_angle_beta                  96.561058
_cell_angle_gamma                 80.910338
_cell_volume                      1145.50588293

loop_
_atom_site_label
_atom_site_type_symbol
_atom_type_description
_atom_site_fract_x
_atom_site_fract_y
_atom_site_fract_z
_atom_type_partial_charge
C1    C     C_R   0.442181 0.509885 0.267326 0.919024
C2    C     C_3   0.496872 0.879278 0.493194 0.091828
C3    C     C_3   0.558891 0.922374 0.621530 -0.075742
C4    C     C_3   0.349571 0.949266 0.459955 -0.411744
C5    C     C_2   0.407524 0.513882 0.134811 -0.385502
C6    C     C_2   0.505828 0.527701 0.066766 -0.182110
C7    C     C_2   0.595261 0.503531 0.867038 -0.078138
C8    C     C_2   0.492350 0.504641 0.935997 -0.211698
C9    C     C_2   0.071240 0.495532 0.484980 -0.142771
C10   C     C_2   0.926309 0.513882 0.506105 -0.149495
C11   C     C_R   0.497243 0.258841 0.491317 0.824622
C12   C     C_R   0.558595 0.494254 0.733425 0.907103
C13   C     C_R   0.498602 0.742386 0.495414 0.843301
C14   C     C_3   0.593607 0.056256 0.394096 -0.050523
C15   C     C_3   0.581458 0.913766 0.390104 -0.466537
C16   C     C_3   0.547806 0.068737 0.617336 -0.487889
C17   C     C_3   0.346934 0.093827 0.451792 -0.049842
C18   C     C_3   0.494883 0.122769 0.484534 0.068419
H1    H     H_    0.697601 0.062582 0.438062 0.163358
H2    H     H_    0.284575 0.928393 0.531066 0.165214
H3    H     H_    0.479145 0.113949 0.683555 0.179760
H4    H     H_    0.393111 0.488253 0.895561 0.183558
H5    H     H_    0.600636 0.550652 0.110601 0.190405
H6    H     H_    0.308952 0.496235 0.094107 0.154229
H7    H     H_    0.889777 0.584367 0.571080 0.156511
H8    H     H_    0.106037 0.433526 0.412615 0.176555
H9    H     H_    0.880089 0.382214 0.387277 0.169781
H10   H     H_    0.121675 0.610152 0.619659 0.158384
H11   H     H_    0.533204 0.888116 0.298380 0.172534
H12   H     H_    0.685197 0.857916 0.402710 0.173205
H13   H     H_    0.649070 0.094229 0.648128 0.158804
H14   H     H_    0.668008 0.880167 0.633610 0.146903
H15   H     H_    0.286695 0.136291 0.525479 0.163339
H16   H     H_    0.305559 0.912450 0.371284 0.171218
N1    N     N_2   0.157300 0.551950 0.551120 -0.196812
N2    N     N_2   0.842730 0.448000 0.448950 -0.200262
O1    O     O_R   0.568940 0.489540 0.307530 -0.610096
O2    O     O_R   0.348880 0.522880 0.340350 -0.614637
O3    O     O_R   0.610030 0.298130 0.483570 -0.617546
O4    O     O_R   0.389960 0.331470 0.516390 -0.619978
O5    O     O_R   0.651120 0.477120 0.659650 -0.616273
O6    O     O_R   0.431060 0.510460 0.692470 -0.622297
O7    O     O_R   0.610040 0.668530 0.483610 -0.627845
O8    O     O_R   0.389970 0.701870 0.516430 -0.622549
Zn1   Zn    Zn3+2 0.646940 0.477740 0.478080 0.911145
Zn2   Zn    Zn3+2 0.353060 0.522260 0.521920 0.917639
C19   C     C_3   0.495662 0.877743 0.734899 -0.400332
C20   C     C_3   0.582085 0.895413 0.857486 -0.359456
C21   C     C_3   0.508826 0.872111 0.968661 -0.902727
H17   H     H_    0.419578 0.947328 0.971862 0.255652
H18   H     H_    0.475076 0.777884 0.962853 0.281434
H19   H     H_    0.577815 0.874126 0.055459 0.247790
H20   H     H_    0.678418 0.827618 0.862962 0.215751
H21   H     H_    0.606966 0.993253 0.862130 0.228560
H22   H     H_    0.391882 0.931007 0.736203 0.211365
H23   H     H_    0.487817 0.775104 0.729411 0.206606
C22   C     C_3   0.736557 0.521179 0.926804 -0.438494
C23   C     C_3   0.847177 0.522006 0.841211 -0.307988
C24   C     C_3   0.980322 0.542180 0.914155 -0.948834
H24   H     H_    0.967835 0.634911 0.961509 0.264004
H25   H     H_    0.015746 0.464197 0.984217 0.269043
H26   H     H_    0.058209 0.542430 0.849880 0.249522
H27   H     H_    0.864968 0.429373 0.794128 0.246079
H28   H     H_    0.816008 0.601198 0.771768 0.221442
H29   H     H_    0.726994 0.613788 0.974585 0.212153
H30   H     H_    0.772431 0.443883 0.997626 0.213774
C25   C     C_3   0.580433 0.117814 0.261957 -0.409705
C26   C     C_3   0.713306 0.090653 0.204074 -0.350879
C27   C     C_3   0.702650 0.164488 0.081589 -0.888918
H31   H     H_    0.614591 0.144689 0.018256 0.265491
H32   H     H_    0.690308 0.268273 0.098583 0.269266
H33   H     H_    0.795795 0.136382 0.036529 0.247310
H34   H     H_    0.796645 0.119117 0.268090 0.219032
H35   H     H_    0.738322 0.987045 0.187602 0.219838
H36   H     H_    0.502670 0.081156 0.198294 0.199388
H37   H     H_    0.550185 0.222495 0.264735 0.214919
C28   C     C_3   0.273824 0.151387 0.325493 -0.397007
C29   C     C_3   0.119608 0.166403 0.319871 -0.369013
C30   C     C_3   0.051789 0.240135 0.202365 -0.927959
H38   H     H_    0.084945 0.334577 0.197577 0.257305
H39   H     H_    0.077205 0.185743 0.118963 0.267275
H40   H     H_    0.940843 0.256244 0.202598 0.254940
H41   H     H_    0.087748 0.071086 0.320699 0.219819
H42   H     H_    0.085142 0.217902 0.401855 0.209011
H43   H     H_    0.301889 0.246110 0.308086 0.207539
H44   H     H_    0.303411 0.089353 0.248498 0.200448

loop_
_geom_bond_atom_site_label_1
_geom_bond_atom_site_label_2
_ccdc_geom_bond_type
C11   C18   S    
C16   H3    S    
C14   C18   S    
C22   H30   S    
C7    C8    D    
C28   C29   S    
C16   H13   S    
C20   H21   S    
C1    C5    S    
C5    C6    D    
C26   H35   S    
O6    Zn2   S    
C27   H32   S    
C2    C13   S    
C12   O6    A    
C29   H41   S    
H10   N1    S    
C26   C27   S    
C21   H18   S    
C8    H4    S    
C14   C25   S    
C9    C10   S    
C1    O1    A    
O3    Zn1   S    
C28   H43   S    
C24   H24   S    
C3    H14   S    
C17   H15   S    
O8    Zn2   S    
C9    H8    S    
C15   H11   S    
C23   H28   S    
C20   H20   S    
C4    H16   S    
C24   H25   S    
C11   O4    A    
C30   H39   S    
C29   C30   S    
C6    C8    S    
C26   H34   S    
C25   C26   S    
C27   H33   S    
C2    C4    S    
C12   O5    A    
C19   C20   S    
C21   H19   S    
C17   C28   S    
C17   C18   S    
N2    Zn1   S    
C11   O3    A    
C2    C15   S    
O7    Zn1   S    
C1    O2    A    
C4    C17   S    
C10   H7    S    
C20   C21   S    
C28   H44   S    
C7    C12   S    
C25   H36   S    
O4    Zn2   S    
O1    Zn1   S    
C13   O7    A    
C15   H12   S    
C19   H22   S    
C23   H27   S    
C24   H26   S    
C14   H1    S    
C22   H29   S    
C30   H40   S    
H9    N2    S    
C2    C3    S    
C23   C24   S    
C22   C23   S    
C5    H6    S    
C6    H5    S    
C3    C19   S    
C27   H31   S    
O2    Zn2   S    
C30   H38   S    
C4    H2    S    
C29   H42   S    
C16   C18   S    
C21   H17   S    
C9    N1    D    
O5    Zn1   S    
C14   C15   S    
C10   N2    D    
C25   H37   S    
N1    Zn2   S    
C7    C22   S    
C13   O8    A    
C3    C16   S    
C19   H23   S    
