data_mof_unit_66055.cif
_audit_creation_date              2012-12-10T21:25:13-0500
_audit_creation_method            fapswitch 2.2
_symmetry_space_group_name_H-M    P1
_symmetry_Int_Tables_number       1
_space_group_crystal_system       triclinic
_cell_length_a                    10.714971
_cell_length_b                    17.58281
_cell_length_c                    16.743549
_cell_angle_alpha                 90.453469
_cell_angle_beta                  89.828605
_cell_angle_gamma                 89.895058
_cell_volume                      3154.35455888

loop_
_atom_site_label
_atom_site_type_symbol
_atom_type_description
_atom_site_fract_x
_atom_site_fract_y
_atom_site_fract_z
_atom_type_partial_charge
C1    C     C_R   0.504295 0.353454 0.499489 0.923100
C2    C     C_R   0.495710 0.646547 0.500511 0.923096
C3    C     C_R   0.872537 0.499024 0.500828 -0.184116
C4    C     C_R   0.127463 0.500978 0.499174 -0.184121
C5    C     C_R   0.937188 0.449625 0.552259 -0.199815
C6    C     C_R   0.062812 0.550381 0.447747 -0.199825
C7    C     C_R   0.427389 0.847991 0.564059 0.474727
C8    C     C_R   0.572742 0.152021 0.435956 0.474746
C9    C     C_R   0.424594 0.768629 0.562394 0.180369
C10   C     C_R   0.575492 0.231384 0.437618 0.180335
C11   C     C_R   0.491147 0.728767 0.502175 -0.206151
C12   C     C_R   0.508892 0.271234 0.497824 -0.206163
C13   C     C_R   0.556934 0.768000 0.443309 -0.186814
C14   C     C_R   0.443103 0.231991 0.556682 -0.186800
C15   C     C_R   0.559517 0.846483 0.444626 -0.169463
C16   C     C_R   0.440562 0.153507 0.555367 -0.169458
C17   C     C_R   0.495865 0.886246 0.504438 -0.011025
C18   C     C_R   0.504260 0.113754 0.495567 -0.011036
C19   C     C_1   0.498993 0.966322 0.501378 -0.002472
C20   C     C_1   0.501155 0.033677 0.498624 -0.002484
C21   C     C_R   0.426848 0.449822 0.832735 -0.406703
C22   C     C_R   0.573160 0.550173 0.167265 -0.406695
C23   C     C_R   0.259838 0.501421 0.499868 0.986457
C24   C     C_R   0.740162 0.498579 0.500132 0.986445
C25   C     C_R   0.426679 0.449905 0.747988 0.617700
C26   C     C_R   0.573329 0.550091 0.252012 0.617707
C27   C     C_R   0.574451 0.549952 0.747685 -0.118786
C28   C     C_R   0.425541 0.450052 0.252315 -0.118781
C29   C     C_R   0.577370 0.551403 0.831896 0.100939
C30   C     C_R   0.422623 0.448602 0.168104 0.100934
C31   C     C_R   0.502202 0.500791 0.875595 0.040836
C32   C     C_R   0.497798 0.499209 0.124405 0.040838
C33   C     C_1   0.500828 0.500314 0.963452 0.069449
C34   C     C_1   0.499173 0.499686 0.036547 0.069449
C35   C     C_R   0.199589 0.732418 0.360715 0.214849
C36   C     C_R   0.800455 0.267580 0.639305 0.214823
C37   C     C_R   0.143526 0.683069 0.415807 0.410398
C38   C     C_R   0.856510 0.316930 0.584209 0.410488
C39   C     C_R   0.129901 0.604894 0.395169 -0.051621
C40   C     C_R   0.870106 0.395109 0.604838 -0.051608
C41   C     C_R   0.171819 0.578867 0.320139 -0.124084
C42   C     C_R   0.828172 0.421139 0.679865 -0.124158
C43   C     C_R   0.231094 0.628191 0.267489 -0.174549
C44   C     C_R   0.768905 0.371814 0.732518 -0.174532
C45   C     C_R   0.244769 0.704756 0.287651 -0.231642
C46   C     C_R   0.755258 0.295245 0.712364 -0.231638
C47   C     C_R   0.932871 0.549480 0.449164 0.426670
C48   C     C_R   0.067128 0.450528 0.550842 0.426631
H1    H     H_    0.288678 0.742990 0.245785 0.184030
H2    H     H_    0.711356 0.257010 0.754233 0.184032
H3    H     H_    0.611100 0.876326 0.398742 0.178216
H4    H     H_    0.388973 0.123657 0.601242 0.178219
H5    H     H_    0.368437 0.410190 0.864987 0.178458
H6    H     H_    0.631578 0.589802 0.135013 0.178457
H7    H     H_    0.632349 0.588845 0.714325 0.179145
H8    H     H_    0.367637 0.411163 0.285675 0.179145
H9    H     H_    0.159306 0.519884 0.302774 0.172186
H10   H     H_    0.840666 0.480125 0.697223 0.172188
H11   H     H_    0.264873 0.607215 0.210420 0.169134
H12   H     H_    0.735114 0.392791 0.789583 0.169132
H13   H     H_    0.608119 0.737821 0.396957 0.214722
H14   H     H_    0.391884 0.262162 0.603025 0.214717
N1    N     N_R   0.500030 0.500030 0.707230 -0.115478
N2    N     N_R   0.499970 0.499970 0.292770 -0.115480
O1    O     O_R   0.500000 0.389130 0.566570 -0.570319
O2    O     O_R   0.500000 0.610870 0.433430 -0.570334
O3    O     O_R   0.499990 0.389100 0.433480 -0.620848
O4    O     O_R   0.500010 0.610900 0.566520 -0.620851
O5    O     O_R   0.316760 0.500020 0.566540 -0.533182
O6    O     O_R   0.683240 0.499980 0.433460 -0.533161
O7    O     O_R   0.316760 0.499990 0.433460 -0.652163
O8    O     O_R   0.683240 0.500010 0.566540 -0.652169
Zn1   Zn    Zn3+2 0.500010 0.500020 0.588860 1.031082
Zn2   Zn    Zn3+2 0.499990 0.499980 0.411140 1.031088
O9    O     O_3   0.353475 0.399982 0.705103 -0.705340
H15   H     H_    0.306505 0.367480 0.742806 0.317605
O10   O     O_3   0.646540 0.600010 0.294897 -0.705327
H16   H     H_    0.693516 0.632508 0.257195 0.317610
I1    I     I_    0.696638 0.630506 0.889348 -0.310851
I2    I     I_    0.303342 0.369506 0.110651 -0.310854
I3    I     I_    0.211240 0.850470 0.384500 -0.238060
I4    I     I_    0.788848 0.149523 0.615535 -0.238039
O11   O     O_3   0.101110 0.713640 0.487183 -0.712647
H17   H     H_    0.070426 0.672735 0.522293 0.351047
O12   O     O_3   0.898945 0.286356 0.512840 -0.712621
H18   H     H_    0.929618 0.327261 0.477725 0.351059
O13   O     O_3   0.861006 0.598587 0.403800 -0.713343
H19   H     H_    0.911864 0.623660 0.362384 0.350686
O14   O     O_3   0.138989 0.401422 0.596208 -0.713325
H20   H     H_    0.088147 0.376408 0.637673 0.350686
O15   O     O_3   0.361184 0.885328 0.623758 -0.705237
H21   H     H_    0.372074 0.940970 0.619645 0.344131
O16   O     O_3   0.638992 0.114694 0.376271 -0.705224
H22   H     H_    0.628124 0.059050 0.380384 0.344134
I5    I     I_    0.310908 0.713268 0.649702 -0.171232
I6    I     I_    0.689173 0.286764 0.350321 -0.171268

loop_
_geom_bond_atom_site_label_1
_geom_bond_atom_site_label_2
_ccdc_geom_bond_type
C38   C40   A    
O13   H19   S    
O16   H22   S    
C27   C29   A    
C23   O5    A    
C19   C20   T    
C42   H10   S    
C35   I3    S    
C24   O6    A    
C22   H6    S    
O12   H18   S    
C21   C31   A    
C22   C32   A    
C35   C37   A    
C2    O4    A    
C27   H7    S    
O2    Zn2   S    
O1    Zn1   S    
C7    C9    A    
C25   N1    A    
C26   N2    A    
C1    O3    A    
O11   H17   S    
C36   I4    S    
C7    C17   A    
O6    Zn2   S    
C1    O1    A    
C31   C33   S    
C36   C46   A    
C15   H3    S    
C9    I5    S    
C43   H11   S    
C30   I2    S    
C40   C42   A    
C41   C43   A    
C3    C24   S    
C1    C12   S    
C42   C44   A    
C2    C11   S    
C44   C46   A    
C28   H8    S    
C5    C48   A    
C26   O10   S    
C6    C47   A    
C38   O12   S    
C23   O7    A    
C39   C41   A    
O15   H21   S    
C4    C23   S    
N1    Zn1   S    
C3    C5    A    
O4    Zn1   S    
O10   H16   S    
C8    C18   A    
C25   O9    S    
C47   O13   S    
O9    H15   S    
C21   H5    S    
C9    C11   A    
C45   H1    S    
C29   I1    S    
C10   I6    S    
C29   C31   A    
C7    O15   S    
C33   C34   T    
O3    Zn2   S    
O5    Zn1   S    
C43   C45   A    
C10   C12   A    
C28   N2    A    
C4    C6    A    
C12   C14   A    
C48   O14   S    
C13   C15   A    
C14   C16   A    
C36   C38   A    
C35   C45   A    
C24   O8    A    
C4    C48   A    
C15   C17   A    
C21   C25   A    
C16   C18   A    
C37   O11   S    
C8    O16   S    
C16   H4    S    
O8    Zn1   S    
C2    O2    A    
O7    Zn2   S    
C46   H2    S    
C28   C30   A    
C41   H9    S    
C37   C39   A    
C30   C32   A    
C11   C13   A    
C44   H12   S    
C3    C47   A    
C17   C19   S    
C18   C20   S    
C13   H13   S    
C8    C10   A    
C22   C26   A    
C5    C40   S    
N2    Zn2   S    
C6    C39   S    
C27   N1    A    
O14   H20   S    
C32   C34   S    
C14   H14   S    
