data_mof_unit_53236.cif
_audit_creation_date              2012-12-10T17:12:30-0500
_audit_creation_method            fapswitch 2.2
_symmetry_space_group_name_H-M    P1
_symmetry_Int_Tables_number       1
_space_group_crystal_system       triclinic
_cell_length_a                    11.65161
_cell_length_b                    12.991282
_cell_length_c                    11.831493
_cell_angle_alpha                 100.57594
_cell_angle_beta                  92.538156
_cell_angle_gamma                 92.439638
_cell_volume                      1756.43001518

loop_
_atom_site_label
_atom_site_type_symbol
_atom_type_description
_atom_site_fract_x
_atom_site_fract_y
_atom_site_fract_z
_atom_type_partial_charge
C1    C     C_R   0.501785 0.299036 0.478670 0.794783
C2    C     C_R   0.502763 0.700474 0.521581 0.787380
C3    C     C_R   0.399876 0.394144 0.021065 -0.323406
C4    C     C_R   0.599221 0.605524 0.979652 -0.351303
C5    C     C_R   0.398802 0.410035 0.142440 0.200786
C6    C     C_R   0.593074 0.596187 0.859093 0.224465
C7    C     C_R   0.558792 0.533003 0.154629 0.605483
C8    C     C_R   0.448151 0.459088 0.844865 0.571911
C9    C     C_R   0.540641 0.534321 0.033841 -0.126147
C10   C     C_R   0.462952 0.461758 0.966094 -0.082828
C11   C     C_R   0.284354 0.500025 0.501043 0.817126
C12   C     C_R   0.715632 0.499429 0.499468 0.798265
C13   C     C_1   0.162662 0.499509 0.503055 -0.228132
C14   C     C_1   0.837374 0.498119 0.500628 -0.224247
C15   C     C_1   0.060026 0.498652 0.503758 -0.013239
C16   C     C_1   0.940131 0.497898 0.502893 -0.013814
C17   C     C_R   0.499509 0.813701 0.532533 -0.113369
C18   C     C_R   0.504570 0.184442 0.467791 -0.108680
C19   C     C_R   0.500014 0.012212 0.343004 0.085131
C20   C     C_R   0.435596 0.978013 0.636269 0.081260
C21   C     C_R   0.497822 0.121643 0.357454 -0.272027
C22   C     C_R   0.442896 0.869738 0.624090 -0.233425
C23   C     C_R   0.508846 0.135918 0.566249 0.034510
C24   C     C_R   0.540175 0.863999 0.444667 0.008865
C25   C     C_R   0.480738 0.027952 0.549588 0.048529
C26   C     C_R   0.505304 0.966429 0.443024 0.071074
Cu1   Cu    Cu3+1 0.508350 0.507730 0.615930 0.938893
Cu2   Cu    Cu3+1 0.491650 0.492270 0.384070 0.950973
H1    H     H_    0.405222 0.829036 0.686564 0.151369
H2    H     H_    0.494274 0.158330 0.282443 0.170969
H3    H     H_    0.346576 0.332541 0.968097 0.187121
H4    H     H_    0.650369 0.669884 0.031413 0.161571
N1    N     N_R   0.520920 0.519350 0.790130 -0.229285
N2    N     N_R   0.479080 0.480650 0.209870 -0.219949
O1    O     O_R   0.505930 0.354460 0.582000 -0.545423
O2    O     O_R   0.494070 0.645540 0.418000 -0.556677
O3    O     O_R   0.491820 0.341410 0.386200 -0.613615
O4    O     O_R   0.508180 0.658590 0.613800 -0.598710
O5    O     O_R   0.344250 0.506540 0.597900 -0.575079
O6    O     O_R   0.655750 0.493460 0.402100 -0.535017
O7    O     O_R   0.330140 0.493480 0.402100 -0.596080
O8    O     O_R   0.669860 0.506520 0.597900 -0.598540
C27   C     C_3   0.640576 0.819488 0.374639 -0.354652
C28   C     C_3   0.744338 0.898601 0.386057 -0.383584
C29   C     C_3   0.847393 0.848746 0.326542 -0.842198
H5    H     H_    0.876110 0.783639 0.368205 0.252529
H6    H     H_    0.824493 0.818149 0.233953 0.251770
H7    H     H_    0.919721 0.908416 0.333422 0.241016
H8    H     H_    0.722501 0.966834 0.346494 0.227038
H9    H     H_    0.769066 0.927491 0.478696 0.219868
H10   H     H_    0.672549 0.750309 0.406751 0.224547
H11   H     H_    0.614592 0.791068 0.282857 0.209873
C30   C     C_3   0.567576 0.189287 0.681960 -0.386551
C31   C     C_3   0.693088 0.225489 0.669695 -0.314285
C32   C     C_3   0.746847 0.285289 0.784268 -0.842861
H12   H     H_    0.700204 0.357460 0.813424 0.260273
H13   H     H_    0.744110 0.235325 0.850983 0.243767
H14   H     H_    0.837958 0.308125 0.773480 0.242924
H15   H     H_    0.743581 0.155699 0.640304 0.204227
H16   H     H_    0.699587 0.277001 0.604949 0.225897
H17   H     H_    0.517285 0.254091 0.725175 0.246062
H18   H     H_    0.572387 0.133746 0.742773 0.180761
C33   C     C_3   0.485119 0.946473 0.222281 -0.410566
C34   C     C_3   0.381462 0.975881 0.151933 -0.339116
C35   C     C_3   0.361920 0.900192 0.036890 -0.880718
H19   H     H_    0.347686 0.818407 0.050698 0.257577
H20   H     H_    0.437383 0.904839 0.983628 0.248871
H21   H     H_    0.284814 0.921411 0.989488 0.248585
H22   H     H_    0.302749 0.973935 0.201473 0.228228
H23   H     H_    0.396062 0.055806 0.133397 0.215898
H24   H     H_    0.565034 0.954707 0.176081 0.192709
H25   H     H_    0.468117 0.863010 0.227074 0.208456
C36   C     C_3   0.369035 0.035368 0.734476 -0.430702
C37   C     C_3   0.243381 0.992910 0.728854 -0.327200
C38   C     C_3   0.173435 0.061534 0.816537 -0.869837
H26   H     H_    0.212833 0.067447 0.904799 0.255586
H27   H     H_    0.169300 0.141373 0.796044 0.255056
H28   H     H_    0.084444 0.026693 0.813845 0.243154
H29   H     H_    0.203564 0.990903 0.641246 0.226178
H30   H     H_    0.239418 0.911984 0.747058 0.210413
H31   H     H_    0.412157 0.027351 0.817921 0.191932
H32   H     H_    0.366924 0.120072 0.731688 0.220063
O9    O     O_3   0.359828 0.394794 0.782906 -0.628326
C39   C     C_3   0.255435 0.448502 0.785655 0.109648
H33   H     H_    0.210208 0.421965 0.700287 0.192314
H34   H     H_    0.268935 0.535666 0.799170 0.132182
C40   C     C_3   0.171893 0.419107 0.872457 -0.444483
H35   H     H_    0.165567 0.332640 0.865158 0.222379
H36   H     H_    0.201850 0.456911 0.961174 0.229703
C41   C     C_3   0.051943 0.456743 0.849916 -0.913545
H37   H     H_    0.054989 0.543537 0.859811 0.257182
H38   H     H_    0.992573 0.433073 0.912377 0.256777
H39   H     H_    0.017550 0.421371 0.761622 0.259753
O10   O     O_3   0.658008 0.579858 0.216624 -0.604373
C42   C     C_3   0.759416 0.549964 0.157623 0.012304
H40   H     H_    0.794910 0.617520 0.122594 0.150793
H41   H     H_    0.745170 0.480796 0.086005 0.136128
C43   C     C_3   0.852350 0.522591 0.239796 -0.299308
H42   H     H_    0.867440 0.589036 0.313373 0.227806
H43   H     H_    0.823137 0.450517 0.270254 0.231115
C44   C     C_3   0.965341 0.501262 0.181138 -0.945891
H44   H     H_    0.953597 0.431632 0.110818 0.255561
H45   H     H_    0.031755 0.485025 0.244832 0.265130
H46   H     H_    0.996167 0.570234 0.145523 0.260230
C45   C     C_3   0.669473 0.675933 0.814488 -0.333393
C46   C     C_3   0.628306 0.787728 0.849303 -0.376897
C47   C     C_3   0.698247 0.866295 0.795095 -0.851086
H47   H     H_    0.789818 0.870047 0.826624 0.248549
H48   H     H_    0.692954 0.843496 0.699793 0.257026
H49   H     H_    0.663863 0.945353 0.819000 0.241907
H50   H     H_    0.536267 0.789029 0.822012 0.231779
H51   H     H_    0.636515 0.813368 0.944287 0.206900
H52   H     H_    0.758577 0.673445 0.851461 0.157422
H53   H     H_    0.677379 0.659460 0.721687 0.250328
C48   C     C_3   0.301348 0.354718 0.194498 -0.332917
C49   C     C_3   0.243541 0.255274 0.118528 -0.456766
C50   C     C_3   0.166050 0.195172 0.187641 -0.853975
H54   H     H_    0.217408 0.168277 0.257073 0.250066
H55   H     H_    0.098186 0.245858 0.226384 0.262702
H56   H     H_    0.124234 0.125317 0.129872 0.247411
H57   H     H_    0.189110 0.277072 0.048108 0.228735
H58   H     H_    0.310148 0.202690 0.080700 0.221956
H59   H     H_    0.332270 0.329859 0.273049 0.253924
H60   H     H_    0.233635 0.411554 0.216635 0.200795

loop_
_geom_bond_atom_site_label_1
_geom_bond_atom_site_label_2
_ccdc_geom_bond_type
C28   H8    S    
C40   H35   S    
C44   H44   S    
C22   H1    S    
C8    O9    S    
C36   C37   S    
C42   H40   S    
C39   C40   S    
C32   H12   S    
C42   C43   S    
C46   H51   S    
C30   C31   S    
Cu1   N1    S    
C1    C18   S    
C49   H58   S    
C45   H52   S    
C19   C21   A    
C24   C26   A    
C50   H55   S    
C27   H11   S    
C46   C47   S    
Cu2   O6    S    
Cu1   O4    S    
C2    O2    A    
C48   C49   S    
C18   C21   A    
Cu2   O7    S    
C49   C50   S    
C19   C26   A    
C12   O8    A    
C30   H17   S    
Cu1   O5    S    
C35   H20   S    
C47   H47   S    
C34   H23   S    
C9    C10   A    
C1    O3    A    
C31   H15   S    
Cu2   N2    S    
C44   H45   S    
C37   H30   S    
C5    C48   S    
C2    C17   S    
C47   H48   S    
C36   H31   S    
C23   C30   S    
C46   H50   S    
C29   H6    S    
C17   C24   A    
C48   H59   S    
C37   C38   S    
C18   C23   A    
C45   H53   S    
C39   H33   S    
C4    C6    A    
C49   H57   S    
C50   H56   S    
C19   C33   S    
C31   H16   S    
Cu1   O1    S    
C25   C26   A    
C29   H5    S    
C12   O6    A    
C11   O5    A    
C38   H26   S    
C30   H18   S    
C2    O4    A    
C41   H38   S    
O9    C39   S    
C35   H21   S    
C5    N2    A    
C34   H22   S    
C3    H3    S    
C38   H27   S    
C4    H4    S    
C12   C14   S    
C43   H42   S    
C44   H46   S    
C43   H43   S    
C37   H29   S    
C32   H13   S    
C27   C28   S    
C47   H49   S    
C14   C16   T    
C40   C41   S    
C36   H32   S    
C28   C29   S    
C1    O1    A    
C41   H39   S    
C45   C46   S    
C29   H7    S    
C28   H9    S    
C7    C9    A    
C7    O10   S    
C31   C32   S    
C48   H60   S    
C20   C22   A    
C3    C5    A    
C42   H41   S    
C43   C44   S    
C21   H2    S    
C17   C22   A    
C6    N1    A    
C34   C35   S    
C13   C15   T    
C3    C10   A    
C50   H54   S    
C11   C13   S    
Cu1   O8    S    
C27   H10   S    
C41   H37   S    
Cu2   O3    S    
C7    N2    A    
C6    C45   S    
C20   C36   S    
C11   O7    A    
C8    N1    A    
C23   C25   A    
O10   C42   S    
C24   C27   S    
C38   H28   S    
C33   C34   S    
C33   H25   S    
Cu2   O2    S    
C8    C10   A    
C35   H19   S    
C20   C25   A    
C32   H14   S    
Cu1   Cu2   S    
C40   H36   S    
C39   H34   S    
C4    C9    A    
C33   H24   S    
C15   C16   S    
