data_mof_unit_41881.cif
_audit_creation_date              2012-12-10T20:31:05-0500
_audit_creation_method            fapswitch 2.2
_symmetry_space_group_name_H-M    P1
_symmetry_Int_Tables_number       1
_space_group_crystal_system       triclinic
_cell_length_a                    14.899095
_cell_length_b                    10.737438
_cell_length_c                    9.865354
_cell_angle_alpha                 89.392823
_cell_angle_beta                  89.226916
_cell_angle_gamma                 89.740169
_cell_volume                      1577.99317878

loop_
_atom_site_label
_atom_site_type_symbol
_atom_type_description
_atom_site_fract_x
_atom_site_fract_y
_atom_site_fract_z
_atom_type_partial_charge
C1    C     C_R   0.500464 0.260434 0.500550 0.902552
C2    C     C_R   0.907063 0.572582 0.404927 0.084225
C3    C     C_R   0.953291 0.320473 0.660439 0.258528
C4    C     C_R   0.046603 0.319814 0.656642 -0.243293
C5    C     C_R   0.093278 0.405602 0.575101 0.061729
C6    C     C_R   0.046806 0.490642 0.491109 0.021406
C7    C     C_R   0.093863 0.578048 0.408588 0.054354
C8    C     C_R   0.046715 0.661523 0.324175 0.256073
C9    C     C_R   0.953620 0.656967 0.321699 -0.247676
C10   C     C_R   0.186042 0.409516 0.578416 -0.196429
C11   C     C_R   0.231527 0.497487 0.499833 -0.087071
C12   C     C_R   0.326952 0.499282 0.500530 0.884705
C13   C     C_R   0.186847 0.579888 0.414058 -0.224062
C14   C     C_R   0.517525 0.060132 0.616222 -0.016000
C15   C     C_R   0.499844 0.129091 0.499951 -0.074159
C16   C     C_R   0.480795 0.066206 0.378941 -0.216322
C17   C     C_R   0.480153 0.937004 0.377733 -0.178200
C18   C     C_R   0.497945 0.870525 0.497705 -0.099228
C19   C     C_R   0.515756 0.935516 0.614333 -0.087924
C20   C     C_3   0.538619 0.921605 0.761193 0.583808
C21   C     C_3   0.539937 0.066453 0.764170 0.205064
C22   C     C_R   0.421885 0.488957 0.073190 0.155130
C23   C     C_R   0.498931 0.739401 0.499322 0.883375
C24   C     C_R   0.575740 0.526970 0.070053 -0.114778
C25   C     C_R   0.575875 0.526336 0.926062 -0.060237
C26   C     C_R   0.421082 0.492843 0.930798 0.107511
C27   C     C_3   0.351570 0.391069 0.930279 0.267407
C28   C     C_3   0.356165 0.385551 0.084407 -0.530726
C29   C     C_R   0.673047 0.498953 0.499075 0.879777
C30   C     C_R   0.814367 0.572377 0.405747 -0.254758
C31   C     C_R   0.768459 0.494849 0.496170 -0.070191
C32   C     C_R   0.812914 0.412083 0.581905 -0.213327
C33   C     C_R   0.906109 0.406117 0.578556 0.057895
C34   C     C_R   0.953382 0.489297 0.491120 0.028142
H1    H     H_    0.777681 0.635901 0.340209 0.143221
H2    H     H_    0.465385 0.890053 0.283998 0.192966
H3    H     H_    0.485291 0.111503 0.824548 0.087548
H4    H     H_    0.637372 0.545947 0.122435 0.150588
H5    H     H_    0.637668 0.544537 0.870877 0.156143
H6    H     H_    0.377045 0.304744 0.881447 0.118792
H7    H     H_    0.293141 0.414203 0.137274 0.231103
H8    H     H_    0.773918 0.351980 0.648736 0.201731
H9    H     H_    0.386978 0.298070 0.123734 0.179453
H10   H     H_    0.082757 0.254464 0.720465 0.199748
H11   H     H_    0.223065 0.343947 0.640910 0.184610
H12   H     H_    0.225595 0.645278 0.353169 0.196066
H13   H     H_    0.917487 0.721405 0.256764 0.180286
H14   H     H_    0.466013 0.116046 0.285751 0.172397
N1    N     N_R   0.499390 0.499140 0.142800 -0.100664
N2    N     N_R   0.499390 0.499180 0.857150 -0.122105
O1    O     O_R   0.500010 0.316790 0.614690 -0.613494
O2    O     O_R   0.500000 0.316760 0.385350 -0.632053
O3    O     O_R   0.367850 0.499990 0.614680 -0.616182
O4    O     O_R   0.367840 0.499950 0.385340 -0.617536
O5    O     O_R   0.500000 0.683240 0.614650 -0.573077
O6    O     O_R   0.499990 0.683210 0.385310 -0.622891
O7    O     O_R   0.632160 0.500050 0.614660 -0.627487
O8    O     O_R   0.632150 0.500010 0.385320 -0.635691
Zn1   Zn    Zn3+2 0.500010 0.500020 0.653130 0.986753
Zn2   Zn    Zn3+2 0.499990 0.499980 0.346870 0.950326
Br1   Br    Br    0.439433 0.853567 0.867880 -0.557473
O9    O     O_3   0.621234 0.861099 0.795012 -0.625823
C35   C     C_3   0.687332 0.861071 0.690301 0.114835
H15   H     H_    0.696708 0.955437 0.645084 0.191613
H16   H     H_    0.668300 0.795306 0.609510 0.125302
C36   C     C_3   0.776545 0.817053 0.749174 -0.342706
H17   H     H_    0.791328 0.870668 0.841957 0.243479
H18   H     H_    0.771410 0.716834 0.777670 0.219648
C37   C     C_3   0.853700 0.834637 0.647547 -0.876261
H19   H     H_    0.865573 0.935378 0.628468 0.296979
H20   H     H_    0.837955 0.789592 0.550237 0.256682
H21   H     H_    0.915940 0.792221 0.688472 0.269117
O10   O     O_3   0.625692 0.118432 0.783960 -0.621553
C38   C     C_3   0.650339 0.106602 0.921840 0.159432
H22   H     H_    0.722265 0.079212 0.924263 0.200019
H23   H     H_    0.612751 0.033091 0.979585 0.151767
C39   C     C_3   0.638878 0.230847 0.993661 -0.383978
H24   H     H_    0.678504 0.303134 0.938406 0.248240
H25   H     H_    0.566839 0.258092 0.993549 0.209445
C40   C     C_3   0.670935 0.222034 0.139875 -0.899450
H26   H     H_    0.632273 0.150138 0.197117 0.260767
H27   H     H_    0.661064 0.312817 0.190599 0.284006
H28   H     H_    0.743462 0.197807 0.142112 0.276879
O11   O     O_3   0.263561 0.422622 0.885012 -0.628141
C41   C     C_3   0.240972 0.550989 0.893495 0.141082
H29   H     H_    0.269234 0.600488 0.803233 0.192355
H30   H     H_    0.266803 0.595458 0.986457 0.148744
C42   C     C_3   0.138695 0.565575 0.897711 -0.345815
H31   H     H_    0.107092 0.494459 0.833874 0.250028
H32   H     H_    0.113861 0.550446 0.003367 0.237662
C43   C     C_3   0.109214 0.694165 0.847607 -0.846433
H33   H     H_    0.142996 0.768223 0.905476 0.304434
H34   H     H_    0.035455 0.704306 0.861255 0.267025
H35   H     H_    0.126055 0.705611 0.738110 0.259452
Br2   Br    Br    0.894775 0.202647 0.779797 -0.573208
Br3   Br    Br    0.104816 0.785971 0.212899 -0.556000

loop_
_geom_bond_atom_site_label_1
_geom_bond_atom_site_label_2
_ccdc_geom_bond_type
C36   H18   S    
C35   H16   S    
O5    Zn1   S    
O10   C38   S    
C19   C20   S    
C8    Br3   S    
C16   H14   S    
O3    Zn1   S    
C7    C8    A    
O4    Zn2   S    
C39   H24   S    
C26   C27   S    
N1    Zn2   S    
C38   H23   S    
C30   H1    S    
N2    Zn1   S    
C14   C21   S    
C27   O11   S    
C26   N2    A    
C30   C31   A    
O7    Zn1   S    
C36   C37   S    
C3    C33   A    
O8    Zn2   S    
C15   C16   A    
C21   O10   S    
C28   H7    S    
C18   C19   A    
C20   Br1   S    
C37   H20   S    
C25   N2    A    
O2    Zn2   S    
C8    C9    A    
C38   C39   S    
C24   H4    S    
C1    C15   S    
C17   H2    S    
C12   O3    A    
C42   H31   S    
C2    C34   A    
C39   H25   S    
C36   H17   S    
C35   C36   S    
C22   C28   S    
C40   H28   S    
C33   C34   A    
C41   H30   S    
C38   H22   S    
C18   C23   S    
C23   O6    A    
O11   C41   S    
C40   H27   S    
C43   H33   S    
C16   C17   A    
C4    H10   S    
C41   H29   S    
C6    C34   A    
C37   H21   S    
O9    C35   S    
C43   H34   S    
C31   C32   A    
C42   C43   S    
C7    C13   A    
C27   H6    S    
C20   C21   S    
C10   H11   S    
C17   C18   A    
C24   C25   A    
C1    O1    A    
C22   N1    A    
C42   H32   S    
C9    H13   S    
O1    Zn1   S    
C3    C4    A    
C41   C42   S    
C39   C40   S    
C24   N1    A    
C14   C19   A    
C29   O7    A    
C40   H26   S    
C11   C12   S    
C23   O5    A    
C6    C7    A    
C28   H9    S    
C2    C30   A    
C32   C33   A    
C5    C10   A    
C29   C31   S    
C25   H5    S    
C43   H35   S    
C11   C13   A    
C5    C6    A    
C13   H12   S    
C20   O9    S    
C37   H19   S    
C1    O2    A    
C10   C11   A    
C35   H15   S    
O6    Zn2   S    
C4    C5    A    
C21   H3    S    
C29   O8    A    
C22   C26   A    
C27   C28   S    
C32   H8    S    
C14   C15   A    
C3    Br2   S    
C2    C9    A    
C12   O4    A    
