data_mof_unit_18000.cif
_audit_creation_date              2012-12-10T16:39:28-0500
_audit_creation_method            fapswitch 2.2
_symmetry_space_group_name_H-M    P1
_symmetry_Int_Tables_number       1
_space_group_crystal_system       triclinic
_cell_length_a                    17.051843
_cell_length_b                    16.729174
_cell_length_c                    16.884052
_cell_angle_alpha                 65.887425
_cell_angle_beta                  65.541274
_cell_angle_gamma                 65.680229
_cell_volume                      3827.11896494

loop_
_atom_site_label
_atom_site_type_symbol
_atom_type_description
_atom_site_fract_x
_atom_site_fract_y
_atom_site_fract_z
_atom_type_partial_charge
C1    C     C_R   0.323170 0.955190 0.457880 0.061982
C2    C     C_R   0.689870 0.995068 0.562548 0.054747
C3    C     C_R   0.008157 0.435518 0.309330 0.051137
C4    C     C_R   0.057994 0.537808 0.673818 0.056462
C5    C     C_R   0.460723 0.331066 0.935103 0.061426
C6    C     C_R   0.546296 0.673422 0.044389 0.063968
C7    C     C_R   0.546684 0.040580 0.675078 0.065438
C8    C     C_R   0.460152 0.938332 0.329672 0.063596
C9    C     C_R   0.689938 0.562591 0.995585 0.053796
C10   C     C_R   0.323057 0.458629 0.955268 0.062941
C11   C     C_R   0.070102 0.668001 0.537114 0.058920
C12   C     C_R   0.961929 0.324497 0.454217 0.064177
C13   C     C_R   0.461046 0.964565 0.462428 -0.051445
C14   C     C_R   0.550879 0.996131 0.550878 -0.051298
C15   C     C_R   0.011579 0.445998 0.447871 -0.052160
C16   C     C_R   0.047562 0.533010 0.536030 -0.052636
C17   C     C_R   0.461320 0.463405 0.963384 -0.051713
C18   C     C_R   0.550976 0.550624 0.996978 -0.052079
C19   C     C_R   0.963818 0.179558 0.437671 0.926775
C20   C     C_R   0.038814 0.820393 0.561486 0.896617
C21   C     C_R   0.178888 0.435720 0.967482 0.903028
C22   C     C_R   0.824445 0.569617 0.018696 0.939154
C23   C     C_R   0.437543 0.963166 0.179295 0.898665
C24   C     C_R   0.563061 0.035176 0.820861 0.897259
C25   C     C_R   0.562430 0.820685 0.036474 0.899337
C26   C     C_R   0.438149 0.179403 0.962086 0.901636
C27   C     C_R   0.035859 0.562825 0.820793 0.908705
C28   C     C_R   0.981327 0.430474 0.175614 0.939982
C29   C     C_R   0.824514 0.018830 0.569370 0.920818
C30   C     C_R   0.178700 0.967564 0.435723 0.912921
C31   C     C_R   0.414825 0.952432 0.416667 0.064823
C32   C     C_R   0.595647 0.011784 0.595403 0.065446
C33   C     C_R   0.992645 0.402854 0.404022 0.068162
C34   C     C_R   0.059434 0.579366 0.582090 0.067515
C35   C     C_R   0.415110 0.417859 0.950735 0.065890
C36   C     C_R   0.595590 0.594623 0.013605 0.068109
C37   C     C_R   0.276074 0.950303 0.406747 -0.107891
C38   C     C_R   0.731520 0.019162 0.604972 -0.101410
C39   C     C_R   0.981112 0.394658 0.268695 -0.108482
C40   C     C_R   0.057938 0.590827 0.722397 -0.110040
C41   C     C_R   0.408835 0.279350 0.939830 -0.119301
C42   C     C_R   0.594494 0.722212 0.050361 -0.118273
C43   C     C_R   0.595250 0.046984 0.723234 -0.114504
C44   C     C_R   0.408137 0.942319 0.278651 -0.115501
C45   C     C_R   0.731341 0.604873 0.020267 -0.109340
C46   C     C_R   0.276204 0.407157 0.949808 -0.103082
C47   C     C_R   0.063150 0.720298 0.590187 -0.115288
C48   C     C_R   0.952082 0.277508 0.406074 -0.122165
C49   C     C_R   0.451941 0.058615 0.705176 -0.241530
C50   C     C_R   0.555334 0.919598 0.298307 -0.244352
C51   C     C_R   0.087583 0.700034 0.441398 -0.254084
C52   C     C_R   0.946374 0.293754 0.549464 -0.241885
C53   C     C_R   0.738396 0.490760 0.953198 -0.244637
C54   C     C_R   0.282391 0.548461 0.966293 -0.259056
C55   C     C_R   0.283049 0.963788 0.547987 -0.242738
C56   C     C_R   0.737992 0.954469 0.489667 -0.243129
C57   C     C_R   0.555968 0.300098 0.914843 -0.244380
C58   C     C_R   0.451547 0.702927 0.064062 -0.241151
C59   C     C_R   0.050163 0.506965 0.259604 -0.245412
C60   C     C_R   0.053942 0.445849 0.713407 -0.253093
C61   C     C_R   0.320013 0.941298 0.320403 -0.315709
C62   C     C_R   0.683526 0.045614 0.682819 -0.315705
C63   C     C_R   0.951925 0.318469 0.317733 -0.308132
C64   C     C_R   0.064297 0.678691 0.679035 -0.308988
C65   C     C_R   0.320578 0.320796 0.939380 -0.313979
C66   C     C_R   0.682867 0.682112 0.048526 -0.307343
C67   C     C_R   0.693404 0.944799 0.441960 0.101790
C68   C     C_R   0.323998 0.989422 0.586323 0.099113
C69   C     C_R   0.027061 0.407217 0.673595 0.107615
C70   C     C_R   0.061392 0.554780 0.303577 0.104304
C71   C     C_R   0.408250 0.663530 0.041860 0.114574
C72   C     C_R   0.602754 0.348388 0.921590 0.111537
C73   C     C_R   0.602024 0.926210 0.346428 0.109369
C74   C     C_R   0.408713 0.037105 0.665146 0.109965
C75   C     C_R   0.323577 0.586331 0.992220 0.103379
C76   C     C_R   0.693983 0.443459 0.942094 0.104215
C77   C     C_R   0.972357 0.331431 0.591509 0.114098
C78   C     C_R   0.081740 0.650968 0.394352 0.110349
C79   C     C_R   0.741665 0.913520 0.364379 -0.200573
C80   C     C_R   0.275858 0.015506 0.666776 -0.200833
C81   C     C_R   0.001307 0.326587 0.722687 -0.217663
C82   C     C_R   0.091813 0.632809 0.254340 -0.196176
C83   C     C_R   0.316476 0.702505 0.048183 -0.196331
C84   C     C_R   0.697133 0.318791 0.899908 -0.204715
C85   C     C_R   0.696301 0.905883 0.316163 -0.202467
C86   C     C_R   0.317114 0.042182 0.704144 -0.199130
C87   C     C_R   0.275280 0.666148 0.020289 -0.215188
C88   C     C_R   0.742437 0.366877 0.908500 -0.197390
C89   C     C_R   0.970754 0.290943 0.682924 -0.205066
C90   C     C_R   0.100177 0.681597 0.299509 -0.210436
C91   C     C_R   0.553920 0.953395 0.426405 0.031865
C92   C     C_R   0.457945 0.007640 0.586519 0.030237
C93   C     C_R   0.002672 0.409416 0.541007 0.030293
C94   C     C_R   0.056263 0.569946 0.443023 0.031895
C95   C     C_R   0.414079 0.544620 0.989388 0.037572
C96   C     C_R   0.599772 0.473396 0.964149 0.033406
C97   C     C_R   0.599323 0.965769 0.472522 0.034012
C98   C     C_R   0.414164 0.988164 0.544481 0.034531
C99   C     C_R   0.457792 0.585921 0.009915 0.028826
C100  C     C_R   0.554458 0.427710 0.950769 0.030970
C101  C     C_R   0.025142 0.450257 0.583690 0.034922
C102  C     C_R   0.042350 0.524018 0.398189 0.032676
H1    H     H_    0.278195 0.063768 0.765219 0.134416
H2    H     H_    0.735047 0.883612 0.255474 0.138764
H3    H     H_    0.121188 0.743034 0.260279 0.133026
H4    H     H_    0.948677 0.230172 0.722696 0.130486
H5    H     H_    0.815317 0.342951 0.890700 0.139030
H6    H     H_    0.205055 0.699169 0.022715 0.124368
H7    H     H_    0.205638 0.017488 0.699524 0.134419
H8    H     H_    0.814488 0.896677 0.339885 0.140174
H9    H     H_    0.735965 0.258699 0.875998 0.134223
H10   H     H_    0.277430 0.762925 0.071541 0.130587
H11   H     H_    0.106568 0.657614 0.181164 0.134705
H12   H     H_    0.001704 0.293076 0.792720 0.128243
O1    O     O_R   0.982940 0.138950 0.510160 -0.634560
O2    O     O_R   0.017060 0.861050 0.489840 -0.645961
O3    O     O_R   0.138950 0.510160 0.982940 -0.663565
O4    O     O_R   0.861050 0.489840 0.017060 -0.640302
O5    O     O_R   0.510160 0.982940 0.138950 -0.629421
O6    O     O_R   0.489840 0.017060 0.861050 -0.632780
O7    O     O_R   0.489840 0.861050 0.017060 -0.630360
O8    O     O_R   0.510160 0.138950 0.982940 -0.627311
O9    O     O_R   0.017060 0.489840 0.861050 -0.657868
O10   O     O_R   0.982940 0.510160 0.138950 -0.642999
O11   O     O_R   0.861050 0.017060 0.489840 -0.644203
O12   O     O_R   0.138950 0.982940 0.510160 -0.646609
O13   O     O_R   0.867700 0.025880 0.612340 -0.634932
O14   O     O_R   0.132300 0.974120 0.387660 -0.631456
O15   O     O_R   0.025880 0.612340 0.867700 -0.633101
O16   O     O_R   0.974120 0.387660 0.132300 -0.622243
O17   O     O_R   0.612340 0.867700 0.025880 -0.627131
O18   O     O_R   0.387660 0.132300 0.974120 -0.627728
O19   O     O_R   0.387660 0.974120 0.132300 -0.627927
O20   O     O_R   0.612340 0.025880 0.867700 -0.628083
O21   O     O_R   0.132300 0.387660 0.974120 -0.634642
O22   O     O_R   0.867700 0.612340 0.025880 -0.623040
O23   O     O_R   0.974120 0.132300 0.387660 -0.615858
O24   O     O_R   0.025880 0.867700 0.612340 -0.631405
Zn1   Zn    Zn3+2 0.004880 0.004880 0.583590 0.921676
Zn2   Zn    Zn3+2 0.995120 0.995120 0.416410 0.929215
Zn3   Zn    Zn3+2 0.004880 0.583590 0.004880 0.918752
Zn4   Zn    Zn3+2 0.995120 0.416410 0.995120 0.923561
Zn5   Zn    Zn3+2 0.583590 0.004880 0.004880 0.937037
Zn6   Zn    Zn3+2 0.416410 0.995120 0.995120 0.931778
H13   H     H_    0.282476 0.941064 0.282035 0.192183
H14   H     H_    0.717291 0.058846 0.716354 0.190459
H15   H     H_    0.936119 0.285941 0.284503 0.193539
H16   H     H_    0.061451 0.718432 0.717838 0.194809
H17   H     H_    0.283180 0.281935 0.939035 0.193005
H18   H     H_    0.716423 0.715951 0.061961 0.191527
H19   H     H_    0.410130 0.090155 0.759323 0.168161
H20   H     H_    0.594758 0.895971 0.238679 0.167988
H21   H     H_    0.108649 0.761256 0.402143 0.168015
H22   H     H_    0.913872 0.240677 0.592403 0.167870
H23   H     H_    0.810702 0.471426 0.925436 0.181135
H24   H     H_    0.219899 0.593798 0.953444 0.185618
H25   H     H_    0.221322 0.948704 0.593199 0.183543
H26   H     H_    0.810255 0.926717 0.469750 0.183554
H27   H     H_    0.595013 0.240443 0.890517 0.164486
H28   H     H_    0.410191 0.756695 0.096625 0.164603
H29   H     H_    0.077031 0.526036 0.186637 0.181253
H30   H     H_    0.071705 0.401324 0.774568 0.180218

loop_
_geom_bond_atom_site_label_1
_geom_bond_atom_site_label_2
_ccdc_geom_bond_type
O18   Zn6   S    
C83   C87   A    
C30   O12   A    
C9    C45   A    
C29   O11   A    
C18   C96   A    
C6    C58   A    
C11   C47   A    
O6    Zn6   S    
C12   C48   A    
C55   C68   A    
C75   C95   A    
C78   C90   A    
C77   C89   A    
C16   C101  A    
C17   C35   A    
C66   H18   S    
C15   C33   A    
C20   O24   A    
C23   O5    A    
C95   C99   A    
C58   C71   A    
O15   Zn3   S    
C3    C33   A    
C10   C54   A    
C52   H22   S    
C96   C100  A    
C1    C31   A    
O5    Zn5   S    
C2    C32   A    
C74   C92   A    
C13   C98   A    
C61   H13   S    
C21   O3    A    
C16   C34   A    
O20   Zn5   S    
C30   O14   A    
C87   H6    S    
C4    C40   A    
C80   H7    S    
C10   C46   A    
C9    C36   A    
C56   H26   S    
C43   C62   A    
C10   C35   A    
C17   C95   A    
C7    C43   A    
C76   C88   A    
C1    C37   A    
C81   C89   A    
C57   H27   S    
C3    C39   A    
C15   C102  A    
C13   C91   A    
C65   H17   S    
C82   H11   S    
O7    Zn6   S    
O13   Zn1   S    
O8    Zn5   S    
C70   C82   A    
C86   H1    S    
O17   Zn5   S    
C63   H15   S    
C12   C52   A    
C14   C92   A    
C71   C83   A    
O21   Zn4   S    
O11   Zn2   S    
O23   Zn2   S    
C4    C34   A    
O12   Zn1   S    
C24   O6    A    
C84   H9    S    
C23   O19   A    
C92   C98   A    
C8    C44   A    
C29   C38   S    
C67   C79   A    
C73   C91   A    
C46   C65   A    
C50   C73   A    
C93   C101  A    
C47   C64   A    
C20   O2    A    
C88   H5    S    
C49   H19   S    
C19   C48   S    
C48   C63   A    
C41   C65   A    
C28   C39   S    
C71   C99   A    
C91   C97   A    
C23   C44   S    
C30   C37   S    
C22   O22   A    
C81   H12   S    
O3    Zn3   S    
O22   Zn3   S    
C59   H29   S    
C2    C38   A    
C60   H30   S    
C19   O1    A    
C27   C40   S    
C19   O23   A    
C73   C85   A    
C4    C60   A    
C70   C102  A    
C74   C86   A    
C7    C49   A    
C72   C84   A    
C85   H2    S    
C69   C81   A    
C75   C87   A    
O1    Zn1   S    
C53   H23   S    
C29   O13   A    
C62   H14   S    
C27   O15   A    
C89   H4    S    
O10   Zn3   S    
C53   C76   A    
C9    C53   A    
C18   C99   A    
C68   C80   A    
C25   O17   A    
C8    C50   A    
C79   C85   A    
C26   O18   A    
C14   C97   A    
C21   C46   S    
C72   C100  A    
C24   O20   A    
C22   O4    A    
C5    C41   A    
C51   H21   S    
O19   Zn6   S    
C27   O9    A    
C7    C32   A    
C79   H8    S    
C49   C74   A    
C8    C31   A    
C13   C31   A    
C11   C34   A    
C84   C88   A    
C90   H3    S    
C14   C32   A    
O4    Zn4   S    
C40   C64   A    
C25   C42   S    
C15   C93   A    
C37   C61   A    
C28   O10   A    
C69   C101  A    
C44   C61   A    
C56   C67   A    
C39   C63   A    
C16   C94   A    
C82   C90   A    
C5    C57   A    
O14   Zn2   S    
C51   C78   A    
C58   H28   S    
C76   C96   A    
C54   H24   S    
C25   O7    A    
C60   C69   A    
C78   C94   A    
C5    C35   A    
O9    Zn4   S    
C77   C93   A    
C6    C36   A    
C28   O16   A    
C57   C72   A    
C1    C55   A    
O16   Zn4   S    
C17   C100  A    
C68   C98   A    
C20   C47   S    
C11   C51   A    
O24   Zn1   S    
C67   C97   A    
C59   C70   A    
C54   C75   A    
C50   H20   S    
C80   C86   A    
C55   H25   S    
C22   C45   S    
C94   C102  A    
C6    C42   A    
C45   C66   A    
C42   C66   A    
C24   C43   S    
C83   H10   S    
C2    C56   A    
C26   O8    A    
O2    Zn2   S    
C12   C33   A    
C18   C36   A    
C21   O21   A    
C64   H16   S    
C52   C77   A    
C26   C41   S    
C38   C62   A    
C3    C59   A    
