data_mof_unit_40115.cif
_audit_creation_date              2012-12-10T17:04:31-0500
_audit_creation_method            fapswitch 2.2
_symmetry_space_group_name_H-M    P1
_symmetry_Int_Tables_number       1
_space_group_crystal_system       triclinic
_cell_length_a                    14.932303
_cell_length_b                    10.725547
_cell_length_c                    10.029138
_cell_angle_alpha                 90.302412
_cell_angle_beta                  90.053037
_cell_angle_gamma                 90.159285
_cell_volume                      1606.20854405

loop_
_atom_site_label
_atom_site_type_symbol
_atom_type_description
_atom_site_fract_x
_atom_site_fract_y
_atom_site_fract_z
_atom_type_partial_charge
C1    C     C_R   0.499173 0.262633 0.499499 0.921057
C2    C     C_R   0.906109 0.572192 0.421768 0.120356
C3    C     C_R   0.958105 0.306754 0.649257 -0.230212
C4    C     C_R   0.050860 0.313365 0.651864 -0.222809
C5    C     C_R   0.095385 0.403208 0.576836 0.126837
C6    C     C_R   0.046921 0.487984 0.497932 0.068680
C7    C     C_R   0.092218 0.577238 0.419342 0.122936
C8    C     C_R   0.044283 0.662695 0.342802 -0.217865
C9    C     C_R   0.951405 0.660815 0.344850 -0.208336
C10   C     C_R   0.187989 0.409605 0.578930 -0.262339
C11   C     C_R   0.231725 0.496837 0.499742 -0.056952
C12   C     C_R   0.327037 0.500045 0.499940 0.892302
C13   C     C_R   0.184960 0.579597 0.419229 -0.261950
C14   C     C_2   0.516777 0.932820 0.388249 -0.164080
C15   C     C_2   0.516599 0.868528 0.501775 -0.343811
C16   C     C_2   0.521367 0.067110 0.390680 -0.154464
C17   C     C_2   0.494598 0.130703 0.498168 -0.333346
C18   C     C_2   0.555422 0.565935 0.925400 -0.127862
C19   C     C_2   0.551986 0.571199 0.075450 -0.130562
C20   C     C_R   0.503697 0.737284 0.500325 0.936529
C21   C     C_R   0.672797 0.493749 0.500055 0.875889
C22   C     C_R   0.813992 0.572175 0.425092 -0.292699
C23   C     C_R   0.768278 0.483625 0.499756 -0.087002
C24   C     C_R   0.813189 0.388016 0.569839 0.039209
C25   C     C_R   0.907706 0.391714 0.572928 0.097115
C26   C     C_R   0.953430 0.483880 0.497734 0.023354
H1    H     H_    0.777149 0.642488 0.370211 0.149432
H2    H     H_    0.528136 0.911291 0.598478 0.150693
H3    H     H_    0.544517 0.113940 0.301211 0.168270
H4    H     H_    0.467355 0.087225 0.586643 0.146212
H5    H     H_    0.606112 0.621778 0.876182 0.161188
H6    H     H_    0.449945 0.453442 0.897482 0.163553
H7    H     H_    0.596366 0.636653 0.125479 0.155301
H8    H     H_    0.462306 0.434709 0.101733 0.162914
H9    H     H_    0.927345 0.234885 0.708770 0.158965
H10   H     H_    0.087858 0.247589 0.712216 0.148042
H11   H     H_    0.226311 0.345309 0.639536 0.144449
H12   H     H_    0.220907 0.646919 0.358939 0.147963
H13   H     H_    0.078570 0.731490 0.282561 0.147717
H14   H     H_    0.914942 0.728527 0.286276 0.144149
H15   H     H_    0.512274 0.887178 0.291484 0.172352
N1    N     N_2   0.500970 0.501330 0.852150 -0.193631
N2    N     N_2   0.500990 0.501360 0.147810 -0.193512
O1    O     O_R   0.499990 0.319060 0.613040 -0.628719
O2    O     O_R   0.500010 0.319100 0.386900 -0.613704
O3    O     O_R   0.367830 0.499950 0.613080 -0.616358
O4    O     O_R   0.367860 0.499990 0.386940 -0.614021
O5    O     O_R   0.499990 0.680900 0.613100 -0.612806
O6    O     O_R   0.500010 0.680940 0.386960 -0.615862
O7    O     O_R   0.632140 0.500010 0.613060 -0.627005
O8    O     O_R   0.632170 0.500050 0.386920 -0.614562
Zn1   Zn    Zn3+2 0.499980 0.499970 0.650990 0.936079
Zn2   Zn    Zn3+2 0.500020 0.500030 0.349010 0.940340
C27   C     C_3   0.761616 0.279906 0.633124 -0.428385
C28   C     C_3   0.770163 0.160542 0.548814 -0.354348
C29   C     C_3   0.727945 0.049133 0.619217 -0.873085
H16   H     H_    0.764876 0.028750 0.712758 0.256037
H17   H     H_    0.656813 0.068487 0.643537 0.266134
H18   H     H_    0.730893 0.965789 0.553196 0.254770
H19   H     H_    0.735744 0.174458 0.451651 0.224819
H20   H     H_    0.841499 0.138920 0.528105 0.230415
H21   H     H_    0.784713 0.265002 0.737016 0.198391
H22   H     H_    0.689306 0.298646 0.643328 0.227838

loop_
_geom_bond_atom_site_label_1
_geom_bond_atom_site_label_2
_ccdc_geom_bond_type
C2    C22   A    
O7    Zn1   S    
C28   C29   S    
C4    H10   S    
C9    H14   S    
C20   O6    A    
C8    H13   S    
C10   H11   S    
C27   H22   S    
C1    O1    A    
C1    C17   S    
C14   C15   D    
C29   H18   S    
C3    H9    S    
C23   C24   A    
O1    Zn1   S    
C21   C23   S    
C15   H2    S    
O2    Zn2   S    
C7    C8    A    
C2    C26   A    
C20   O5    A    
C28   H19   S    
C29   H16   S    
C17   H4    S    
C11   C13   A    
C1    O2    A    
C13   H12   S    
C6    C7    A    
C14   H15   S    
O6    Zn2   S    
O4    Zn2   S    
C28   H20   S    
C5    C10   A    
C21   O7    A    
C29   H17   S    
O5    Zn1   S    
C22   H1    S    
C18   N1    D    
C5    C6    A    
C14   C16   S    
C21   O8    A    
C16   C17   D    
C10   C11   A    
C24   C27   S    
C3    C4    A    
C11   C12   S    
O3    Zn1   S    
C7    C13   A    
C3    C25   A    
C24   C25   A    
C16   H3    S    
C12   O3    A    
C18   C19   S    
C19   H7    S    
N1    Zn1   S    
H6    N1    S    
C6    C26   A    
C8    C9    A    
C18   H5    S    
C27   H21   S    
C25   C26   A    
C27   C28   S    
C2    C9    A    
N2    Zn2   S    
C15   C20   S    
C22   C23   A    
H8    N2    S    
C12   O4    A    
C19   N2    D    
C4    C5    A    
O8    Zn2   S    
