data_mof_unit_56198.cif
_audit_creation_date              2012-10-26T20:26:14-0400
_audit_creation_method            fapswitch 2.2
_symmetry_space_group_name_H-M    P1
_symmetry_Int_Tables_number       1
_space_group_crystal_system       triclinic
_cell_length_a                    19.398197
_cell_length_b                    15.878063
_cell_length_c                    14.623116
_cell_angle_alpha                 90.065305
_cell_angle_beta                  89.095423
_cell_angle_gamma                 89.835592
_cell_volume                      4503.42143802

loop_
_atom_site_label
_atom_site_type_symbol
_atom_type_description
_atom_site_fract_x
_atom_site_fract_y
_atom_site_fract_z
_atom_type_partial_charge
C1    C     C_R   0.500318 0.339525 0.499941 0.553095
C2    C     C_3   0.556338 0.972586 0.452022 0.049922
C3    C     C_3   0.501103 0.083269 0.500744 -0.004632
C4    C     C_3   0.501141 0.916707 0.498665 -0.005801
C5    C     C_1   0.501212 0.174721 0.500067 0.046989
C6    C     C_1   0.500598 0.825272 0.499658 0.047252
C7    C     C_3   0.506271 0.578208 0.970305 -0.004166
C8    C     C_3   0.503045 0.417474 0.031140 0.027936
C9    C     C_3   0.448519 0.538942 0.030238 0.198001
C10   C     C_3   0.560920 0.456004 0.970504 0.218169
C11   C     C_3   0.560403 0.535363 0.032120 0.242181
C12   C     C_R   0.500006 0.660475 0.500056 0.553869
C13   C     C_3   0.448510 0.459268 0.969429 0.190685
C14   C     C_3   0.502637 0.497119 0.092565 -0.032145
C15   C     C_3   0.506185 0.498184 0.907516 -0.101570
C16   C     C_R   0.366962 0.498314 0.500876 0.552602
C17   C     C_R   0.632846 0.503706 0.498930 0.557571
C18   C     C_1   0.500990 0.498969 0.194485 0.276973
C19   C     C_1   0.502265 0.499393 0.805487 0.210160
C20   C     C_R   0.251165 0.488866 0.584396 0.042029
C21   C     C_R   0.745550 0.537207 0.415752 0.037163
C22   C     C_R   0.179094 0.498506 0.582639 0.197148
C23   C     C_3   0.504109 0.971944 0.584590 0.258236
C24   C     C_R   0.818130 0.542685 0.416954 0.200485
C25   C     C_R   0.145572 0.508778 0.498328 0.022431
C26   C     C_R   0.854080 0.520297 0.496692 0.024627
C27   C     C_R   0.184624 0.517266 0.416999 0.216956
C28   C     C_R   0.816920 0.501550 0.577743 0.229476
C29   C     C_R   0.256410 0.511830 0.419782 -0.154458
C30   C     C_R   0.745117 0.495939 0.576127 -0.158002
C31   C     C_R   0.290584 0.498630 0.502446 -0.096997
C32   C     C_R   0.708738 0.512658 0.496192 -0.087376
C33   C     C_R   0.930239 0.516491 0.495875 0.374608
C34   C     C_3   0.498108 0.028058 0.414683 0.254763
C35   C     C_R   0.069831 0.509896 0.495555 0.371979
C36   C     C_2   0.283118 0.464951 0.671977 0.654572
C37   C     C_2   0.710043 0.557781 0.329444 0.612641
C38   C     C_3   0.347133 0.386937 0.001767 0.018540
C39   C     C_3   0.273554 0.380069 0.966748 -0.264591
C40   C     C_3   0.224756 0.344678 0.039884 -0.472786
C41   C     C_3   0.663298 0.606483 0.005783 0.039242
C42   C     C_3   0.734115 0.619529 0.047805 -0.234059
C43   C     C_3   0.785063 0.656922 0.978638 -0.504880
C44   C     C_3   0.124833 0.574231 0.694784 0.030609
C45   C     C_3   0.560052 0.028089 0.539052 -0.173933
C46   C     C_3   0.088869 0.568132 0.788197 -0.241888
C47   C     C_3   0.070570 0.655257 0.825648 -0.502518
C48   C     C_3   0.855439 0.651422 0.326933 0.031434
C49   C     C_3   0.899580 0.673036 0.242831 -0.246925
C50   C     C_3   0.901686 0.767776 0.225922 -0.488119
C51   C     C_3   0.158576 0.603493 0.297689 0.021250
C52   C     C_3   0.115469 0.609794 0.211345 -0.244370
C53   C     C_3   0.109597 0.700589 0.178197 -0.496156
C54   C     C_3   0.842252 0.550993 0.721066 0.008090
C55   C     C_3   0.888748 0.626067 0.696606 -0.268706
C56   C     C_3   0.442151 0.971901 0.460395 -0.177701
C57   C     C_3   0.884049 0.694661 0.769562 -0.488852
C58   C     C_3   0.517247 0.999794 0.739569 0.026924
C59   C     C_3   0.588574 0.987094 0.780516 -0.275271
C60   C     C_3   0.604363 0.055222 0.850732 -0.466385
C61   C     C_3   0.479930 0.001504 0.261723 0.019170
C62   C     C_3   0.488672 0.037938 0.165571 -0.248480
C63   C     C_3   0.471743 0.972760 0.092514 -0.460106
C64   C     C_2   0.618206 0.943389 0.397948 0.574139
C65   C     C_2   0.384464 0.056454 0.602302 0.579207
C66   C     C_3   0.348973 0.614620 0.999612 0.035266
C67   C     C_1   0.500891 0.250090 0.499878 0.036669
C68   C     C_3   0.275358 0.624037 0.036848 -0.271823
C69   C     C_3   0.227220 0.657787 0.963984 -0.495883
C70   C     C_3   0.638723 0.399982 0.861429 0.003395
C71   C     C_3   0.601134 0.322975 0.823423 -0.247646
C72   C     C_3   0.623350 0.304692 0.724831 -0.475648
C73   C     C_2   0.508252 0.668333 0.939905 0.539203
C74   C     C_2   0.502798 0.327752 0.063109 0.591334
C75   C     C_1   0.500260 0.749908 0.500062 0.037549
C76   C     C_3   0.445940 0.027404 0.547382 0.048312
Cu1   Cu    Cu3+1 0.500010 0.500000 0.590220 1.046780
Cu2   Cu    Cu3+1 0.499990 0.500000 0.409780 1.082792
H1    H     H_    0.285392 0.516856 0.356108 0.159354
H2    H     H_    0.273037 0.338406 0.905614 0.208829
H3    H     H_    0.241857 0.280844 0.060917 0.163058
H4    H     H_    0.171962 0.340095 0.012082 0.164740
H5    H     H_    0.223129 0.386787 0.100630 0.162009
H6    H     H_    0.643237 0.668571 0.983381 0.159778
H7    H     H_    0.669563 0.564688 0.945043 0.143507
H8    H     H_    0.729243 0.662498 0.107678 0.182361
H9    H     H_    0.754414 0.558007 0.071826 0.225406
H10   H     H_    0.791704 0.613817 0.919285 0.139448
H11   H     H_    0.835884 0.665671 0.011167 0.147392
H12   H     H_    0.717898 0.477069 0.638040 0.137931
H13   H     H_    0.766381 0.719073 0.954377 0.153966
H14   H     H_    0.089425 0.606373 0.646754 0.119690
H15   H     H_    0.172245 0.613091 0.701875 0.164859
H16   H     H_    0.040916 0.530532 0.781903 0.188648
H17   H     H_    0.123318 0.535588 0.836954 0.184472
H18   H     H_    0.117872 0.693478 0.834074 0.157613
H19   H     H_    0.044168 0.648920 0.893208 0.144583
H20   H     H_    0.035742 0.688578 0.778235 0.152031
H21   H     H_    0.877796 0.682640 0.387960 0.135151
H22   H     H_    0.802700 0.676944 0.316674 0.144918
H23   H     H_    0.607565 0.052054 0.571295 0.119311
H24   H     H_    0.952902 0.649709 0.252940 0.187679
H25   H     H_    0.878216 0.641254 0.181755 0.177377
H26   H     H_    0.848947 0.792283 0.213594 0.159296
H27   H     H_    0.934497 0.781011 0.164730 0.147299
H28   H     H_    0.923822 0.800737 0.285679 0.160033
H29   H     H_    0.213232 0.617614 0.279171 0.120319
H30   H     H_    0.139439 0.651084 0.348299 0.146417
H31   H     H_    0.139457 0.570499 0.156448 0.159044
H32   H     H_    0.062921 0.585053 0.225760 0.199757
H33   H     H_    0.082919 0.739988 0.230750 0.157187
H34   H     H_    0.394322 0.948014 0.428883 0.118586
H35   H     H_    0.079131 0.702462 0.114573 0.142139
H36   H     H_    0.161546 0.727034 0.163636 0.150218
H37   H     H_    0.857135 0.527074 0.789356 0.158089
H38   H     H_    0.787426 0.571563 0.727900 0.112694
H39   H     H_    0.943067 0.604308 0.689604 0.181979
H40   H     H_    0.872929 0.653491 0.630274 0.152458
H41   H     H_    0.829927 0.716672 0.778193 0.155256
H42   H     H_    0.916410 0.749061 0.748516 0.153041
H43   H     H_    0.902935 0.670407 0.835855 0.147945
H44   H     H_    0.477713 0.992536 0.794782 0.171799
H45   H     H_    0.302725 0.496084 0.802418 0.344695
H46   H     H_    0.512181 0.065658 0.713701 0.128304
H47   H     H_    0.590881 0.924348 0.814013 0.180814
H48   H     H_    0.628467 0.988882 0.725205 0.169905
H49   H     H_    0.604670 0.118073 0.817572 0.153454
H50   H     H_    0.655911 0.043513 0.880182 0.160870
H51   H     H_    0.565222 0.054783 0.906958 0.165201
H52   H     H_    0.425235 0.982090 0.271559 0.129820
H53   H     H_    0.514039 0.945256 0.267621 0.154775
H54   H     H_    0.453899 0.093181 0.158011 0.180465
H55   H     H_    0.542741 0.059382 0.155225 0.198602
H56   H     H_    0.641905 0.632167 0.264773 0.356952
H57   H     H_    0.507402 0.918080 0.096824 0.185344
H58   H     H_    0.477469 0.001533 0.023676 0.154504
H59   H     H_    0.417790 0.950581 0.101354 0.158584
H60   H     H_    0.673844 0.845732 0.347990 0.343129
H61   H     H_    0.329551 0.153927 0.653996 0.356931
H62   H     H_    0.347764 0.574827 0.936936 0.166556
H63   H     H_    0.368837 0.677915 0.980761 0.179084
H64   H     H_    0.256221 0.561796 0.060700 0.166328
H65   H     H_    0.274944 0.667791 0.096236 0.173716
H66   H     H_    0.243996 0.721344 0.941306 0.164015
H67   H     H_    0.345987 0.426270 0.064920 0.161925
H68   H     H_    0.174022 0.662375 0.992576 0.146110
H69   H     H_    0.226822 0.614685 0.904149 0.176037
H70   H     H_    0.695053 0.387917 0.855358 0.162596
H71   H     H_    0.629671 0.457860 0.820734 0.105383
H72   H     H_    0.613011 0.267232 0.866291 0.202045
H73   H     H_    0.544536 0.333356 0.826237 0.202258
H74   H     H_    0.613610 0.360353 0.681098 0.187173
H75   H     H_    0.593571 0.250536 0.698220 0.151715
H76   H     H_    0.679119 0.288759 0.721281 0.152916
H77   H     H_    0.512284 0.750574 0.835067 0.348791
H78   H     H_    0.365741 0.322855 0.019440 0.172678
H79   H     H_    0.501353 0.247130 0.169511 0.346760
H80   H     H_    0.254837 0.443396 0.946368 0.164654
N1    N     N_R   0.036554 0.566336 0.442533 -0.235020
N2    N     N_R   0.963668 0.459674 0.548555 -0.158231
N3    N     N_R   0.968097 0.569485 0.442714 -0.227551
N4    N     N_R   0.032172 0.456557 0.548589 -0.166625
N5    N     N_1   0.499980 0.500000 0.274190 -0.164995
N6    N     N_1   0.500020 0.500000 0.725810 -0.170391
O1    O     O_R   0.500010 0.379080 0.576170 -0.497214
O2    O     O_R   0.277213 0.518402 0.747606 -0.717945
O3    O     O_2   0.724202 0.518611 0.259572 -0.461938
O4    O     O_R   0.662186 0.623783 0.327601 -0.687776
O5    O     O_3   0.389750 0.420832 0.931841 -0.562863
O6    O     O_3   0.618636 0.572068 0.072905 -0.530455
O7    O     O_3   0.141223 0.492184 0.663469 -0.529117
O8    O     O_3   0.854346 0.562823 0.337510 -0.523171
O9    O     O_3   0.152257 0.521210 0.333438 -0.541894
O10   O     O_3   0.851441 0.484065 0.657833 -0.541581
O11   O     O_3   0.505555 0.936756 0.673166 -0.542058
O12   O     O_R   0.499990 0.620920 0.423830 -0.482328
O13   O     O_3   0.496964 0.063812 0.326341 -0.536952
O14   O     O_2   0.657471 0.995310 0.364414 -0.488837
O15   O     O_R   0.630637 0.857352 0.385891 -0.697564
O16   O     O_2   0.345138 0.004455 0.635567 -0.493852
O17   O     O_R   0.372491 0.142433 0.615525 -0.690131
O18   O     O_3   0.390217 0.579880 0.068747 -0.569887
O19   O     O_3   0.623218 0.410981 0.955128 -0.532301
O20   O     O_2   0.507471 0.724559 0.997066 -0.515580
O21   O     O_R   0.511067 0.687663 0.846767 -0.704660
O22   O     O_2   0.503997 0.270639 0.007022 -0.527162
O23   O     O_R   0.500000 0.379080 0.423800 -0.474937
O24   O     O_R   0.501193 0.309842 0.156614 -0.690136
O25   O     O_R   0.500000 0.620920 0.576200 -0.480338
O26   O     O_R   0.400150 0.499990 0.576210 -0.458886
O27   O     O_R   0.599850 0.500010 0.423790 -0.452665
O28   O     O_R   0.400140 0.499990 0.423840 -0.510831
O29   O     O_R   0.599860 0.500010 0.576160 -0.531600
O30   O     O_2   0.314374 0.398218 0.677886 -0.473841

loop_
_geom_bond_atom_site_label_1
_geom_bond_atom_site_label_2
_ccdc_geom_bond_type
C66   C68   S    
C34   C56   S    
C8    C13   S    
C23   C45   S    
C27   C29   A    
C41   C42   S    
C14   C18   S    
C17   O29   A    
C58   O11   S    
H79   O24   S    
C38   H78   S    
C23   C76   S    
C30   H12   S    
C28   O10   S    
C27   O9    S    
C6    C75   T    
C7    C73   S    
C66   H63   S    
C65   O17   S    
Cu1   Cu2   S    
C17   O27   A    
C69   H66   S    
C15   C19   S    
C12   O25   A    
C43   H11   S    
C47   H20   S    
C56   C76   S    
Cu1   O26   S    
C62   H55   S    
C24   C26   A    
C10   C15   S    
C38   C39   S    
C11   C14   S    
C71   H72   S    
C23   O11   S    
Cu1   O1    S    
C46   H16   S    
C68   H65   S    
C7    C9    S    
C46   C47   S    
C51   O9    S    
C9    C13   S    
Cu1   O29   S    
C9    O18   S    
C16   O28   A    
C48   O8    S    
H45   O2    S    
C71   H73   S    
C46   H17   S    
C44   C46   S    
C51   H30   S    
C72   H74   S    
C22   C25   A    
C54   H38   S    
C50   H27   S    
C47   H18   S    
N1    N3    A    
C68   H64   S    
C70   C71   S    
C42   H8    S    
C1    O1    A    
C22   O7    S    
C44   H14   S    
C33   N2    A    
C5    C67   T    
C57   H41   S    
C2    C34   S    
Cu1   N6    S    
C13   O5    S    
C66   O18   S    
C59   C60   S    
C33   N3    A    
C4    C56   S    
Cu2   O12   S    
C10   O19   S    
C63   H59   S    
C40   H5    S    
C70   H71   S    
C51   H29   S    
H60   O15   S    
C36   O2    S    
C53   H35   S    
C37   O4    S    
C74   O24   S    
C1    O23   A    
C2    C45   S    
C48   H22   S    
C21   C32   A    
C58   H44   S    
C35   N4    A    
C72   H76   S    
C51   C52   S    
C62   H54   S    
C60   H50   S    
Cu2   O28   S    
C2    C64   S    
C37   O3    D    
C44   H15   S    
C49   H24   S    
C4    C23   S    
C68   C69   S    
C3    C34   S    
C58   C59   S    
C41   H6    S    
C16   C31   S    
C3    C45   S    
C43   H13   S    
C59   H48   S    
C63   H57   S    
C7    C11   S    
C9    C14   S    
C38   H67   S    
C62   C63   S    
C40   H4    S    
C64   O14   D    
C18   N5    T    
C26   C33   S    
C29   H1    S    
C52   H32   S    
C61   O13   S    
C54   H37   S    
C8    C74   S    
C21   C37   S    
C52   C53   S    
C3    C76   S    
C65   C76   S    
C45   H23   S    
C61   H52   S    
C25   C35   S    
C57   H42   S    
C4    C6    S    
C48   C49   S    
C20   C22   A    
C55   C57   S    
C39   H80   S    
H77   O21   S    
C69   H69   S    
H56   O4    S    
C21   C24   A    
C70   H70   S    
C42   C43   S    
C43   H10   S    
C39   C40   S    
C53   H36   S    
C38   O5    S    
C73   O20   D    
C55   H39   S    
C64   O15   S    
C48   H21   S    
C54   C55   S    
C16   O26   A    
C8    C14   S    
C72   H75   S    
C58   H46   S    
C40   H3    S    
C60   H49   S    
Cu2   O27   S    
C55   H40   S    
C3    C5    S    
H61   O17   S    
C60   H51   S    
C49   H25   S    
C73   O21   S    
C42   H9    S    
C65   O16   D    
C25   C27   A    
C41   H7    S    
C41   O6    S    
C26   C28   A    
C47   H19   S    
C12   O12   A    
Cu1   O25   S    
C63   H58   S    
C54   O10   S    
C13   C15   S    
C44   O7    S    
C71   C72   S    
C29   C31   A    
C59   H47   S    
C39   H2    S    
C30   C32   A    
C53   H33   S    
C52   H31   S    
C2    C4    S    
C7    C15   S    
C1    C67   S    
C28   C30   A    
C19   N6    T    
C61   C62   S    
C24   O8    S    
C36   O30   D    
C35   N1    A    
C10   C11   S    
C61   H53   S    
C57   H43   S    
C20   C36   S    
C70   O19   S    
Cu2   N5    S    
C66   H62   S    
C11   O6    S    
C8    C10   S    
C49   C50   S    
C12   C75   S    
C50   H28   S    
C17   C32   S    
C34   O13   S    
C69   H68   S    
Cu2   O23   S    
C56   H34   S    
C50   H26   S    
N2    N4    A    
C74   O22   D    
C20   C31   A    
