data_mof_unit_29420.cif
_audit_creation_date              2012-12-11T17:45:32-0500
_audit_creation_method            fapswitch 2.2
_symmetry_space_group_name_H-M    P1
_symmetry_Int_Tables_number       1
_space_group_crystal_system       triclinic
_cell_length_a                    14.983824
_cell_length_b                    14.910319
_cell_length_c                    15.102493
_cell_angle_alpha                 110.246975
_cell_angle_beta                  109.170713
_cell_angle_gamma                 109.131402
_cell_volume                      2592.79689582

loop_
_atom_site_label
_atom_site_type_symbol
_atom_type_description
_atom_site_fract_x
_atom_site_fract_y
_atom_site_fract_z
_atom_type_partial_charge
C1    C     C_R   0.973565 0.248792 0.062253 -0.124256
C2    C     C_R   0.324612 0.789972 0.327911 0.052463
C3    C     C_R   0.299763 0.499691 0.931295 -0.009654
C4    C     C_R   0.941631 0.502031 0.303675 0.060522
C5    C     C_R   0.686054 0.407255 0.933335 -0.140871
C6    C     C_R   0.022817 0.593260 0.782420 -0.107148
C7    C     C_R   0.793317 0.195110 0.701661 -0.145335
C8    C     C_R   0.000960 0.802376 0.097427 -0.144764
C9    C     C_R   0.094827 0.807440 0.010583 -0.149971
C10   C     C_R   0.705608 0.193483 0.794836 -0.135508
C11   C     C_R   0.776660 0.591929 0.025581 -0.143904
C12   C     C_R   0.315213 0.759952 0.225189 -0.132123
C13   C     C_R   0.941373 0.409418 0.685440 -0.136902
C14   C     C_R   0.674420 0.499260 0.949755 -0.008712
C15   C     C_R   0.958808 0.504132 0.678951 0.041627
C16   C     C_R   0.705031 0.127579 0.703196 0.067037
C17   C     C_R   0.064768 0.870757 0.074986 0.068336
C18   C     C_R   0.612227 0.266988 0.094389 -0.118424
C19   C     C_R   0.691965 0.354914 0.199272 -0.153332
C20   C     C_R   0.741195 0.334937 0.281758 0.117868
C21   C     C_R   0.701918 0.225373 0.259212 -0.161375
C22   C     C_R   0.617959 0.137911 0.155346 -0.118923
C23   C     C_R   0.208163 0.408341 0.902716 -0.146580
C24   C     C_R   0.574213 0.158752 0.072621 -0.090963
C25   C     C_R   0.848462 0.431047 0.484248 -0.250932
C26   C     C_R   0.942850 0.513717 0.583936 0.075700
C27   C     C_R   0.026438 0.599434 0.589894 0.015026
C28   C     C_R   0.015369 0.596886 0.495574 -0.249930
C29   C     C_R   0.926960 0.509220 0.395099 0.066221
C30   C     C_R   0.839111 0.427020 0.387744 0.025288
C31   C     C_R   0.156064 0.790801 0.751091 -0.203888
C32   C     C_R   0.258204 0.869591 0.843649 -0.111350
C33   C     C_R   0.340443 0.843028 0.871476 -0.105461
C34   C     C_R   0.996825 0.592465 0.298943 -0.165933
C35   C     C_R   0.320962 0.738001 0.806902 -0.121683
C36   C     C_R   0.218135 0.657778 0.716093 -0.128824
C37   C     C_R   0.134616 0.683469 0.688233 0.120239
C38   C     C_R   0.253494 0.041361 0.534572 -0.128908
C39   C     C_R   0.330172 0.013392 0.520950 -0.127342
C40   C     C_R   0.340815 0.930524 0.539628 0.108002
C41   C     C_R   0.275460 0.877504 0.574145 -0.183961
C42   C     C_R   0.194716 0.901600 0.581555 -0.117660
C43   C     C_R   0.184385 0.984046 0.562766 -0.119982
C44   C     C_R   0.526336 0.973005 0.627959 -0.228675
C45   C     C_R   0.299570 0.591340 0.995384 -0.137774
C46   C     C_R   0.622441 0.010257 0.623716 0.049863
C47   C     C_R   0.622787 0.946956 0.529192 0.031064
C48   C     C_R   0.523071 0.865459 0.435115 -0.245428
C49   C     C_R   0.425326 0.853126 0.433196 0.068978
C50   C     C_R   0.427824 0.908113 0.532362 0.016600
C51   C     C_R   0.739629 0.006933 0.452783 -0.204186
C52   C     C_R   0.843566 0.055073 0.465509 -0.115648
C53   C     C_R   0.931064 0.063150 0.545740 -0.111929
C54   C     C_R   0.914441 0.021728 0.612378 -0.138440
C55   C     C_R   0.811392 0.975954 0.601945 -0.146356
C56   C     C_R   0.911662 0.409185 0.211647 -0.135969
C57   C     C_R   0.723973 0.971089 0.523988 0.122150
C58   C     C_3   0.470392 0.387296 0.840903 -0.401626
C59   C     C_3   0.366636 0.389134 0.833696 -0.416242
C60   C     C_3   0.574029 0.519166 0.044704 -0.401239
C61   C     C_3   0.563994 0.591560 0.915180 -0.396292
C62   C     C_3   0.572570 0.499157 0.936329 0.399462
C63   C     C_3   0.396577 0.499764 0.927532 0.405997
C64   C     C_3   0.470609 0.518196 0.038969 -0.389850
C65   C     C_3   0.459961 0.592723 0.911256 -0.410994
C66   C     C_R   0.178021 0.058194 0.811489 -0.136574
C67   C     C_R   0.220451 0.752075 0.313321 -0.121895
C68   C     C_R   0.136249 0.057155 0.881162 -0.192317
C69   C     C_R   0.200011 0.138399 0.991966 0.113658
C70   C     C_R   0.305419 0.221000 0.032220 -0.148866
C71   C     C_R   0.346556 0.221326 0.961693 -0.140917
C72   C     C_R   0.283764 0.139184 0.851815 -0.111629
C73   C     C_R   0.171269 0.043733 0.088241 -0.230544
C74   C     C_R   0.100973 0.989285 0.117032 0.056328
C75   C     C_R   0.052896 0.043928 0.164759 0.024257
C76   C     C_R   0.061452 0.138497 0.162181 -0.240278
C77   C     C_R   0.098133 0.167044 0.096412 0.060629
C78   C     C_R   0.067717 0.251881 0.973614 -0.141368
C79   C     C_R   0.161807 0.124212 0.066333 0.026746
C80   C     C_R   0.865730 0.949729 0.135369 -0.151380
C81   C     C_R   0.794236 0.896697 0.164189 -0.157840
C82   C     C_R   0.834990 0.889502 0.257386 -0.100857
C83   C     C_R   0.947531 0.941199 0.325457 -0.119259
C84   C     C_R   0.019631 0.998834 0.299674 -0.188262
C85   C     C_R   0.978795 0.998263 0.201475 0.117273
C86   C     C_R   0.051635 0.223177 0.047957 0.057503
H1    H     H_    0.938835 0.236424 0.111905 0.092672
H2    H     H_    0.045512 0.677874 0.807976 0.115562
H3    H     H_    0.825402 0.173541 0.648969 0.133782
H4    H     H_    0.154979 0.836531 0.988002 0.100909
H5    H     H_    0.659325 0.167182 0.831464 0.087437
H6    H     H_    0.796524 0.677046 0.062746 0.110264
H7    H     H_    0.895840 0.324964 0.619172 0.102853
H8    H     H_    0.511922 0.091339 0.991225 0.102378
H9    H     H_    0.582027 0.282639 0.029205 0.093624
H10   H     H_    0.719989 0.438301 0.214344 0.113136
H11   H     H_    0.379883 0.775818 0.205722 0.089897
H12   H     H_    0.738600 0.207170 0.320617 0.105481
H13   H     H_    0.589055 0.053866 0.138261 0.099205
H14   H     H_    0.784133 0.367833 0.481788 0.129006
H15   H     H_    0.083826 0.658146 0.500826 0.130278
H16   H     H_    0.092557 0.811924 0.730203 0.112661
H17   H     H_    0.273840 0.951079 0.894207 0.136812
H18   H     H_    0.419481 0.903681 0.942905 0.092006
H19   H     H_    0.386138 0.719583 0.827342 0.100380
H20   H     H_    0.203744 0.576222 0.667125 0.106700
H21   H     H_    0.123955 0.004742 0.571681 0.092845
H22   H     H_    0.176827 0.323080 0.845365 0.099440
H23   H     H_    0.248019 0.107736 0.523748 0.102685
H24   H     H_    0.382912 0.057741 0.498170 0.111690
H25   H     H_    0.284594 0.815307 0.591372 0.127031
H26   H     H_    0.140415 0.856881 0.602338 0.115289
H27   H     H_    0.524491 0.013396 0.701509 0.124931
H28   H     H_    0.522671 0.819079 0.361590 0.122717
H29   H     H_    0.673604 0.005390 0.393300 0.115222
H30   H     H_    0.856656 0.087896 0.414402 0.128075
H31   H     H_    0.011817 0.101986 0.556591 0.100931
H32   H     H_    0.982028 0.028694 0.674759 0.115542
H33   H     H_    0.019121 0.676764 0.350165 0.107139
H34   H     H_    0.800990 0.949795 0.658157 0.112141
H35   H     H_    0.470201 0.318269 0.853591 0.143655
H36   H     H_    0.469396 0.370483 0.762722 0.157925
H37   H     H_    0.316223 0.377786 0.753532 0.153660
H38   H     H_    0.318200 0.318375 0.837750 0.163891
H39   H     H_    0.582012 0.455184 0.062885 0.148405
H40   H     H_    0.426870 0.452871 0.052854 0.162038
H41   H     H_    0.635824 0.673400 0.980278 0.150284
H42   H     H_    0.561631 0.577634 0.836953 0.157048
H43   H     H_    0.407210 0.578795 0.830751 0.151978
H44   H     H_    0.355342 0.676607 0.026484 0.087532
H45   H     H_    0.483577 0.675044 0.975209 0.142724
H46   H     H_    0.645419 0.600258 0.113827 0.156289
H47   H     H_    0.493267 0.598317 0.106213 0.151487
H48   H     H_    0.316826 0.138803 0.797973 0.123318
H49   H     H_    0.128813 0.994374 0.727006 0.106678
H50   H     H_    0.055473 0.991358 0.849654 0.118573
H51   H     H_    0.356199 0.282947 0.117943 0.117183
H52   H     H_    0.427144 0.285105 0.992211 0.113519
H53   H     H_    0.219142 0.011280 0.063285 0.125558
H54   H     H_    0.024067 0.178499 0.198594 0.126468
H55   H     H_    0.859608 0.324256 0.184720 0.113393
H56   H     H_    0.833140 0.950733 0.060420 0.114171
H57   H     H_    0.707248 0.859450 0.113272 0.107026
H58   H     H_    0.779420 0.845108 0.277663 0.117740
H59   H     H_    0.978530 0.935085 0.397228 0.119361
H60   H     H_    0.106413 0.036590 0.351162 0.118282
H61   H     H_    0.194873 0.751866 0.371526 0.119888
H62   H     H_    0.122785 0.247172 0.943903 0.126786
H63   H     H_    0.624018 0.321398 0.883511 0.094048
N1    N     N_R   0.947080 0.293830 0.002870 -0.041408
N2    N     N_R   0.054040 0.556820 0.847890 -0.040371
N3    N     N_R   0.848290 0.293830 0.791110 -0.041965
N4    N     N_R   0.995680 0.706170 0.053910 -0.041116
N5    N     N_R   0.052920 0.706170 0.997130 -0.041435
N6    N     N_R   0.791050 0.293830 0.847890 -0.038745
N7    N     N_R   0.846330 0.556820 0.053910 -0.036486
N8    N     N_R   0.997640 0.443180 0.791110 -0.040065
N9    N     N_R   0.208950 0.706170 0.152110 -0.039854
N10   N     N_R   0.153670 0.443180 0.946090 -0.036643
N11   N     N_R   0.002360 0.556820 0.208890 -0.038924
N12   N     N_R   0.210070 0.556820 0.002870 -0.033812
N13   N     N_R   0.945960 0.443180 0.152110 -0.039738
N14   N     N_R   0.151710 0.706170 0.208890 -0.042883
N15   N     N_R   0.004320 0.293830 0.946090 -0.041603
N16   N     N_R   0.789930 0.443180 0.997130 -0.035264
Ni1   Ni    Ni4+2 0.869690 0.369690 0.000000 0.211504
Ni2   Ni    Ni4+2 0.130310 0.630310 0.000000 0.217523
Ni3   Ni    Ni4+2 0.000970 0.369690 0.869780 0.215588
Ni4   Ni    Ni4+2 0.999030 0.630310 0.130220 0.213573
H64   H     H_    0.975775 0.822331 0.156245 0.130892

loop_
_geom_bond_atom_site_label_1
_geom_bond_atom_site_label_2
_ccdc_geom_bond_type
C58   C62   S    
C66   C68   A    
C63   C65   S    
C1    H1    S    
N16   Ni1   S    
C33   H18   S    
C10   H5    S    
C73   C74   A    
C3    C23   A    
C35   C36   A    
C2    C12   A    
C60   H46   S    
C81   C82   A    
C6    H2    S    
C20   C30   S    
C53   C54   A    
C78   N15   A    
C26   C27   A    
C80   C85   A    
C18   C24   A    
N2    N8    A    
C28   C29   A    
C38   C39   A    
C11   C14   A    
C53   H31   S    
C66   H49   S    
N6    Ni1   S    
C14   C62   S    
C56   N13   A    
N7    Ni4   S    
C1    C86   A    
C5    H63   S    
N10   Ni3   S    
C60   C62   S    
C18   C19   A    
C41   C42   A    
C45   N12   A    
C42   H26   S    
C65   H45   S    
C6    C15   A    
C83   H59   S    
C28   H15   S    
C75   C85   S    
C39   H24   S    
C66   C72   A    
C83   C84   A    
C44   C46   A    
C68   C69   A    
C23   N10   A    
N11   Ni4   S    
N10   N12   A    
C70   C71   A    
C51   C57   A    
C5    N16   A    
C5    C14   A    
C4    C29   S    
C78   H62   S    
C78   C86   A    
C52   H30   S    
C45   H44   S    
N13   Ni1   S    
C21   C22   A    
C4    C56   A    
C18   H9    S    
C61   C62   S    
C11   H6    S    
N8    Ni3   S    
C13   N8    A    
N3    Ni3   S    
C8    H64   S    
N9    Ni2   S    
C71   H52   S    
C55   H34   S    
C77   C79   A    
C59   H37   S    
C4    C34   A    
C58   H36   S    
N1    Ni1   S    
C74   C75   A    
C36   H20   S    
C51   C52   A    
C31   H16   S    
N15   Ni3   S    
C76   C77   A    
C82   H58   S    
C2    C67   A    
C16   C46   S    
C39   C40   A    
C25   C30   A    
C15   C26   S    
C73   H53   S    
C58   C59   S    
C3    C45   A    
C51   H29   S    
C7    N3    A    
C13   H7    S    
N11   N13   A    
C9    H4    S    
C75   C76   A    
C29   C30   A    
C35   H19   S    
C2    C49   S    
C24   H8    S    
C47   C57   S    
C25   H14   S    
C72   H48   S    
C47   C48   A    
N3    N6    A    
C68   H50   S    
C73   C79   A    
C32   H17   S    
C1    N1    A    
C61   H41   S    
C43   H21   S    
C84   C85   A    
C38   H23   S    
C8    N4    A    
C12   H11   S    
N12   Ni2   S    
C11   N7    A    
C6    N2    A    
N9    N14   A    
C9    C17   A    
C48   C49   A    
C9    N5    A    
C82   C83   A    
C64   H40   S    
C55   C57   A    
C67   H61   S    
C17   C74   S    
C59   H38   S    
C22   C24   A    
N5    Ni2   S    
C69   C79   S    
C42   C43   A    
C56   H55   S    
C76   H54   S    
C54   H32   S    
C52   C53   A    
C48   H28   S    
C64   H47   S    
C44   C50   A    
C34   H33   S    
C54   C55   A    
C60   H39   S    
C58   H35   S    
C22   H13   S    
C59   C63   S    
C31   C32   A    
C7    C16   A    
C80   C81   A    
C10   N6    A    
C77   C86   S    
C65   H43   S    
N2    Ni2   S    
C3    C63   S    
N1    N15   A    
C80   H56   S    
C8    C17   A    
C60   C64   S    
C32   C33   A    
C19   C20   A    
C13   C15   A    
C25   C26   A    
C38   C43   A    
C10   C16   A    
C21   H12   S    
C44   H27   S    
N7    N16   A    
C27   C37   S    
C40   C50   S    
C23   H22   S    
C33   C35   A    
C61   H42   S    
C61   C65   S    
C69   C70   A    
N14   Ni4   S    
C46   C47   A    
C63   C64   S    
C67   N14   A    
C31   C37   A    
C81   H57   S    
C71   C72   A    
C20   C21   A    
C70   H51   S    
C36   C37   A    
C49   C50   A    
C41   H25   S    
N4    Ni4   S    
C27   C28   A    
C40   C41   A    
C84   H60   S    
C12   N9    A    
N4    N5    A    
C19   H10   S    
C34   N11   A    
C7    H3    S    
