data_mof_unit_59125.cif
_audit_creation_date              2012-12-10T18:56:00-0500
_audit_creation_method            fapswitch 2.2
_symmetry_space_group_name_H-M    P1
_symmetry_Int_Tables_number       1
_space_group_crystal_system       triclinic
_cell_length_a                    10.777412
_cell_length_b                    9.824719
_cell_length_c                    14.928587
_cell_angle_alpha                 89.856593
_cell_angle_beta                  90.035887
_cell_angle_gamma                 89.838624
_cell_volume                      1580.70255984

loop_
_atom_site_label
_atom_site_type_symbol
_atom_type_description
_atom_site_fract_x
_atom_site_fract_y
_atom_site_fract_z
_atom_type_partial_charge
C1    C     C_R   0.260221 0.500261 0.499531 0.947724
C2    C     C_R   0.938157 0.624472 0.510077 0.356109
C3    C     C_R   0.939283 0.376804 0.490384 0.362589
C4    C     C_R   0.063881 0.619005 0.525193 0.354713
C5    C     C_R   0.497521 0.617488 0.090867 -0.175678
C6    C     C_R   0.498576 0.382966 0.909192 -0.174689
C7    C     C_R   0.410556 0.611074 0.901772 -0.190402
C8    C     C_R   0.411017 0.389223 0.098046 -0.189941
C9    C     C_R   0.513838 0.616613 0.182616 -0.205098
C10   C     C_R   0.514964 0.383744 0.817465 -0.198682
C11   C     C_R   0.428379 0.612542 0.810142 -0.211285
C12   C     C_R   0.740450 0.499949 0.500381 0.968963
C13   C     C_R   0.428767 0.387662 0.189697 -0.206965
C14   C     C_R   0.481582 0.500768 0.231835 -0.011530
C15   C     C_R   0.481884 0.499422 0.768140 -0.011743
C16   C     C_R   0.447666 0.503080 0.048350 0.118370
C17   C     C_R   0.447842 0.497308 0.951573 0.118399
C18   C     C_R   0.873480 0.500305 0.500543 -0.469147
C19   C     C_R   0.128325 0.501011 0.498948 -0.454211
C20   C     C_3   0.152928 0.291187 0.347103 0.141038
C21   C     C_3   0.037476 0.296304 0.286635 -0.373838
C22   C     C_3   0.073175 0.291384 0.187803 -0.974344
C23   C     C_R   0.497259 0.500157 0.327565 0.834940
C24   C     C_3   0.859879 0.797971 0.424231 0.149263
C25   C     C_3   0.973663 0.872913 0.387246 -0.336065
C26   C     C_3   0.951868 0.918611 0.290768 -0.988139
C27   C     C_3   0.866428 0.205655 0.579802 0.137637
C28   C     C_3   0.985049 0.142874 0.619537 -0.339286
C29   C     C_3   0.965459 0.103104 0.717372 -0.995593
C30   C     C_3   0.154483 0.715129 0.648818 0.152471
C31   C     C_3   0.040546 0.723719 0.710248 -0.372125
C32   C     C_3   0.078616 0.730209 0.808605 -0.980968
C33   C     C_R   0.497403 0.499870 0.672428 0.833797
C34   C     C_R   0.541732 0.071511 0.572715 -0.092254
C35   C     C_R   0.456956 0.928435 0.427653 -0.078337
C36   C     C_R   0.457326 0.072333 0.427553 -0.035256
C37   C     C_R   0.542572 0.927630 0.572484 -0.071305
C38   C     C_R   0.064189 0.383282 0.472866 0.357656
H1    H     H_    0.575130 0.125540 0.630913 0.113769
H2    H     H_    0.555952 0.295544 0.785468 0.140167
H3    H     H_    0.399938 0.701517 0.772263 0.143412
H4    H     H_    0.400843 0.298602 0.227464 0.136225
H5    H     H_    0.212120 0.204583 0.325591 0.148133
H6    H     H_    0.209159 0.384986 0.337494 0.111675
H7    H     H_    0.975838 0.209410 0.302542 0.262396
H8    H     H_    0.985023 0.391993 0.298942 0.203583
H9    H     H_    0.132727 0.379695 0.170430 0.273890
H10   H     H_    0.988066 0.295422 0.145927 0.273615
H11   H     H_    0.123898 0.195579 0.172698 0.259272
H12   H     H_    0.422261 0.874378 0.369855 0.129354
H13   H     H_    0.780810 0.870770 0.426105 0.168535
H14   H     H_    0.831909 0.715025 0.377403 0.113904
H15   H     H_    0.993627 0.963294 0.429323 0.263676
H16   H     H_    0.056016 0.804879 0.388174 0.235961
H17   H     H_    0.934730 0.829090 0.247211 0.262352
H18   H     H_    0.035370 0.972425 0.265600 0.274220
H19   H     H_    0.870785 0.988434 0.286981 0.271023
H20   H     H_    0.794315 0.125454 0.579145 0.160282
H21   H     H_    0.830912 0.288256 0.624231 0.115657
H22   H     H_    0.011694 0.051178 0.580594 0.257632
H23   H     H_    0.423384 0.126972 0.369565 0.108676
H24   H     H_    0.062618 0.216754 0.616776 0.234966
H25   H     H_    0.945894 0.195041 0.758224 0.264911
H26   H     H_    0.050695 0.053466 0.743746 0.277931
H27   H     H_    0.886485 0.031341 0.723727 0.264714
H28   H     H_    0.219931 0.797709 0.667113 0.161737
H29   H     H_    0.204654 0.617428 0.660682 0.108915
H30   H     H_    0.985221 0.815306 0.692838 0.262234
H31   H     H_    0.981108 0.632728 0.700403 0.208394
H32   H     H_    0.132061 0.637597 0.827433 0.274206
H33   H     H_    0.994411 0.736120 0.851241 0.273786
H34   H     H_    0.577168 0.872964 0.630324 0.137146
H35   H     H_    0.136342 0.821695 0.821159 0.260632
H36   H     H_    0.528313 0.705155 0.052836 0.130113
H37   H     H_    0.529922 0.295407 0.947315 0.129893
H38   H     H_    0.370220 0.699391 0.934033 0.132969
H39   H     H_    0.371291 0.300882 0.065680 0.132379
H40   H     H_    0.554175 0.704873 0.214709 0.144593
N1    N     N_R   0.500000 0.857200 0.500000 -0.081999
N2    N     N_R   0.500000 0.142800 0.500000 -0.072010
O1    O     O_R   0.316770 0.614620 0.499990 -0.583639
O2    O     O_3   0.880017 0.750495 0.513000 -0.601600
O3    O     O_3   0.883149 0.250088 0.490061 -0.594810
O4    O     O_3   0.122399 0.734418 0.557518 -0.599665
O5    O     O_R   0.683230 0.385380 0.500010 -0.586259
O6    O     O_R   0.683230 0.614620 0.500010 -0.589886
O7    O     O_R   0.316770 0.385380 0.499990 -0.582610
O8    O     O_R   0.499990 0.614660 0.369060 -0.641102
O9    O     O_R   0.500010 0.385340 0.630940 -0.636182
O10   O     O_R   0.500010 0.614660 0.630940 -0.636452
O11   O     O_R   0.499990 0.385340 0.369060 -0.633304
O12   O     O_3   0.122341 0.268810 0.438361 -0.596627
Zn1   Zn    Zn3+2 0.500000 0.653120 0.500000 0.951371
Zn2   Zn    Zn3+2 0.500000 0.346880 0.500000 0.961059

loop_
_geom_bond_atom_site_label_1
_geom_bond_atom_site_label_2
_ccdc_geom_bond_type
C1    O7    A    
C22   H10   S    
C29   H25   S    
C24   H14   S    
C8    C13   A    
C2    C18   A    
C34   C37   A    
C35   C36   A    
C26   H17   S    
C6    H37   S    
C7    C11   A    
C20   O12   S    
C12   O5    A    
C28   C29   S    
C19   C38   A    
C25   H15   S    
N1    Zn1   S    
C10   C15   A    
C30   C31   S    
C1    O1    A    
O7    Zn2   S    
C38   O12   S    
O9    Zn2   S    
C3    C18   A    
C10   H2    S    
C5    H36   S    
C24   O2    S    
C5    C16   A    
C34   N2    A    
C4    C19   A    
C11   C15   A    
C3    C38   A    
C16   C17   S    
C37   N1    A    
C30   H29   S    
C24   H13   S    
C22   H9    S    
C29   H26   S    
C8    C16   A    
C21   C22   S    
C13   H4    S    
C20   H6    S    
C32   H33   S    
C21   H7    S    
C28   H22   S    
C31   H30   S    
C1    C19   S    
C34   H1    S    
C25   H16   S    
C36   N2    A    
C32   H35   S    
C32   H32   S    
C7    C17   A    
C25   C26   S    
C14   C23   S    
C2    C4    A    
C9    C14   A    
C5    C9    A    
O6    Zn1   S    
C33   O9    A    
O1    Zn1   S    
O5    Zn2   S    
C31   C32   S    
C4    O4    S    
C35   H12   S    
C24   C25   S    
C30   H28   S    
C22   H11   S    
C29   H27   S    
C23   O8    A    
C3    O3    S    
C8    H39   S    
C23   O11   A    
C2    O2    S    
N2    Zn2   S    
C36   H23   S    
C20   H5    S    
O10   Zn1   S    
C21   H8    S    
C6    C17   A    
O8    Zn1   S    
C27   H20   S    
C26   H18   S    
C6    C10   A    
C7    H38   S    
C12   O6    A    
C27   O3    S    
C27   H21   S    
C33   O10   A    
O11   Zn2   S    
C35   N1    A    
C11   H3    S    
C9    H40   S    
C30   O4    S    
C26   H19   S    
C31   H31   S    
C20   C21   S    
C37   H34   S    
C12   C18   S    
C27   C28   S    
C13   C14   A    
C15   C33   S    
C28   H24   S    
