data_mof_unit_20647.cif
_audit_creation_date              2012-12-10T17:17:50-0500
_audit_creation_method            fapswitch 2.2
_symmetry_space_group_name_H-M    P1
_symmetry_Int_Tables_number       1
_space_group_crystal_system       monoclinic
_cell_length_a                    15.013325
_cell_length_b                    15.814558
_cell_length_c                    9.637598
_cell_angle_alpha                 90.0
_cell_angle_beta                  90.717337
_cell_angle_gamma                 90.0
_cell_volume                      2288.06687319

loop_
_atom_site_label
_atom_site_type_symbol
_atom_type_description
_atom_site_fract_x
_atom_site_fract_y
_atom_site_fract_z
_atom_type_partial_charge
C1    C     C_R   0.385964 0.877520 0.499455 0.807636
C2    C     C_R   0.386264 0.122919 0.500464 0.802663
C3    C     C_R   0.886264 0.377081 0.500464 0.802663
C4    C     C_R   0.885964 0.622480 0.499455 0.807636
C5    C     C_R   0.279458 0.214440 0.379596 -0.253685
C6    C     C_R   0.267129 0.796916 0.384889 -0.253015
C7    C     C_R   0.767129 0.703084 0.384889 -0.253015
C8    C     C_R   0.779458 0.285560 0.379596 -0.253685
C9    C     C_R   0.697748 0.761109 0.386752 0.133593
C10   C     C_R   0.708178 0.229682 0.378480 0.144657
C11   C     C_R   0.208178 0.270318 0.378480 0.144657
C12   C     C_R   0.197748 0.738891 0.386752 0.133593
C13   C     C_R   0.681955 0.808513 0.507993 -0.115755
C14   C     C_R   0.677337 0.195233 0.503836 -0.124011
C15   C     C_R   0.177337 0.304766 0.503836 -0.124011
C16   C     C_R   0.181955 0.691487 0.507993 -0.115755
C17   C     C_R   0.673272 0.015010 0.134570 0.190617
C18   C     C_R   0.173272 0.484990 0.134570 0.190617
C19   C     C_R   0.747646 0.033185 0.051301 0.086550
C20   C     C_R   0.247646 0.466815 0.051301 0.086550
C21   C     C_R   0.740342 0.030297 0.910360 -0.263746
C22   C     C_R   0.240342 0.469703 0.910360 -0.263746
C23   C     C_R   0.660138 0.011744 0.850009 -0.184308
C24   C     C_R   0.160138 0.488256 0.850009 -0.184308
C25   C     C_R   0.580146 0.006412 0.924321 0.127322
C26   C     C_R   0.080146 0.493588 0.924321 0.127322
C27   C     C_R   0.582752 0.007031 0.074285 0.169182
C28   C     C_R   0.082752 0.492969 0.074285 0.169182
C29   C     C_R   0.423857 0.994188 0.072321 -0.068588
C30   C     C_R   0.923857 0.505812 0.072321 -0.068588
C31   C     C_R   0.614046 0.123292 0.500926 0.791625
C32   C     C_R   0.616458 0.878532 0.501883 0.806524
C33   C     C_R   0.116458 0.621468 0.501883 0.806524
C34   C     C_R   0.114046 0.376708 0.500926 0.791625
C35   C     C_R   0.423940 0.994300 0.924980 -0.072210
C36   C     C_R   0.923940 0.505699 0.924980 -0.072210
C37   C     C_R   0.347535 0.230521 0.756651 0.211054
C38   C     C_R   0.384539 0.740193 0.718914 0.189601
C39   C     C_R   0.884539 0.759807 0.718914 0.189601
C40   C     C_R   0.847535 0.269479 0.756651 0.211054
C41   C     C_R   0.303350 0.239709 0.882318 -0.155467
C42   C     C_R   0.361607 0.708173 0.848571 -0.127519
C43   C     C_R   0.861607 0.791827 0.848571 -0.127519
C44   C     C_R   0.803350 0.260290 0.882318 -0.155467
C45   C     C_R   0.774819 0.816309 0.873772 -0.213514
C46   C     C_R   0.713732 0.240273 0.882005 -0.196815
C47   C     C_R   0.213732 0.259727 0.882005 -0.196814
C48   C     C_R   0.274819 0.683691 0.873772 -0.213514
C49   C     C_R   0.712789 0.818161 0.765419 -0.159848
C50   C     C_R   0.671489 0.218488 0.758772 -0.135172
C51   C     C_R   0.171489 0.281512 0.758772 -0.135172
C52   C     C_R   0.212789 0.681839 0.765419 -0.159848
C53   C     C_R   0.735977 0.793174 0.629169 0.036254
C54   C     C_R   0.715004 0.225011 0.630594 0.019375
C55   C     C_R   0.215003 0.274989 0.630594 0.019375
C56   C     C_R   0.235977 0.706826 0.629169 0.036254
C57   C     C_R   0.298145 0.233803 0.629100 0.062513
C58   C     C_R   0.317283 0.750632 0.614058 0.057951
C59   C     C_R   0.817283 0.749368 0.614058 0.057951
C60   C     C_R   0.798145 0.266197 0.629100 0.062513
C61   C     C_R   0.324738 0.195025 0.502920 -0.149927
C62   C     C_R   0.326070 0.804471 0.497629 -0.143254
C63   C     C_R   0.826070 0.695529 0.497629 -0.143254
C64   C     C_R   0.824738 0.304975 0.502920 -0.149927
Cu1   Cu    Cu3+1 0.499990 1.000000 0.640660 0.904622
Cu2   Cu    Cu3+1 0.999990 0.500000 0.640660 0.904622
Cu3   Cu    Cu3+1 0.500010 1.000000 0.359340 0.973616
Cu4   Cu    Cu3+1 0.000010 0.500000 0.359340 0.973616
H1    H     H_    0.298224 0.185235 0.282474 0.162810
H2    H     H_    0.273634 0.837454 0.294857 0.161295
H3    H     H_    0.773634 0.662546 0.294857 0.161295
H4    H     H_    0.798224 0.314765 0.282474 0.162810
H5    H     H_    0.798831 0.038007 0.846669 0.178191
H6    H     H_    0.298831 0.461993 0.846669 0.178191
H7    H     H_    0.666208 0.000909 0.742959 0.234456
H8    H     H_    0.166208 0.499091 0.742959 0.234456
H9    H     H_    0.361200 0.989759 0.869069 0.148580
H10   H     H_    0.861200 0.510241 0.869069 0.148580
H11   H     H_    0.339051 0.233159 0.980105 0.134640
H12   H     H_    0.411558 0.701994 0.930023 0.142051
H13   H     H_    0.911558 0.798006 0.930023 0.142051
H14   H     H_    0.839051 0.266841 0.980105 0.134640
H15   H     H_    0.756377 0.837524 0.976230 0.145945
H16   H     H_    0.677382 0.236565 0.977032 0.145288
H17   H     H_    0.177382 0.263434 0.977032 0.145288
H18   H     H_    0.256377 0.662476 0.976230 0.145945
H19   H     H_    0.646442 0.835339 0.794261 0.174514
H20   H     H_    0.603780 0.199975 0.766481 0.176255
H21   H     H_    0.103780 0.300025 0.766481 0.176255
H22   H     H_    0.146442 0.664661 0.794261 0.174514
H23   H     H_    0.361146 0.989489 0.125843 0.129835
H24   H     H_    0.861146 0.510511 0.125843 0.129835
N1    N     N_R   0.501200 1.000000 0.147910 -0.177703
N2    N     N_R   0.001200 0.500000 0.147910 -0.177703
N3    N     N_R   0.501270 1.000000 0.852040 -0.206752
N4    N     N_R   0.001270 0.500000 0.852040 -0.206752
O1    O     O_R   0.409820 0.909830 0.618810 -0.583755
O2    O     O_R   0.409820 0.090170 0.618810 -0.588568
O3    O     O_R   0.909820 0.409830 0.618810 -0.588568
O4    O     O_R   0.909820 0.590170 0.618810 -0.583755
O5    O     O_R   0.409840 0.909830 0.381240 -0.582154
O6    O     O_R   0.409840 0.090170 0.381240 -0.582413
O7    O     O_R   0.909840 0.409830 0.381240 -0.582414
O8    O     O_R   0.909840 0.590170 0.381240 -0.582154
O9    O     O_R   0.590170 0.090170 0.618760 -0.629503
O10   O     O_R   0.590170 0.909830 0.618760 -0.643484
O11   O     O_R   0.090170 0.590170 0.618760 -0.643484
O12   O     O_R   0.090170 0.409830 0.618760 -0.629503
O13   O     O_R   0.590190 0.090180 0.381190 -0.521506
O14   O     O_R   0.590190 0.909820 0.381190 -0.514290
O15   O     O_R   0.090190 0.590180 0.381190 -0.514290
O16   O     O_R   0.090190 0.409820 0.381190 -0.521506
N5    N     N_3   0.442622 0.231681 0.762245 -0.611210
H25   H     H_    0.469322 0.236536 0.662974 0.209930
H26   H     H_    0.463624 0.175863 0.810521 0.244738
N6    N     N_3   0.477645 0.749888 0.692387 -0.601731
H27   H     H_    0.499996 0.802735 0.747286 0.248631
H28   H     H_    0.489844 0.756866 0.586658 0.208099
N7    N     N_3   0.977645 0.750112 0.692387 -0.601731
H29   H     H_    0.989844 0.743134 0.586658 0.208099
H30   H     H_    0.999996 0.697265 0.747286 0.248631
N8    N     N_3   0.942622 0.268319 0.762245 -0.611210
H31   H     H_    0.963624 0.324137 0.810521 0.244738
H32   H     H_    0.969322 0.263464 0.662974 0.209930
N9    N     N_3   0.639906 0.767537 0.267657 -0.568053
H33   H     H_    0.678438 0.784174 0.182317 0.209038
H34   H     H_    0.612210 0.707973 0.248190 0.212015
N10   N     N_3   0.664709 0.211638 0.249271 -0.569798
H35   H     H_    0.713036 0.187124 0.183685 0.218746
H36   H     H_    0.641370 0.268644 0.207612 0.206146
N11   N     N_3   0.164709 0.288362 0.249270 -0.569798
H37   H     H_    0.213036 0.312876 0.183685 0.218746
H38   H     H_    0.141370 0.231355 0.207612 0.206146
N12   N     N_3   0.139906 0.732463 0.267657 -0.568053
H39   H     H_    0.178438 0.715826 0.182317 0.209038
H40   H     H_    0.112209 0.792027 0.248190 0.212015
N13   N     N_3   0.697952 0.995368 0.273664 -0.487353
H41   H     H_    0.738770 0.941657 0.272519 0.210417
H42   H     H_    0.736085 0.044415 0.316663 0.235648
N14   N     N_3   0.197952 0.504632 0.273664 -0.487354
H43   H     H_    0.236085 0.455584 0.316663 0.235648
H44   H     H_    0.238770 0.558343 0.272519 0.210417
N15   N     N_3   0.834014 0.047269 0.112801 -0.622649
H45   H     H_    0.877380 0.000585 0.076918 0.225892
H46   H     H_    0.857415 0.105910 0.078818 0.229243
N16   N     N_3   0.334014 0.452731 0.112801 -0.622649
H47   H     H_    0.357415 0.394090 0.078818 0.229243
H48   H     H_    0.377380 0.499415 0.076918 0.225892

loop_
_geom_bond_atom_site_label_1
_geom_bond_atom_site_label_2
_ccdc_geom_bond_type
C58   C62   A    
Cu2   Cu4   S    
C42   H12   S    
C40   C60   A    
C31   O13   A    
C34   O16   A    
C49   H19   S    
C13   C32   S    
C52   H22   S    
C33   O11   A    
Cu4   O7    S    
C14   C31   S    
C1    C62   S    
C53   C59   A    
C54   C60   A    
C3    C64   S    
N13   H42   S    
C4    C63   S    
C50   C54   A    
C32   O14   A    
C47   H17   S    
C17   N13   S    
C19   C21   A    
N14   H44   S    
Cu1   O2    S    
C5    C11   A    
C44   H14   S    
C7    H3    S    
C49   C53   A    
C37   N5    S    
C2    O6    A    
N15   H45   S    
C21   H5    S    
N6    H27   S    
C18   C20   A    
C28   N2    A    
Cu4   O16   S    
Cu2   O4    S    
C9    C13   A    
C5    H1    S    
C38   C58   A    
C11   C15   A    
Cu3   O13   S    
C12   C16   A    
C56   C58   A    
Cu1   Cu3   S    
C33   O15   A    
C45   C49   A    
Cu2   O11   S    
C15   C34   S    
N16   H48   S    
C2    C61   S    
C50   H20   S    
Cu2   O12   S    
C32   O10   A    
N10   H35   S    
C31   O9    A    
C6    H2    S    
C45   H15   S    
C10   N10   S    
Cu1   O9    S    
C29   N1    A    
C44   C46   A    
C13   C53   A    
N7    H30   S    
C21   C23   A    
C26   N4    A    
C8    H4    S    
N16   H47   S    
Cu1   N3    S    
C17   C27   A    
C18   C28   A    
N14   H43   S    
C30   H24   S    
C10   C14   A    
C1    O1    A    
C24   H8    S    
C48   H18   S    
C47   C51   A    
C51   C55   A    
C35   H9    S    
C9    N9    S    
N10   H36   S    
Cu4   O15   S    
C15   C55   A    
Cu2   O3    S    
C16   C56   A    
N12   H40   S    
N9    H34   S    
C3    O3    A    
C16   C33   S    
C38   N6    S    
C36   N4    A    
Cu3   O14   S    
C48   C52   A    
C39   C59   A    
C41   C47   A    
C5    C61   A    
C42   C48   A    
C18   N14   S    
C43   C45   A    
C7    C63   A    
C8    C64   A    
C46   H16   S    
C14   C54   A    
C20   C22   A    
C25   N3    A    
C55   C57   A    
N9    H33   S    
C43   H13   S    
C20   N16   S    
C27   N1    A    
C22   H6    S    
N8    H32   S    
N11   H37   S    
C1    O5    A    
Cu1   O10   S    
C29   H23   S    
Cu3   O5    S    
Cu2   N4    S    
N5    H25   S    
C3    O7    A    
N15   H46   S    
C46   C50   A    
C19   N15   S    
C59   C63   A    
Cu4   O8    S    
C23   H7    S    
N11   H38   S    
C11   N11   S    
C41   H11   S    
C39   C43   A    
N7    H29   S    
C57   C61   A    
N12   H39   S    
C35   N3    A    
C25   C27   A    
C40   N8    S    
N13   H41   S    
C29   C35   A    
C26   C28   A    
C30   C36   A    
C60   C64   A    
C34   O12   A    
C6    C62   A    
C4    O4    A    
Cu1   O1    S    
C30   N2    A    
C36   H10   S    
C51   H21   S    
C6    C12   A    
C24   C26   A    
C39   N7    S    
C4    O8    A    
C17   C19   A    
N6    H28   S    
C22   C24   A    
C23   C25   A    
C37   C41   A    
Cu4   N2    S    
C38   C42   A    
C7    C9    A    
C40   C44   A    
C2    O2    A    
C8    C10   A    
Cu3   N1    S    
C12   N12   S    
N8    H31   S    
C37   C57   A    
C52   C56   A    
Cu3   O6    S    
N5    H26   S    
