data_mof_unit_46656.cif
_audit_creation_date              2012-10-26T21:11:02-0400
_audit_creation_method            fapswitch 2.2
_symmetry_space_group_name_H-M    P1
_symmetry_Int_Tables_number       1
_space_group_crystal_system       triclinic
_cell_length_a                    10.986694
_cell_length_b                    11.008591
_cell_length_c                    13.060603
_cell_angle_alpha                 91.025426
_cell_angle_beta                  91.615306
_cell_angle_gamma                 89.971657
_cell_volume                      1578.77348136

loop_
_atom_site_label
_atom_site_type_symbol
_atom_type_description
_atom_site_fract_x
_atom_site_fract_y
_atom_site_fract_z
_atom_type_partial_charge
C1    C     C_R   0.499548 0.259400 0.499414 0.547979
C2    C     C_R   0.552459 0.859941 0.761865 0.249145
C3    C     C_R   0.546112 0.118961 0.308244 0.028063
C4    C     C_R   0.453951 0.881019 0.691786 0.028035
C5    C     C_R   0.667411 0.129169 0.274773 0.141949
C6    C     C_R   0.332606 0.872009 0.725405 0.141695
C7    C     C_R   0.689387 0.146395 0.170412 0.298627
C8    C     C_R   0.310612 0.854864 0.829771 0.298446
C9    C     C_R   0.590502 0.158901 0.099799 0.081034
C10   C     C_R   0.409465 0.841114 0.900223 0.081117
C11   C     C_R   0.524164 0.934620 0.409115 0.076771
C12   C     C_R   0.500564 0.740596 0.500602 0.547826
C13   C     C_R   0.476464 0.065374 0.591020 0.076819
C14   C     C_R   0.501081 0.872810 0.500846 -0.049304
C15   C     C_R   0.499292 0.127183 0.499230 -0.049232
C16   C     C_R   0.259494 0.492200 0.498399 0.586646
C17   C     C_R   0.740508 0.507835 0.501602 0.586280
C18   C     C_R   0.477955 0.939033 0.591889 -0.016443
C19   C     C_R   0.522473 0.060955 0.408209 -0.016542
C20   C     C_1   0.500067 0.499923 0.173429 0.138245
C21   C     C_1   0.499901 0.500050 0.826570 0.137888
C22   C     C_1   0.500035 0.499889 0.050699 0.000549
C23   C     C_R   0.873253 0.509262 0.503411 0.017029
C24   C     C_1   0.499898 0.500056 0.949299 0.000200
C25   C     C_R   0.196222 0.638766 0.167175 -0.148022
C26   C     C_R   0.803180 0.362080 0.832839 -0.147953
C27   C     C_R   0.162910 0.628512 0.268948 -0.144091
C28   C     C_R   0.836700 0.372132 0.731105 -0.143863
C29   C     C_R   0.113204 0.520040 0.303249 0.053774
C30   C     C_R   0.886877 0.480388 0.696808 0.053754
C31   C     C_R   0.098143 0.420493 0.234765 0.116030
C32   C     C_R   0.902326 0.579896 0.765296 0.116634
C33   C     C_R   0.127681 0.431694 0.130851 0.178701
C34   C     C_R   0.126757 0.490834 0.496596 0.017352
C35   C     C_R   0.872522 0.568897 0.869170 0.178801
C36   C     C_R   0.177811 0.541416 0.096897 0.247937
C37   C     C_R   0.821850 0.459406 0.903097 0.247685
C38   C     C_R   0.932385 0.530292 0.410927 0.070286
C39   C     C_R   0.067624 0.469774 0.589070 0.070620
C40   C     C_R   0.941465 0.484153 0.593960 -0.012456
C41   C     C_R   0.058566 0.516054 0.406067 -0.012454
C42   C     C_R   0.470779 0.159060 0.134492 0.111687
C43   C     C_R   0.529114 0.839674 0.865360 0.111603
C44   C     C_R   0.447499 0.138861 0.238007 0.248789
Cu1   Cu    Cu3+1 0.499990 0.499990 0.592680 1.003005
Cu2   Cu    Cu3+1 0.500010 0.500010 0.407320 1.002965
H1    H     H_    0.233338 0.724062 0.142586 0.134310
H2    H     H_    0.181583 0.804117 0.654288 0.249369
H3    H     H_    0.812682 0.155865 0.065358 0.347248
H4    H     H_    0.187384 0.846446 0.934963 0.347176
H5    H     H_    0.627876 0.815924 0.326124 0.268798
H6    H     H_    0.475951 0.822586 0.287760 0.256983
H7    H     H_    0.373062 0.183984 0.674413 0.269176
H8    H     H_    0.525221 0.177478 0.712205 0.256595
H9    H     H_    0.106696 0.238654 0.253831 0.299920
H10   H     H_    0.965111 0.293974 0.230530 0.272225
H11   H     H_    0.894673 0.761765 0.746088 0.300088
H12   H     H_    0.765643 0.276958 0.857410 0.134153
H13   H     H_    0.035955 0.705830 0.769756 0.270986
H14   H     H_    0.138176 0.346924 0.988934 0.285248
H15   H     H_    0.008164 0.325769 0.050118 0.256418
H16   H     H_    0.862150 0.653751 0.011072 0.285329
H17   H     H_    0.992098 0.674873 0.949820 0.256124
H18   H     H_    0.899987 0.652898 0.298180 0.237131
H19   H     H_    0.868894 0.506000 0.263343 0.258635
H20   H     H_    0.099834 0.347008 0.701722 0.237218
H21   H     H_    0.131251 0.493807 0.736649 0.258540
H22   H     H_    0.571853 0.249760 0.966818 0.249554
H23   H     H_    0.172946 0.706188 0.320592 0.128123
H24   H     H_    0.567817 0.096841 0.953771 0.269543
H25   H     H_    0.426617 0.749309 0.032758 0.249435
H26   H     H_    0.433758 0.901914 0.046456 0.269726
H27   H     H_    0.326044 0.256195 0.086248 0.281067
H28   H     H_    0.312412 0.104380 0.065106 0.283645
H29   H     H_    0.688216 0.892305 0.934663 0.283593
H30   H     H_    0.672748 0.740693 0.913186 0.280961
H31   H     H_    0.322230 0.134214 0.341446 0.331846
H32   H     H_    0.677643 0.863706 0.658310 0.331888
H33   H     H_    0.826381 0.294474 0.679471 0.127991
H34   H     H_    0.237149 0.634772 0.983626 0.333235
H35   H     H_    0.761285 0.366562 0.016198 0.333553
H36   H     H_    0.744904 0.101874 0.419130 0.216118
H37   H     H_    0.817259 0.199005 0.346322 0.249005
H38   H     H_    0.255215 0.899734 0.581103 0.216011
N1    N     N_1   0.500030 0.500030 0.268070 -0.176425
N2    N     N_3   0.897687 0.668886 0.939090 -0.614880
N3    N     N_3   0.863599 0.570866 0.322398 -0.592643
N4    N     N_3   0.136379 0.428989 0.677544 -0.592616
N5    N     N_3   0.611673 0.169193 0.992451 -0.671552
N6    N     N_3   0.388384 0.830730 0.007588 -0.671792
N7    N     N_3   0.372109 0.178136 0.062590 -0.604654
N8    N     N_3   0.627664 0.819235 0.937079 -0.604847
N9    N     N_1   0.499970 0.499970 0.731930 -0.176312
N10   N     N_3   0.770830 0.116110 0.344080 -0.552449
N11   N     N_3   0.229229 0.886305 0.656242 -0.552583
N12   N     N_3   0.551889 0.871826 0.314905 -0.603919
N13   N     N_3   0.449186 0.128172 0.685337 -0.603815
N14   N     N_3   0.047182 0.309801 0.270730 -0.618702
N15   N     N_3   0.953924 0.690324 0.729380 -0.619128
N16   N     N_3   0.102577 0.331743 0.060887 -0.615258
O1    O     O_R   0.499980 0.319630 0.578260 -0.508344
O2    O     O_3   0.793601 0.448996 0.004901 -0.732925
O3    O     O_3   0.809094 0.145896 0.140334 -0.686911
O4    O     O_3   0.190964 0.856519 0.860010 -0.686679
O5    O     O_3   0.327162 0.133583 0.265977 -0.710454
O6    O     O_3   0.672807 0.864085 0.733781 -0.710186
O7    O     O_R   0.500020 0.680370 0.421740 -0.508231
O8    O     O_R   0.500000 0.319650 0.421740 -0.499210
O9    O     O_R   0.500000 0.680350 0.578260 -0.499130
O10   O     O_R   0.319630 0.500000 0.578260 -0.461552
O11   O     O_R   0.680370 0.500000 0.421740 -0.461635
O12   O     O_R   0.319650 0.500020 0.421740 -0.500239
O13   O     O_R   0.680350 0.499980 0.578260 -0.500264
O14   O     O_3   0.205759 0.552018 0.995044 -0.733238

loop_
_geom_bond_atom_site_label_1
_geom_bond_atom_site_label_2
_ccdc_geom_bond_type
C11   N12   S    
H4    O4    S    
H36   N10   S    
H2    N11   S    
Cu2   O12   S    
C27   C29   A    
H13   N15   S    
C14   C18   A    
H10   N14   S    
C36   O14   S    
C5    N10   S    
C17   O13   A    
C44   O5    S    
C15   C19   A    
H16   N2    S    
C11   C19   A    
H21   N4    S    
C17   C23   S    
C13   C18   A    
C35   C37   A    
H20   N4    S    
C37   O2    S    
C35   N2    S    
Cu1   O9    S    
C23   C40   A    
H11   N15   S    
C33   C36   A    
H26   N6    S    
C42   N7    S    
C31   N14   S    
C28   H33   S    
C16   C34   S    
Cu2   O8    S    
C31   C33   A    
H8    N13   S    
C3    C19   S    
C1    C15   S    
C25   H1    S    
H18   N3    S    
C27   H23   S    
H5    N12   S    
C3    C5    A    
Cu2   N1    S    
C4    C18   S    
Cu1   N9    S    
C7    O3    S    
Cu2   O11   S    
Cu2   O7    S    
C34   C41   A    
C42   C44   A    
C39   N4    S    
C17   O11   A    
C12   O9    A    
H19   N3    S    
H35   O2    S    
C3    C44   A    
C16   O10   A    
C34   C39   A    
C32   C35   A    
H27   N7    S    
C38   C41   A    
C4    C6    A    
C9    N5    S    
C39   C40   A    
C5    C7    A    
Cu1   O10   S    
C6    C8    A    
C1    O8    A    
H7    N13   S    
Cu1   Cu2   S    
H37   N10   S    
C2    O6    S    
H38   N11   S    
H28   N7    S    
C2    C4    A    
C8    O4    S    
C2    C43   A    
C20   N1    T    
H22   N5    S    
C9    C42   A    
C30   C40   S    
C26   H12   S    
Cu1   O1    S    
H29   N8    S    
H30   N8    S    
H34   O14   S    
C13   C15   A    
H17   N2    S    
C22   C24   T    
H15   N16   S    
C20   C22   S    
C1    O1    A    
C16   O12   A    
C7    C9    A    
C29   C41   S    
C10   C43   A    
C12   C14   S    
H14   N16   S    
H3    O3    S    
C12   O7    A    
C26   C37   A    
C25   C27   A    
C23   C38   A    
C26   C28   A    
C43   N8    S    
C32   N15   S    
C38   N3    S    
H32   O6    S    
C33   N16   S    
H31   O5    S    
C29   C31   A    
C30   C32   A    
H25   N6    S    
C21   N9    T    
H9    N14   S    
C28   C30   A    
C11   C14   A    
H6    N12   S    
C13   N13   S    
C25   C36   A    
H24   N5    S    
Cu1   O13   S    
C10   N6    S    
C8    C10   A    
C6    N11   S    
C21   C24   S    
