data_mof_unit_57668.cif
_audit_creation_date              2012-12-10T17:27:55-0500
_audit_creation_method            fapswitch 2.2
_symmetry_space_group_name_H-M    P1
_symmetry_Int_Tables_number       1
_space_group_crystal_system       triclinic
_cell_length_a                    10.64458
_cell_length_b                    11.993802
_cell_length_c                    12.830834
_cell_angle_alpha                 93.908188
_cell_angle_beta                  90.582406
_cell_angle_gamma                 86.556633
_cell_volume                      1631.30945731

loop_
_atom_site_label
_atom_site_type_symbol
_atom_type_description
_atom_site_fract_x
_atom_site_fract_y
_atom_site_fract_z
_atom_type_partial_charge
C1    C     C_R   0.496849 0.522643 0.700492 0.918366
C2    C     C_R   0.418918 0.627916 0.862109 0.459583
C3    C     C_R   0.549069 0.453383 0.868466 -0.352326
C4    C     C_R   0.739495 0.500160 0.498149 0.844010
C5    C     C_R   0.533043 0.455172 0.974753 0.191097
C6    C     C_R   0.459711 0.544246 0.025739 0.110387
C7    C     C_R   0.444895 0.546849 0.132287 -0.220468
C8    C     C_R   0.572585 0.371984 0.137899 -0.217058
C9    C     C_R   0.587636 0.368362 0.030641 -0.194033
C10   C     C_R   0.370459 0.954615 0.412948 -0.330451
C11   C     C_R   0.384387 0.838303 0.420082 0.017501
C12   C     C_R   0.935298 0.436925 0.407223 0.037354
C13   C     C_R   0.558429 0.858141 0.535390 -0.056801
C14   C     C_R   0.548166 0.975586 0.530581 0.104795
C15   C     C_R   0.452576 0.024308 0.468664 0.085333
C16   C     C_R   0.501931 0.477453 0.299594 0.943248
C17   C     C_R   0.442046 0.141783 0.464139 -0.046770
C18   C     C_R   0.615752 0.161663 0.579777 0.032002
C19   C     C_R   0.630238 0.045301 0.586335 -0.345094
C20   C     C_R   0.260521 0.498802 0.494853 0.981071
C21   C     C_R   0.870339 0.378542 0.325821 -0.180533
C22   C     C_R   0.935655 0.318718 0.244705 -0.245847
C23   C     C_R   0.871439 0.499837 0.489424 -0.048558
C24   C     C_R   0.066103 0.317198 0.242251 -0.194833
C25   C     C_R   0.132184 0.375371 0.320822 0.574593
C26   C     C_R   0.067389 0.435478 0.405417 -0.038761
C27   C     C_3   0.399372 0.810932 0.822484 0.090313
C28   C     C_3   0.327976 0.892876 0.753779 -0.308641
C29   C     C_3   0.373362 0.010928 0.772539 -0.960300
C30   C     C_R   0.933360 0.563665 0.565777 -0.211672
C31   C     C_R   0.061714 0.562226 0.564836 -0.217591
C32   C     C_R   0.128123 0.497344 0.487290 -0.104367
C33   C     C_R   0.504068 0.462903 0.188202 -0.007155
C34   C     C_R   0.490232 0.537376 0.812134 -0.150877
C35   C     C_R   0.402765 0.629689 0.969824 -0.322092
F1    F     F_    0.258426 0.374421 0.310465 -0.703272
H1    H     H_    0.882127 0.612463 0.627629 0.141867
H2    H     H_    0.768854 0.379870 0.323040 0.152157
H3    H     H_    0.884772 0.274567 0.182846 0.160856
H4    H     H_    0.116471 0.271845 0.178173 0.163969
H5    H     H_    0.109879 0.610255 0.626081 0.169889
H6    H     H_    0.389865 0.615764 0.172222 0.149405
H7    H     H_    0.618078 0.306648 0.181701 0.148181
H8    H     H_    0.343262 0.695707 0.009194 0.147815
H9    H     H_    0.501267 0.807581 0.802247 0.133105
H10   H     H_    0.386918 0.842450 0.905602 0.130381
H11   H     H_    0.341438 0.864109 0.670318 0.237993
H12   H     H_    0.642934 0.299141 0.991800 0.134784
H13   H     H_    0.225724 0.894770 0.771084 0.221735
H14   H     H_    0.351160 0.044473 0.853513 0.263659
H15   H     H_    0.325516 0.066774 0.716961 0.274720
H16   H     H_    0.476508 0.010472 0.760616 0.266574
H17   H     H_    0.605045 0.384797 0.828952 0.170174
H18   H     H_    0.369786 0.180712 0.416325 0.165279
H19   H     H_    0.679192 0.215353 0.622684 0.131706
H20   H     H_    0.296096 0.989624 0.364587 0.150995
H21   H     H_    0.704520 0.010303 0.634773 0.142803
H22   H     H_    0.320686 0.784636 0.377450 0.136088
H23   H     H_    0.630458 0.819231 0.583433 0.123011
N1    N     N_R   0.523130 0.207800 0.519340 -0.103610
N2    N     N_R   0.476870 0.792180 0.480660 -0.104785
O1    O     O_R   0.506170 0.421690 0.658830 -0.631047
O2    O     O_R   0.491330 0.609320 0.646410 -0.596752
O3    O     O_R   0.690660 0.406170 0.506210 -0.635960
O4    O     O_R   0.675810 0.593790 0.493790 -0.623776
O5    O     O_R   0.508670 0.390680 0.353590 -0.585295
O6    O     O_R   0.493830 0.578310 0.341170 -0.638326
O7    O     O_R   0.324190 0.406210 0.506210 -0.584789
O8    O     O_R   0.309340 0.593830 0.493790 -0.631074
O9    O     O_3   0.350888 0.704258 0.804129 -0.636312
Zn1   Zn    Zn3+2 0.509910 0.374720 0.508290 0.969414
Zn2   Zn    Zn3+2 0.490090 0.625280 0.491710 0.953012

loop_
_geom_bond_atom_site_label_1
_geom_bond_atom_site_label_2
_ccdc_geom_bond_type
C2    C35   A    
O1    Zn1   S    
O8    Zn2   S    
C28   H11   S    
C26   C32   A    
C6    C7    A    
C13   H23   S    
C16   C33   S    
C11   H22   S    
C7    C33   A    
C28   H13   S    
C4    O3    A    
C31   C32   A    
N1    Zn1   S    
C8    H7    S    
C10   C15   A    
C1    O1    A    
C27   H9    S    
C25   C26   A    
C13   N2    A    
C16   O6    A    
C2    O9    S    
C13   C14   A    
O2    Zn2   S    
C5    C9    A    
C35   H8    S    
C3    H17   S    
C12   C23   A    
C2    C34   A    
C4    O4    A    
C27   O9    S    
C12   C21   A    
C18   H19   S    
O7    Zn1   S    
C5    C6    A    
C22   H3    S    
C1    O2    A    
C27   H10   S    
C18   N1    A    
C28   C29   S    
C24   H4    S    
C1    C34   S    
O6    Zn2   S    
C8    C33   A    
C29   H15   S    
C30   C31   A    
C22   C24   A    
C20   O8    A    
C7    H6    S    
C16   O5    A    
C10   C11   A    
C17   N1    A    
O4    Zn2   S    
C23   C30   A    
C10   H20   S    
C24   C25   A    
N2    Zn2   S    
C9    H12   S    
C18   C19   A    
C20   C32   S    
O3    Zn1   S    
C27   C28   S    
C15   C17   A    
C4    C23   S    
C30   H1    S    
C14   C15   A    
C14   C19   A    
C19   H21   S    
C31   H5    S    
C3    C34   A    
C3    C5    A    
C25   F1    S    
C21   C22   A    
C17   H18   S    
C20   O7    A    
C6    C35   A    
C21   H2    S    
O5    Zn1   S    
C29   H14   S    
C12   C26   A    
C8    C9    A    
C11   N2    A    
C29   H16   S    
