data_mof_unit_63053.cif
_audit_creation_date              2012-12-10T17:55:59-0500
_audit_creation_method            fapswitch 2.2
_symmetry_space_group_name_H-M    P1
_symmetry_Int_Tables_number       1
_space_group_crystal_system       monoclinic
_cell_length_a                    30.168458
_cell_length_b                    30.651628
_cell_length_c                    21.444751
_cell_angle_alpha                 90.0
_cell_angle_beta                  134.097201
_cell_angle_gamma                 90.0
_cell_volume                      14241.2810202

loop_
_atom_site_label
_atom_site_type_symbol
_atom_type_description
_atom_site_fract_x
_atom_site_fract_y
_atom_site_fract_z
_atom_type_partial_charge
C1    C     C_R   0.308965 0.809497 0.118574 0.794343
C2    C     C_R   0.477216 0.670577 0.000730 -0.205756
C3    C     C_R   0.408158 0.160980 0.255814 -0.203881
C4    C     C_R   0.059261 0.628318 0.679692 -0.203214
C5    C     C_R   0.940739 0.628321 0.320313 -0.203214
C6    C     C_R   0.559260 0.128318 0.679693 -0.203211
C7    C     C_R   0.440738 0.128319 0.320309 -0.203217
C8    C     C_R   0.091288 0.592854 0.684277 -0.090213
C9    C     C_R   0.908712 0.592854 0.315724 -0.090208
C10   C     C_R   0.591288 0.092855 0.684277 -0.090215
C11   C     C_R   0.408712 0.092855 0.315723 -0.090210
C12   C     C_R   0.154691 0.591277 0.754584 0.127166
C13   C     C_R   0.022782 0.170577 0.999267 -0.205757
C14   C     C_R   0.845309 0.591274 0.245412 0.127162
C15   C     C_R   0.654692 0.091277 0.754583 0.127165
C16   C     C_R   0.345309 0.091276 0.245415 0.127168
C17   C     C_3   0.211287 0.565538 0.795952 -0.469153
C18   C     C_3   0.788713 0.565532 0.204038 -0.469160
C19   C     C_3   0.711289 0.065539 0.795949 -0.469147
C20   C     C_3   0.288714 0.065537 0.204046 -0.469162
C21   C     C_3   0.246616 0.600517 0.867921 -0.478002
C22   C     C_3   0.753385 0.600511 0.132069 -0.477985
C23   C     C_3   0.746617 0.100518 0.867918 -0.478001
C24   C     C_R   0.977218 0.170577 0.000733 -0.205757
C25   C     C_3   0.253386 0.100516 0.132077 -0.478006
C26   C     C_R   0.940872 0.559355 0.381328 0.797245
C27   C     C_R   0.059128 0.559355 0.618672 0.797244
C28   C     C_R   0.440872 0.059355 0.381328 0.797245
C29   C     C_R   0.559128 0.059355 0.618672 0.797245
C30   C     C_R   0.440663 0.940626 0.381008 0.790644
C31   C     C_R   0.559337 0.940626 0.618992 0.790644
C32   C     C_R   0.940663 0.440626 0.381008 0.790643
C33   C     C_R   0.059337 0.440626 0.618992 0.790643
C34   C     C_R   0.164430 0.749883 0.000168 0.801917
C35   C     C_R   0.476266 0.829511 0.998803 -0.203628
C36   C     C_R   0.835570 0.749883 0.999832 0.801920
C37   C     C_R   0.664430 0.249883 0.000168 0.801918
C38   C     C_R   0.335570 0.249883 0.999832 0.801919
C39   C     C_R   0.594681 0.789692 0.003547 -0.238730
C40   C     C_R   0.405320 0.789692 0.996456 -0.238731
C41   C     C_R   0.094680 0.289692 0.003546 -0.238730
C42   C     C_R   0.905320 0.289692 0.996454 -0.238730
C43   C     C_R   0.616422 0.750045 0.000830 -0.057232
C44   C     C_R   0.383578 0.750045 0.999170 -0.057230
C45   C     C_R   0.116422 0.250045 0.000830 -0.057231
C46   C     C_R   0.523737 0.829511 0.001204 -0.203629
C47   C     C_R   0.883578 0.250045 0.999170 -0.057230
C48   C     C_R   0.591943 0.710398 0.998029 -0.241536
C49   C     C_R   0.408055 0.710398 0.001967 -0.241536
C50   C     C_R   0.091944 0.210398 0.998031 -0.241537
C51   C     C_R   0.908056 0.210398 0.001969 -0.241537
C52   C     C_R   0.546164 0.710086 0.999141 0.110676
C53   C     C_R   0.453834 0.710086 0.000855 0.110676
C54   C     C_R   0.046165 0.210086 0.999143 0.110676
C55   C     C_R   0.953835 0.210086 0.000857 0.110676
C56   C     C_R   0.523425 0.750047 0.000242 0.061491
C57   C     C_R   0.976264 0.329511 0.998799 -0.203629
C58   C     C_R   0.476575 0.750047 0.999758 0.061491
C59   C     C_R   0.023425 0.250047 0.000242 0.061491
C60   C     C_R   0.976575 0.250047 0.999758 0.061491
C61   C     C_R   0.023735 0.329511 0.001201 -0.203629
C62   C     C_R   0.406463 0.844114 0.246885 0.093428
C63   C     C_R   0.593536 0.844109 0.753104 0.093437
C64   C     C_R   0.906463 0.344112 0.246890 0.093432
C65   C     C_R   0.691035 0.809497 0.881426 0.794345
C66   C     C_R   0.093537 0.344111 0.753108 0.093434
C67   C     C_R   0.342125 0.843574 0.183594 -0.074414
C68   C     C_R   0.657874 0.843575 0.816405 -0.074424
C69   C     C_R   0.842125 0.343575 0.183594 -0.074418
C70   C     C_R   0.157875 0.343575 0.816405 -0.074420
C71   C     C_R   0.310065 0.879086 0.178148 -0.196368
C72   C     C_R   0.689933 0.879090 0.821859 -0.196366
C73   C     C_R   0.810066 0.379088 0.178145 -0.196368
C74   C     C_R   0.189933 0.379088 0.821856 -0.196367
C75   C     C_R   0.342231 0.911230 0.242821 -0.205057
C76   C     C_R   0.808965 0.309497 0.118574 0.794342
C77   C     C_R   0.657766 0.911234 0.757186 -0.205058
C78   C     C_R   0.842232 0.411232 0.242818 -0.205058
C79   C     C_R   0.157767 0.411233 0.757183 -0.205058
C80   C     C_R   0.406780 0.908739 0.311480 -0.083451
C81   C     C_R   0.593219 0.908739 0.688519 -0.083440
C82   C     C_R   0.906780 0.408739 0.311480 -0.083446
C83   C     C_R   0.093219 0.408739 0.688519 -0.083445
C84   C     C_R   0.438333 0.876514 0.309188 0.135417
C85   C     C_R   0.561666 0.876509 0.690801 0.135412
C86   C     C_R   0.938334 0.376512 0.309193 0.135415
C87   C     C_R   0.191035 0.309497 0.881426 0.794344
C88   C     C_R   0.061666 0.376511 0.690805 0.135414
C89   C     C_3   0.486653 0.845359 0.378477 -0.470982
C90   C     C_3   0.513354 0.845352 0.621508 -0.471001
C91   C     C_3   0.986649 0.345356 0.378484 -0.470992
C92   C     C_3   0.013352 0.345355 0.621514 -0.470995
C93   C     C_R   0.335479 0.749995 0.999704 0.803944
C94   C     C_R   0.664521 0.749995 0.000296 0.803944
C95   C     C_R   0.835479 0.249995 0.999704 0.803944
C96   C     C_R   0.164521 0.249995 0.000296 0.803944
C97   C     C_3   0.451436 0.809730 0.309891 -0.444221
C98   C     C_R   0.547477 0.790006 0.001791 0.108523
C99   C     C_3   0.548572 0.809723 0.690094 -0.444205
C100  C     C_3   0.951432 0.309727 0.309897 -0.444214
C101  C     C_3   0.048569 0.309726 0.690100 -0.444212
C102  C     C_R   0.867809 0.748054 0.920807 -0.204044
C103  C     C_R   0.132190 0.748054 0.079193 -0.204045
C104  C     C_R   0.367809 0.248054 0.920807 -0.204045
C105  C     C_R   0.632190 0.248054 0.079193 -0.204044
C106  C     C_R   0.883806 0.749593 0.999644 -0.069332
C107  C     C_R   0.116194 0.749593 0.000356 -0.069331
C108  C     C_R   0.383806 0.249593 0.999644 -0.069332
C109  C     C_R   0.452525 0.790006 0.998212 0.108523
C110  C     C_R   0.616194 0.249593 0.000355 -0.069331
C111  C     C_R   0.945760 0.751000 0.078320 -0.216870
C112  C     C_R   0.054240 0.751000 0.921680 -0.216870
C113  C     C_R   0.445760 0.251000 0.078320 -0.216870
C114  C     C_R   0.554240 0.250999 0.921680 -0.216870
C115  C     C_R   0.992303 0.750166 0.078912 0.082578
C116  C     C_R   0.007697 0.750166 0.921087 0.082578
C117  C     C_R   0.492303 0.250166 0.078912 0.082578
C118  C     C_R   0.507697 0.250165 0.921087 0.082578
C119  C     C_R   0.976468 0.749425 0.999569 0.029576
C120  C     C_R   0.047476 0.290006 0.001789 0.108523
C121  C     C_R   0.023532 0.749425 0.000431 0.029576
C122  C     C_R   0.476468 0.249425 0.999569 0.029576
C123  C     C_R   0.523532 0.249425 0.000431 0.029576
C124  C     C_R   0.913651 0.748766 0.919526 0.065706
C125  C     C_R   0.086348 0.748766 0.080474 0.065707
C126  C     C_R   0.413651 0.248766 0.919526 0.065706
C127  C     C_R   0.586349 0.248766 0.080474 0.065707
C128  C     C_R   0.054369 0.750021 0.157750 -0.223764
C129  C     C_R   0.945631 0.750020 0.842250 -0.223763
C130  C     C_R   0.554369 0.250021 0.157750 -0.223764
C131  C     C_R   0.952524 0.290006 0.998211 0.108523
C132  C     C_R   0.445631 0.250020 0.842250 -0.223763
C133  C     C_R   0.101366 0.749006 0.159246 0.145690
C134  C     C_R   0.898633 0.749005 0.840754 0.145690
C135  C     C_R   0.601367 0.249006 0.159245 0.145690
C136  C     C_R   0.398633 0.249005 0.840754 0.145690
C137  C     C_R   0.185518 0.621638 0.817956 0.126713
C138  C     C_R   0.814482 0.621636 0.182039 0.126713
C139  C     C_R   0.685519 0.121639 0.817955 0.126711
C140  C     C_R   0.314482 0.121638 0.182043 0.126717
C141  C     C_R   0.190595 0.690633 0.881498 0.796531
C142  C     C_R   0.522780 0.670577 0.999263 -0.205757
C143  C     C_R   0.809404 0.690633 0.118501 0.796532
C144  C     C_R   0.690596 0.190633 0.881498 0.796531
C145  C     C_R   0.309405 0.190633 0.118501 0.796531
C146  C     C_R   0.156337 0.657568 0.815188 -0.085127
C147  C     C_R   0.843663 0.657568 0.184812 -0.085134
C148  C     C_R   0.656337 0.157568 0.815188 -0.085126
C149  C     C_R   0.343663 0.157568 0.184812 -0.085128
C150  C     C_R   0.091841 0.660979 0.744187 -0.203879
C151  C     C_R   0.908159 0.660981 0.255818 -0.203876
C152  C     C_R   0.591840 0.160979 0.744188 -0.203879
Cu1   Cu    Cu3+1 0.280880 0.719080 0.061820 0.964539
Cu2   Cu    Cu3+1 0.455570 0.999980 0.500010 0.960244
Cu3   Cu    Cu3+1 0.044430 0.499980 0.499990 0.960245
Cu4   Cu    Cu3+1 0.955570 0.499980 0.500010 0.960245
Cu5   Cu    Cu3+1 0.719120 0.719080 0.938180 0.964537
Cu6   Cu    Cu3+1 0.780880 0.219080 0.061820 0.964539
Cu7   Cu    Cu3+1 0.219120 0.219080 0.938180 0.964538
Cu8   Cu    Cu3+1 0.219090 0.780890 0.938220 0.959339
Cu9   Cu    Cu3+1 0.780910 0.780890 0.061780 0.959337
Cu10  Cu    Cu3+1 0.719090 0.280890 0.938220 0.959338
Cu11  Cu    Cu3+1 0.280910 0.280890 0.061780 0.959338
Cu12  Cu    Cu3+1 0.544430 0.999980 0.499990 0.960244
H1    H     H_    0.613592 0.820212 0.005021 0.146151
H2    H     H_    0.180565 0.747274 0.138914 0.180159
H3    H     H_    0.319435 0.247273 0.861086 0.180159
H4    H     H_    0.680565 0.247274 0.138914 0.180159
H5    H     H_    0.957601 0.751847 0.139053 0.142874
H6    H     H_    0.042399 0.751846 0.860946 0.142873
H7    H     H_    0.457601 0.251847 0.139053 0.142873
H8    H     H_    0.542399 0.251846 0.860946 0.142873
H9    H     H_    0.066477 0.750485 0.218634 0.169397
H10   H     H_    0.933523 0.750484 0.781365 0.169396
H11   H     H_    0.566477 0.250485 0.218634 0.169397
H12   H     H_    0.386410 0.820212 0.994985 0.146150
H13   H     H_    0.433523 0.250484 0.781365 0.169396
H14   H     H_    0.066799 0.688354 0.739182 0.154121
H15   H     H_    0.933200 0.688358 0.260826 0.154124
H16   H     H_    0.566798 0.188353 0.739185 0.154119
H17   H     H_    0.433200 0.188355 0.260819 0.154123
H18   H     H_    0.009693 0.631160 0.625978 0.159413
H19   H     H_    0.990307 0.631164 0.374030 0.159409
H20   H     H_    0.509692 0.131159 0.625981 0.159413
H21   H     H_    0.490306 0.131161 0.374023 0.159413
H22   H     H_    0.210739 0.532971 0.818229 0.192683
H23   H     H_    0.113591 0.320212 0.005018 0.146151
H24   H     H_    0.789267 0.532966 0.181762 0.192683
H25   H     H_    0.710742 0.032972 0.818227 0.192681
H26   H     H_    0.289264 0.032970 0.181771 0.192687
H27   H     H_    0.222520 0.565471 0.756377 0.209333
H28   H     H_    0.777477 0.565463 0.243608 0.209332
H29   H     H_    0.722520 0.065473 0.756372 0.209333
H30   H     H_    0.277480 0.065469 0.243620 0.209335
H31   H     H_    0.266838 0.588090 0.931913 0.209067
H32   H     H_    0.733168 0.588085 0.068078 0.209065
H33   H     H_    0.766841 0.088091 0.931911 0.209065
H34   H     H_    0.886409 0.320212 0.994982 0.146151
H35   H     H_    0.233165 0.088090 0.068086 0.209069
H36   H     H_    0.609428 0.679869 0.996630 0.140784
H37   H     H_    0.390569 0.679868 0.003364 0.140783
H38   H     H_    0.109429 0.179868 0.996633 0.140784
H39   H     H_    0.890570 0.179868 0.003367 0.140783
H40   H     H_    0.277896 0.620823 0.869447 0.192140
H41   H     H_    0.722101 0.620815 0.130538 0.192137
H42   H     H_    0.777896 0.120826 0.869442 0.192139
H43   H     H_    0.222104 0.120822 0.130550 0.192141
H44   H     H_    0.539967 0.639691 0.998682 0.146158
H45   H     H_    0.430895 0.785005 0.321562 0.216923
H46   H     H_    0.460029 0.639691 0.001309 0.146158
H47   H     H_    0.039969 0.139691 0.998686 0.146159
H48   H     H_    0.960031 0.139691 0.001314 0.146159
H49   H     H_    0.458353 0.860398 0.997900 0.148849
H50   H     H_    0.541651 0.860398 0.002109 0.148850
H51   H     H_    0.958351 0.360398 0.997895 0.148850
H52   H     H_    0.041649 0.360398 0.002104 0.148850
H53   H     H_    0.260194 0.880778 0.126565 0.154369
H54   H     H_    0.739804 0.880786 0.873450 0.154373
H55   H     H_    0.760195 0.380781 0.126558 0.154371
H56   H     H_    0.569121 0.785002 0.678432 0.216922
H57   H     H_    0.239804 0.380783 0.873444 0.154372
H58   H     H_    0.316793 0.937366 0.240191 0.153897
H59   H     H_    0.683204 0.937373 0.759823 0.153888
H60   H     H_    0.816794 0.437369 0.240185 0.153893
H61   H     H_    0.183205 0.437370 0.759817 0.153891
H62   H     H_    0.532530 0.852385 0.402475 0.210972
H63   H     H_    0.467473 0.852372 0.597499 0.210974
H64   H     H_    0.032529 0.352379 0.402486 0.210973
H65   H     H_    0.967472 0.352377 0.597509 0.210973
H66   H     H_    0.486638 0.841272 0.429968 0.188299
H67   H     H_    0.930888 0.285004 0.321564 0.216923
H68   H     H_    0.513378 0.841269 0.570024 0.188300
H69   H     H_    0.986631 0.341271 0.429971 0.188299
H70   H     H_    0.013372 0.341270 0.570027 0.188300
H71   H     H_    0.477035 0.796215 0.294398 0.201414
H72   H     H_    0.522968 0.796203 0.705577 0.201415
H73   H     H_    0.977033 0.296210 0.294409 0.201415
H74   H     H_    0.022967 0.296207 0.705587 0.201415
H75   H     H_    0.069115 0.285003 0.678435 0.216923
H76   H     H_    0.819435 0.747273 0.861086 0.180159
I1    I     I_    0.193464 0.748504 0.283701 -0.396753
I2    I     I_    0.806536 0.748502 0.716299 -0.396753
I3    I     I_    0.693464 0.248504 0.283701 -0.396753
I4    I     I_    0.306536 0.248502 0.716299 -0.396753
O1    O     O_R   0.321150 0.768980 0.142380 -0.582921
O2    O     O_R   0.507570 0.954900 0.590190 -0.580059
O3    O     O_R   0.992430 0.454900 0.409810 -0.580059
O4    O     O_R   0.007570 0.454900 0.590190 -0.580059
O5    O     O_R   0.417320 0.954950 0.409780 -0.585308
O6    O     O_R   0.582680 0.954950 0.590220 -0.585305
O7    O     O_R   0.917320 0.454950 0.409780 -0.585307
O8    O     O_R   0.082680 0.454950 0.590220 -0.585306
O9    O     O_R   0.268980 0.821170 0.038000 -0.586877
O10   O     O_R   0.731020 0.821170 0.962000 -0.586878
O11   O     O_R   0.768980 0.321170 0.038000 -0.586877
O12   O     O_R   0.678850 0.768980 0.857620 -0.582922
O13   O     O_R   0.231020 0.321170 0.962000 -0.586878
O14   O     O_R   0.340930 0.723870 0.052190 -0.586664
O15   O     O_R   0.659070 0.723870 0.947810 -0.586664
O16   O     O_R   0.840930 0.223870 0.052190 -0.586665
O17   O     O_R   0.159070 0.223870 0.947810 -0.586664
O18   O     O_R   0.288760 0.776060 0.947810 -0.582705
O19   O     O_R   0.711240 0.776060 0.052190 -0.582705
O20   O     O_R   0.788760 0.276060 0.947810 -0.582705
O21   O     O_R   0.211240 0.276060 0.052190 -0.582705
O22   O     O_R   0.230990 0.678800 0.962040 -0.583979
O23   O     O_R   0.821150 0.268980 0.142380 -0.582921
O24   O     O_R   0.769010 0.678800 0.037960 -0.583979
O25   O     O_R   0.730990 0.178800 0.962040 -0.583979
O26   O     O_R   0.269010 0.178800 0.037960 -0.583979
O27   O     O_R   0.178820 0.731000 0.857660 -0.585775
O28   O     O_R   0.821180 0.731000 0.142340 -0.585775
O29   O     O_R   0.678820 0.231000 0.857660 -0.585775
O30   O     O_R   0.321180 0.231000 0.142340 -0.585775
O31   O     O_R   0.211210 0.723910 0.052230 -0.578186
O32   O     O_R   0.788790 0.723910 0.947770 -0.578186
O33   O     O_R   0.711210 0.223910 0.052230 -0.578186
O34   O     O_R   0.178850 0.268980 0.857620 -0.582922
O35   O     O_R   0.288790 0.223910 0.947770 -0.578186
O36   O     O_R   0.159040 0.776100 0.947850 -0.587672
O37   O     O_R   0.840960 0.776100 0.052150 -0.587672
O38   O     O_R   0.659040 0.276100 0.947850 -0.587672
O39   O     O_R   0.340960 0.276100 0.052150 -0.587672
O40   O     O_R   0.992480 0.545070 0.409820 -0.583808
O41   O     O_R   0.007520 0.545070 0.590180 -0.583809
O42   O     O_R   0.492480 0.045070 0.409820 -0.583809
O43   O     O_R   0.507520 0.045070 0.590180 -0.583810
O44   O     O_R   0.917370 0.545120 0.409780 -0.587032
O45   O     O_R   0.082630 0.545120 0.590220 -0.587032
O46   O     O_R   0.417370 0.045120 0.409780 -0.587033
O47   O     O_R   0.582630 0.045120 0.590220 -0.587032
O48   O     O_R   0.492430 0.954900 0.409810 -0.580060

loop_
_geom_bond_atom_site_label_1
_geom_bond_atom_site_label_2
_ccdc_geom_bond_type
C105  C110  A    
C107  C112  A    
C21   C137  S    
C17   H27   S    
C18   H28   S    
C128  H9    S    
Cu10  O29   S    
C97   H71   S    
C73   H55   S    
C135  I3    S    
C76   O11   A    
Cu9   O10   S    
C146  C150  A    
C77   H59   S    
Cu2   O2    S    
C70   C74   A    
C61   H52   S    
C142  H44   S    
C91   C100  S    
C35   C109  A    
C106  C111  A    
C83   C88   A    
C46   C98   A    
C126  C136  A    
C59   C60   A    
Cu3   O45   S    
C9    C26   S    
C15   C139  A    
C50   H38   S    
C3    C149  A    
C116  C121  A    
C36   C106  S    
C137  C146  A    
C42   H34   S    
C25   C140  S    
Cu6   O33   S    
C17   C21   S    
C6    H20   S    
Cu8   O9    S    
C39   H1    S    
C19   C23   S    
C25   H35   S    
C78   C82   A    
C151  H15   S    
C17   H22   S    
C68   C72   A    
C65   C68   S    
C33   C83   S    
C38   O39   A    
C74   C79   A    
C72   H54   S    
Cu12  O48   S    
C13   C54   A    
C2    C53   A    
C85   C90   S    
C57   C61   A    
Cu3   O3    S    
C4    C150  A    
C34   O31   A    
C5    C151  A    
C63   C85   A    
Cu1   O22   S    
C1    O1    A    
C66   C70   A    
C45   C50   A    
C49   C53   A    
C51   C55   A    
C41   C120  A    
C38   O35   A    
C48   C52   A    
C99   H56   S    
C31   O6    A    
Cu3   Cu4   S    
C41   C45   A    
C103  C107  A    
C36   O32   A    
C78   H60   S    
Cu11  O30   S    
C59   C120  A    
C53   C58   A    
C91   H64   S    
Cu7   O35   S    
Cu8   O36   S    
C89   H62   S    
C87   O13   A    
Cu5   O32   S    
Cu4   O7    S    
C5    C9    A    
C74   H57   S    
C41   H23   S    
Cu6   O25   S    
C97   H45   S    
Cu2   Cu12  S    
C36   O37   A    
C66   C88   A    
C43   C94   S    
C69   C76   S    
C63   C99   S    
C42   C131  A    
C110  C114  A    
C26   O40   A    
C8    C12   A    
C28   O42   A    
C61   C120  A    
Cu8   O18   S    
C66   C101  S    
C90   H68   S    
C16   C140  A    
C70   C87   S    
Cu4   O41   S    
C7    C11   A    
C54   C59   A    
C119  C121  A    
Cu9   O28   S    
C95   O16   A    
C22   H41   S    
C49   H37   S    
C139  C148  A    
C105  C127  A    
C57   H51   S    
Cu2   O43   S    
C40   H12   S    
C115  C128  A    
C93   O14   A    
C145  O26   A    
C87   O34   A    
C33   O8    A    
C147  C151  A    
C117  C122  A    
C121  C125  A    
C62   C97   S    
Cu9   O19   S    
C123  C127  A    
Cu10  O20   S    
C132  C136  A    
Cu1   O31   S    
C64   C69   A    
C19   H25   S    
C113  C117  A    
C27   O45   A    
C115  C119  A    
C2    C142  A    
C90   C99   S    
C112  C116  A    
C93   O18   A    
Cu5   O24   S    
C62   C84   A    
C63   C68   A    
Cu6   O23   S    
C18   C22   S    
C7    H21   S    
C100  H67   S    
C148  C152  A    
C130  H11   S    
C32   C82   S    
C91   H69   S    
C30   O5    A    
Cu12  O42   S    
C141  O22   A    
Cu1   Cu8   S    
C145  O30   A    
C104  H3    S    
C99   H72   S    
Cu5   O15   S    
C92   H65   S    
Cu6   O16   S    
C1    C67   S    
C56   C58   A    
C103  C125  A    
C118  C132  A    
C40   C44   A    
C140  C149  A    
C81   C85   A    
C37   O33   A    
C101  H75   S    
C13   H47   S    
C130  C135  A    
C80   C84   A    
C15   C19   S    
C32   O7    A    
C50   C54   A    
C48   H36   S    
C34   C107  S    
C127  C135  A    
C3    C7    A    
C86   C91   S    
C20   H26   S    
Cu9   O37   S    
C20   C25   S    
C143  O24   A    
C134  I2    S    
C112  H6    S    
C14   C138  A    
C75   H58   S    
C1    O9    A    
Cu1   O1    S    
C12   C17   S    
C31   O2    A    
C69   C73   A    
C89   H66   S    
C4    C8    A    
C6    C152  A    
C94   O19   A    
C29   O43   A    
C55   C60   A    
C102  C124  A    
Cu1   O14   S    
C60   C131  A    
C64   C86   A    
C51   H39   S    
C32   O3    A    
C90   H63   S    
Cu4   O4    S    
Cu5   O12   S    
C47   C51   A    
C82   C86   A    
C144  O29   A    
C111  H5    S    
C114  H8    S    
C9    C14   A    
C26   O44   A    
C27   O41   A    
C11   C16   A    
C77   C81   A    
Cu7   O17   S    
C65   O10   A    
C21   H31   S    
C35   H49   S    
C37   C110  S    
C92   C101  S    
C95   O20   A    
C129  H10   S    
Cu5   Cu9   S    
C104  C108  A    
C96   O21   A    
Cu11  O13   S    
Cu8   O27   S    
Cu10  O11   S    
C39   C98   A    
C6    C10   A    
Cu3   O8    S    
C105  H4    S    
C40   C109  A    
C124  C134  A    
C22   C138  S    
C102  H76   S    
C71   H53   S    
C144  O25   A    
C79   C83   A    
C10   C29   S    
C11   C28   S    
C18   H24   S    
C67   C71   A    
C118  C123  A    
C141  O27   A    
C38   C108  S    
C129  C134  A    
C64   C100  S    
C8    C27   S    
C4    H18   S    
C25   H43   S    
C35   C46   A    
C5    H19   S    
C145  C149  S    
C44   C49   A    
C108  C113  A    
C152  H16   S    
C96   O17   A    
C58   C109  A    
C14   C18   S    
Cu12  O6    S    
C56   C98   A    
C144  C148  S    
C24   H48   S    
C113  H7    S    
C119  C124  A    
C24   C55   A    
C143  C147  S    
C62   C67   A    
C33   O4    A    
C23   C139  S    
C10   C15   A    
C65   O12   A    
Cu3   O40   S    
C44   C93   S    
C133  I1    S    
C116  C129  A    
C88   C92   S    
C46   H50   S    
C73   C78   A    
C43   C48   A    
C29   O47   A    
C16   C20   S    
C132  H13   S    
C150  H14   S    
C30   C80   S    
Cu7   O26   S    
Cu11  O21   S    
C21   H40   S    
C22   H32   S    
C20   H30   S    
Cu10  O38   S    
C2    H46   S    
C136  I4    S    
C143  O28   A    
C39   C43   A    
Cu2   O46   S    
C52   C142  A    
C13   C24   A    
C89   C97   S    
C122  C126  A    
C72   C77   A    
C3    H17   S    
C94   O15   A    
C138  C147  A    
C100  H73   S    
C117  C130  A    
C114  C118  A    
C141  C146  S    
Cu11  O39   S    
C19   H29   S    
C23   H42   S    
Cu7   Cu11  S    
C84   C89   S    
Cu4   O44   S    
C75   C80   A    
C125  C133  A    
C34   O36   A    
C101  H74   S    
C57   C131  A    
Cu12  O47   S    
Cu2   O5    S    
C30   O48   A    
C23   H33   S    
C31   C81   S    
C28   O46   A    
C128  C133  A    
C71   C75   A    
C92   H70   S    
C102  C106  A    
C42   C47   A    
Cu6   Cu10  S    
C104  C126  A    
C103  H2    S    
C76   O23   A    
Cu7   O34   S    
C47   C95   S    
C12   C137  A    
C111  C115  A    
C122  C123  A    
C45   C96   S    
C37   O38   A    
C79   H61   S    
C52   C56   A    
