data_mof_unit_44681.cif
_audit_creation_date              2012-12-10T17:37:15-0500
_audit_creation_method            fapswitch 2.2
_symmetry_space_group_name_H-M    P1
_symmetry_Int_Tables_number       1
_space_group_crystal_system       triclinic
_cell_length_a                    12.344906
_cell_length_b                    13.098406
_cell_length_c                    15.834584
_cell_angle_alpha                 77.131809
_cell_angle_beta                  101.971242
_cell_angle_gamma                 116.613879
_cell_volume                      2214.5619404

loop_
_atom_site_label
_atom_site_type_symbol
_atom_type_description
_atom_site_fract_x
_atom_site_fract_y
_atom_site_fract_z
_atom_type_partial_charge
C1    C     C_R   0.855030 0.286307 0.506000 0.759359
C2    C     C_3   0.001355 0.495346 0.917949 0.022143
C3    C     C_3   0.083677 0.594462 0.026533 -0.267936
C4    C     C_3   0.991111 0.493901 0.082745 0.018619
C5    C     C_3   0.978280 0.585873 0.951078 -0.355426
C6    C     C_3   0.886581 0.485463 0.007985 0.468749
C7    C     C_1   0.002687 0.496641 0.826294 0.041678
C8    C     C_1   0.991448 0.494889 0.174280 0.004426
C9    C     C_R   0.274443 0.035451 0.401366 -0.322389
C10   C     C_R   0.227995 0.838442 0.470743 -0.129424
C11   C     C_R   0.817544 0.081060 0.550693 -0.194058
C12   C     C_R   0.000253 0.499481 0.660153 0.811492
C13   C     C_R   0.739988 0.964297 0.560462 -0.154825
C14   C     C_R   0.616255 0.927784 0.530441 -0.156276
C15   C     C_R   0.568028 0.008229 0.486537 0.092539
C16   C     C_R   0.650736 0.124944 0.465886 0.007108
C17   C     C_R   0.440664 0.977654 0.463855 0.018096
C18   C     C_R   0.399463 0.060845 0.414604 -0.002724
C19   C     C_R   0.484562 0.168992 0.379491 0.454211
C20   C     C_R   0.608289 0.200054 0.405767 -0.284152
C21   C     C_R   0.353114 0.867956 0.491675 -0.305569
C22   C     C_R   0.186084 0.923808 0.428946 0.462212
C23   C     C_R   0.145195 0.714605 0.487683 0.827132
C24   C     C_R   0.773891 0.162790 0.505244 -0.069005
C25   C     C_R   0.347170 0.326501 0.638472 -0.312641
C26   C     C_R   0.758109 0.645759 0.381535 0.696025
C27   C     C_R   0.664078 0.683625 0.361609 -0.363080
C28   C     C_R   0.562632 0.628852 0.406542 -0.260069
C29   C     C_R   0.552973 0.536706 0.474326 0.011924
C30   C     C_R   0.653767 0.505361 0.497130 0.208835
C31   C     C_R   0.448082 0.476105 0.521266 -0.008185
C32   C     C_R   0.447493 0.387148 0.591138 0.169029
C33   C     C_R   0.547033 0.359190 0.613611 -0.278078
C34   C     C_R   0.998973 0.499332 0.339915 0.813930
C35   C     C_R   0.647549 0.416765 0.567797 -0.142224
C36   C     C_R   0.342611 0.499051 0.501956 0.021573
C37   C     C_R   0.247096 0.353552 0.616534 0.079097
C38   C     C_3   0.015320 0.403420 0.050413 -0.391270
C39   C     C_3   0.910594 0.396176 0.975615 0.366554
C40   C     C_1   0.001482 0.498107 0.750273 -0.168495
C41   C     C_1   0.995098 0.496706 0.250093 -0.207931
C42   C     C_3   0.105012 0.504191 0.992496 0.509274
Cu1   Cu    Cu3+1 0.098270 0.475420 0.519690 0.934346
Cu2   Cu    Cu3+1 0.901730 0.524580 0.480310 0.981941
H1    H     H_    0.380221 0.802848 0.530618 0.171892
H2    H     H_    0.775195 0.901804 0.594270 0.142532
H3    H     H_    0.670277 0.283015 0.375871 0.185028
H4    H     H_    0.169537 0.306856 0.652933 0.125276
H5    H     H_    0.547295 0.291536 0.667411 0.153053
H6    H     H_    0.346183 0.258483 0.692203 0.138144
H7    H     H_    0.667872 0.755959 0.311784 0.154218
H8    H     H_    0.718615 0.388690 0.590609 0.203655
H9    H     H_    0.968015 0.662518 0.910487 0.158082
H10   H     H_    0.153738 0.675409 0.049969 0.151965
H11   H     H_    0.248167 0.104309 0.369747 0.173266
N1    N     N_R   0.246280 0.438200 0.549540 -0.179336
N2    N     N_R   0.754330 0.561180 0.450980 -0.240238
O1    O     O_R   0.972510 0.318130 0.524770 -0.589195
O2    O     O_R   0.806530 0.359650 0.491510 -0.605844
O3    O     O_R   0.082970 0.479240 0.637550 -0.569476
O4    O     O_R   0.916990 0.520750 0.604290 -0.599573
O5    O     O_R   0.193470 0.640350 0.508490 -0.603884
O6    O     O_R   0.027490 0.681870 0.475230 -0.486499
O7    O     O_R   0.083010 0.479250 0.395710 -0.582534
O8    O     O_R   0.917030 0.520760 0.362450 -0.550088
O9    O     O_3   0.823417 0.293897 0.943607 -0.622811
C43   C     C_3   0.760668 0.211520 0.011631 0.051904
H12   H     H_    0.661515 0.176942 0.987818 0.150815
H13   H     H_    0.772917 0.247388 0.072434 0.147348
C44   C     C_3   0.798816 0.111525 0.032672 -0.311926
H14   H     H_    0.777871 0.071102 0.973099 0.225916
H15   H     H_    0.898669 0.144394 0.053436 0.211213
C45   C     C_3   0.731879 0.020157 0.105209 -0.968151
H16   H     H_    0.754573 0.057831 0.166298 0.257121
H17   H     H_    0.760092 0.948150 0.117920 0.247036
H18   H     H_    0.631614 0.985199 0.085651 0.261678
H19   H     H_    0.911775 0.107447 0.579799 0.150056
H20   H     H_    0.561632 0.835973 0.541550 0.124925
H21   H     H_    0.334623 0.564283 0.449302 0.122949
O10   O     O_3   0.860094 0.696603 0.336809 -0.564710
C46   C     C_3   0.834091 0.724718 0.245279 0.007201
H22   H     H_    0.922291 0.763644 0.217852 0.170521
H23   H     H_    0.800675 0.793300 0.228619 0.108509
C47   C     C_3   0.748356 0.618567 0.200344 -0.352010
H24   H     H_    0.790912 0.557362 0.210414 0.247338
H25   H     H_    0.660662 0.572458 0.228417 0.202135
C48   C     C_3   0.721761 0.654189 0.102617 -0.866816
H26   H     H_    0.687457 0.721990 0.090381 0.244964
H27   H     H_    0.650769 0.578282 0.073110 0.275408
H28   H     H_    0.806051 0.687964 0.071017 0.269686
H29   H     H_    0.032342 0.331081 0.092958 0.144439
H30   H     H_    0.493654 0.661528 0.387286 0.158096
O11   O     O_3   0.774940 0.479550 0.023273 -0.624337
C49   C     C_3   0.685539 0.454777 0.949258 0.024587
H31   H     H_    0.595706 0.422163 0.972989 0.176413
H32   H     H_    0.681283 0.384828 0.918299 0.166551
C50   C     C_3   0.700496 0.562234 0.880937 -0.381863
H33   H     H_    0.723787 0.637406 0.913722 0.233198
H34   H     H_    0.774597 0.582052 0.842245 0.213125
C51   C     C_3   0.583875 0.542653 0.817422 -0.883367
H35   H     H_    0.558630 0.467424 0.784104 0.261140
H36   H     H_    0.598763 0.620313 0.767225 0.255809
H37   H     H_    0.507574 0.526998 0.852644 0.260480
O12   O     O_3   0.219369 0.513619 0.980043 -0.604900
C52   C     C_3   0.298424 0.525874 0.059681 0.062003
H38   H     H_    0.346203 0.469478 0.066256 0.146628
H39   H     H_    0.250278 0.496941 0.118910 0.142107
C53   C     C_3   0.394526 0.651097 0.058399 -0.337592
H40   H     H_    0.465791 0.666526 0.018220 0.214927
H41   H     H_    0.352275 0.711792 0.028103 0.222326
C54   C     C_3   0.453653 0.676872 0.150506 -0.939129
H42   H     H_    0.385608 0.673554 0.188481 0.257652
H43   H     H_    0.529970 0.764446 0.147326 0.255643
H44   H     H_    0.489606 0.612686 0.184663 0.270458
O13   O     O_3   0.060661 0.893740 0.421125 -0.579285
C55   C     C_3   0.019247 0.972358 0.363960 0.082862
H45   H     H_    0.922625 0.922037 0.338937 0.174564
H46   H     H_    0.066902 0.011956 0.304588 0.104761
C56   C     C_3   0.020510 0.061368 0.413347 -0.363596
H47   H     H_    0.959448 0.015316 0.465143 0.229349
H48   H     H_    0.113492 0.109776 0.445709 0.220730
C57   C     C_3   0.976553 0.146863 0.352157 -0.899974
H49   H     H_    0.036098 0.193716 0.299501 0.250550
H50   H     H_    0.979908 0.210884 0.389403 0.271903
H51   H     H_    0.880951 0.100902 0.322617 0.247446
O14   O     O_3   0.449094 0.249456 0.323636 -0.615880
C58   C     C_3   0.409366 0.217599 0.238896 0.022860
H52   H     H_    0.352262 0.263180 0.203159 0.160839
H53   H     H_    0.349969 0.123534 0.239762 0.133571
C59   C     C_3   0.517647 0.254082 0.188436 -0.340473
H54   H     H_    0.571703 0.349210 0.182706 0.231392
H55   H     H_    0.577980 0.211747 0.223666 0.209250
C60   C     C_3   0.473606 0.219024 0.097538 -0.937349
H56   H     H_    0.416985 0.124445 0.101935 0.254135
H57   H     H_    0.553495 0.240777 0.064336 0.249827
H58   H     H_    0.419150 0.265512 0.058266 0.250844

loop_
_geom_bond_atom_site_label_1
_geom_bond_atom_site_label_2
_ccdc_geom_bond_type
C48   H26   S    
C3    C42   S    
O14   C58   S    
C45   H16   S    
C19   C20   A    
C47   C48   S    
C4    C8    S    
C50   C51   S    
C46   H22   S    
C54   H43   S    
C10   C22   A    
C52   H39   S    
C26   C27   A    
O11   C49   S    
C30   C35   A    
C5    H9    S    
C28   C29   A    
C47   H25   S    
C38   C42   S    
C1    O2    A    
C5    C6    S    
C3    H10   S    
C9    C22   A    
Cu2   O2    S    
C33   H5    S    
C15   C16   A    
C30   N2    A    
C11   C24   A    
C53   H40   S    
C18   C19   A    
C25   H6    S    
C11   H19   S    
Cu1   O1    S    
C50   H34   S    
C37   N1    A    
C2    C39   S    
C23   O5    A    
C2    C7    S    
C53   H41   S    
C60   H58   S    
C7    C40   T    
C44   H14   S    
C9    H11   S    
C25   C37   A    
C25   C32   A    
C23   O6    A    
O9    C43   S    
C16   C24   A    
C13   C14   A    
C45   H17   S    
Cu2   O8    S    
C34   C41   S    
C34   O8    A    
C51   H36   S    
O12   C52   S    
C46   H23   S    
C27   H7    S    
Cu1   O7    S    
C50   H33   S    
C21   H1    S    
C56   H48   S    
C10   C21   A    
C52   C53   S    
C43   H12   S    
C8    C41   T    
C4    C6    S    
C49   C50   S    
C38   H29   S    
C51   H37   S    
C26   O10   S    
C3    C4    S    
C43   H13   S    
C12   O3    A    
C12   C40   S    
C59   H55   S    
Cu1   Cu2   S    
C58   H53   S    
C29   C30   A    
C36   N1    A    
Cu1   N1    S    
C31   C32   A    
Cu2   N2    S    
C16   C20   A    
C6    O11   S    
C6    C39   S    
C44   C45   S    
C34   O7    A    
C17   C18   A    
C28   H30   S    
C47   H24   S    
C37   H4    S    
C49   H32   S    
Cu1   O3    S    
C22   O13   S    
C4    C38   S    
C48   H27   S    
C60   H56   S    
Cu2   O4    S    
C39   O9    S    
C2    C5    S    
C57   H50   S    
C58   H52   S    
C35   H8    S    
C46   C47   S    
C56   C57   S    
C13   H2    S    
C15   C17   A    
C54   H42   S    
C31   C36   A    
O10   C46   S    
C3    C5    S    
C36   H21   S    
C42   O12   S    
C56   H47   S    
C55   C56   S    
C10   C23   S    
C52   H38   S    
C19   O14   S    
C53   C54   S    
C43   C44   S    
C32   C33   A    
C57   H51   S    
C59   H54   S    
C58   C59   S    
C29   C31   A    
C1    O1    A    
C12   O4    A    
C11   C13   A    
C38   C39   S    
C2    C42   S    
C51   H35   S    
C33   C35   A    
C55   H46   S    
C55   H45   S    
C54   H44   S    
C14   H20   S    
C49   H31   S    
C26   N2    A    
C17   C21   A    
C20   H3    S    
C59   C60   S    
C9    C18   A    
C45   H18   S    
C1    C24   S    
Cu2   O6    S    
C48   H28   S    
C27   C28   A    
C60   H57   S    
C14   C15   A    
C44   H15   S    
C57   H49   S    
O13   C55   S    
Cu1   O5    S    
