data_mof_unit_62731.cif
_audit_creation_date              2012-12-11T16:16:15-0500
_audit_creation_method            fapswitch 2.2
_symmetry_space_group_name_H-M    P1
_symmetry_Int_Tables_number       1
_space_group_crystal_system       triclinic
_cell_length_a                    7.176346
_cell_length_b                    26.797022
_cell_length_c                    27.963603
_cell_angle_alpha                 90.08497
_cell_angle_beta                  89.873101
_cell_angle_gamma                 89.85463
_cell_volume                      5377.49587565

loop_
_atom_site_label
_atom_site_type_symbol
_atom_type_description
_atom_site_fract_x
_atom_site_fract_y
_atom_site_fract_z
_atom_type_partial_charge
O1    O     O_R   0.600980 0.796780 0.202430 -0.527801
O2    O     O_R   0.399020 0.203220 0.797570 -0.528997
O3    O     O_R   0.399020 0.203220 0.702430 -0.526760
O4    O     O_R   0.600980 0.796780 0.297570 -0.520547
O5    O     O_R   0.100980 0.703220 0.297570 -0.527284
O6    O     O_R   0.899020 0.296780 0.702430 -0.521764
O7    O     O_R   0.899020 0.296780 0.797570 -0.520402
O8    O     O_R   0.100980 0.703220 0.202430 -0.519455
O9    O     O_R   0.271240 0.802920 0.297240 -0.519496
O10   O     O_R   0.728760 0.197080 0.702760 -0.507154
O11   O     O_R   0.728760 0.197080 0.797240 -0.508504
O12   O     O_R   0.271240 0.802920 0.202760 -0.505021
O13   O     O_R   0.771240 0.697080 0.202760 -0.519781
O14   O     O_R   0.228760 0.302920 0.797240 -0.510138
O15   O     O_R   0.228760 0.302920 0.702760 -0.519007
O16   O     O_R   0.771240 0.697080 0.297240 -0.505797
C1    C     C_R   0.440550 0.816560 0.312056 0.729126
C2    C     C_R   0.560565 0.183922 0.687750 0.717124
C3    C     C_R   0.559380 0.183779 0.812381 0.724326
C4    C     C_R   0.439541 0.815897 0.187595 0.718256
C5    C     C_R   0.941214 0.683536 0.187763 0.731033
C6    C     C_R   0.059962 0.316243 0.812174 0.712191
C7    C     C_R   0.059124 0.316504 0.687898 0.727774
C8    C     C_R   0.939693 0.683990 0.312296 0.717900
O17   O     O_3   0.434470 0.717290 0.250000 -0.347167
O18   O     O_3   0.565530 0.282710 0.750000 -0.347420
O19   O     O_3   0.934470 0.782710 0.250000 -0.346555
O20   O     O_3   0.065530 0.217290 0.750000 -0.346807
V1    V     V_3+5 0.159620 0.756070 0.250000 1.627008
V2    V     V_3+5 0.840380 0.243930 0.750000 1.642514
V3    V     V_3+5 0.659620 0.743930 0.250000 1.624310
V4    V     V_3+5 0.340380 0.256070 0.750000 1.617793
C9    C     C_R   0.106494 0.609782 0.348558 0.395877
C10   C     C_R   0.882828 0.363082 0.622320 0.342818
C11   C     C_R   0.890076 0.390320 0.848483 0.406153
C12   C     C_R   0.119194 0.637748 0.121643 0.346827
C13   C     C_R   0.604643 0.889779 0.150458 0.396154
C14   C     C_R   0.384457 0.138352 0.879110 0.362628
C15   C     C_R   0.394606 0.109681 0.651748 0.396430
C16   C     C_R   0.615908 0.863417 0.377489 0.344235
C17   C     C_R   0.133356 0.575835 0.386666 0.258239
C18   C     C_R   0.871689 0.401123 0.587339 0.222197
C19   C     C_R   0.864023 0.424642 0.886314 0.250520
C20   C     C_R   0.131853 0.599975 0.086284 0.215611
C21   C     C_R   0.630504 0.923362 0.112010 0.258786
C22   C     C_R   0.368412 0.098642 0.912008 0.234227
C23   C     C_R   0.367114 0.075803 0.613590 0.258390
C24   C     C_R   0.626284 0.901645 0.412340 0.221424
C25   C     C_R   0.995551 0.570684 0.422929 -0.166552
C26   C     C_R   0.025603 0.432302 0.578409 -0.149772
C27   C     C_R   0.003038 0.430903 0.921114 -0.162416
C28   C     C_R   0.977722 0.569143 0.076150 -0.153574
C29   C     C_R   0.492760 0.927952 0.075803 -0.165992
C30   C     C_R   0.520227 0.066245 0.920137 -0.162657
C31   C     C_R   0.504091 0.070627 0.577100 -0.167004
C32   C     C_R   0.471742 0.932782 0.421191 -0.149596
C33   C     C_R   0.832096 0.599397 0.418739 -0.163063
C34   C     C_R   0.183640 0.427531 0.607186 -0.171431
C35   C     C_R   0.168339 0.403533 0.917221 -0.167536
C36   C     C_R   0.822645 0.572017 0.106583 -0.162975
C37   C     C_R   0.330230 0.899153 0.080381 -0.165254
C38   C     C_R   0.679483 0.071190 0.891639 -0.166273
C39   C     C_R   0.667609 0.099124 0.581172 -0.162759
C40   C     C_R   0.313685 0.927906 0.392492 -0.171847
H1    H     H_    0.720666 0.595321 0.444588 0.218262
H2    H     H_    0.298618 0.453153 0.602318 0.213271
H3    H     H_    0.278921 0.409732 0.942877 0.204729
H4    H     H_    0.708851 0.546055 0.101953 0.223282
H5    H     H_    0.218999 0.902789 0.054518 0.217609
H6    H     H_    0.793559 0.045063 0.896056 0.212679
H7    H     H_    0.778629 0.094886 0.555195 0.218322
H8    H     H_    0.198228 0.953539 0.397389 0.212690
C41   C     C_R   0.807200 0.634274 0.382252 0.237398
C42   C     C_R   0.192846 0.392063 0.643879 0.232893
C43   C     C_R   0.193302 0.367745 0.881259 0.245804
C44   C     C_R   0.811823 0.607288 0.143648 0.227356
C45   C     C_R   0.306095 0.864734 0.117276 0.237318
C46   C     C_R   0.691680 0.107629 0.855895 0.258527
C47   C     C_R   0.693007 0.133958 0.617732 0.236870
C48   C     C_R   0.305143 0.892277 0.355864 0.232718
C49   C     C_R   0.949997 0.642460 0.348161 -0.258123
C50   C     C_R   0.045893 0.357421 0.650929 -0.271844
C51   C     C_R   0.048771 0.358199 0.847826 -0.271390
C52   C     C_R   0.955913 0.642786 0.150428 -0.270716
C53   C     C_R   0.449057 0.857020 0.151321 -0.259251
C54   C     C_R   0.546525 0.143178 0.849659 -0.286600
C55   C     C_R   0.550676 0.142274 0.651966 -0.258366
C56   C     C_R   0.452902 0.857622 0.348909 -0.272979
N1    N     N_R   0.868403 0.532649 0.496984 -0.261773
N2    N     N_R   0.168430 0.473912 0.508473 -0.222640
N3    N     N_R   0.088872 0.510197 0.959092 -0.220649
N4    N     N_R   0.871167 0.491425 0.035427 -0.265773
N5    N     N_R   0.357937 0.968594 0.004064 -0.257943
N6    N     N_R   0.668764 0.021234 0.987301 -0.224554
N7    N     N_R   0.625414 0.034353 0.501466 -0.264063
N8    N     N_R   0.333040 0.972787 0.492554 -0.222008
N9    N     N_R   0.874798 0.500825 0.533497 -0.214595
N10   N     N_R   0.161606 0.505862 0.471921 -0.195972
N11   N     N_R   0.083458 0.542350 0.995450 -0.206159
N12   N     N_R   0.875195 0.459314 0.998816 -0.237738
N13   N     N_R   0.363650 0.000277 0.967437 -0.210727
N14   N     N_R   0.662858 0.989347 0.023912 -0.196796
N15   N     N_R   0.618352 0.002622 0.464807 -0.217230
N16   N     N_R   0.340661 0.004598 0.529267 -0.196413
C57   C     C_R   0.023643 0.470218 0.539629 0.582122
C58   C     C_R   0.010471 0.535629 0.464809 0.581784
C59   C     C_R   0.977847 0.533366 0.034911 0.604689
C60   C     C_R   0.985375 0.467992 0.960116 0.599727
C61   C     C_R   0.517919 0.027968 0.958716 0.577178
C62   C     C_R   0.506292 0.962782 0.033762 0.577858
C63   C     C_R   0.473289 0.970688 0.459940 0.584222
C64   C     C_R   0.487975 0.035813 0.535047 0.583810
O21   O     O_3   0.240187 0.611750 0.312666 -0.519283
C65   C     C_3   0.166787 0.593395 0.268947 0.142716
H9    H     H_    0.230782 0.615265 0.239549 0.193573
H10   H     H_    0.012994 0.598046 0.265215 0.070994
C66   C     C_3   0.217730 0.538412 0.261977 -0.282873
H11   H     H_    0.371273 0.533728 0.264680 0.256713
H12   H     H_    0.150631 0.515785 0.290441 0.212891
C67   C     C_3   0.152562 0.519455 0.213283 -0.748304
H13   H     H_    0.998697 0.522816 0.210284 0.242825
H14   H     H_    0.191896 0.479594 0.209092 0.248538
H15   H     H_    0.218818 0.541150 0.184046 0.263537
O22   O     O_3   0.725156 0.335177 0.631838 -0.529387
C68   C     C_3   0.706831 0.296564 0.597729 0.139168
H16   H     H_    0.787422 0.263894 0.610097 0.143718
H17   H     H_    0.758733 0.306902 0.561433 0.137943
C69   C     C_3   0.500939 0.282442 0.594004 -0.265864
H18   H     H_    0.452664 0.267273 0.628757 0.195664
H19   H     H_    0.416877 0.316279 0.585995 0.239335
C70   C     C_3   0.467522 0.243884 0.554799 -0.788735
H20   H     H_    0.502721 0.259838 0.519283 0.254010
H21   H     H_    0.318429 0.232871 0.554805 0.252629
H22   H     H_    0.553852 0.210156 0.560909 0.241139
O23   O     O_3   0.756133 0.388078 0.812866 -0.518729
C71   C     C_3   0.829005 0.406513 0.769091 0.143545
H23   H     H_    0.764673 0.384726 0.739712 0.194912
H24   H     H_    0.982698 0.401779 0.765003 0.069812
C72   C     C_3   0.778383 0.461548 0.762529 -0.282313
H25   H     H_    0.624830 0.466270 0.765325 0.255830
H26   H     H_    0.845225 0.484024 0.791130 0.213569
C73   C     C_3   0.844335 0.480719 0.713960 -0.751869
H27   H     H_    0.998217 0.477282 0.710885 0.241089
H28   H     H_    0.805370 0.520623 0.710082 0.248828
H29   H     H_    0.778321 0.459218 0.684574 0.262858
O24   O     O_3   0.276353 0.665648 0.131736 -0.528809
C74   C     C_3   0.301739 0.702778 0.096487 0.137293
H30   H     H_    0.218420 0.735882 0.106551 0.143536
H31   H     H_    0.257827 0.690841 0.059978 0.139113
C75   C     C_3   0.507986 0.716906 0.094762 -0.265831
H32   H     H_    0.550252 0.732407 0.129869 0.198168
H33   H     H_    0.593290 0.683006 0.087770 0.236911
C76   C     C_3   0.547843 0.755147 0.055737 -0.793175
H34   H     H_    0.517730 0.738988 0.019990 0.253039
H35   H     H_    0.697003 0.765991 0.057007 0.254319
H36   H     H_    0.461212 0.789026 0.060998 0.240094
O25   O     O_3   0.738087 0.888361 0.186295 -0.519239
C77   C     C_3   0.663487 0.906853 0.229958 0.142460
H37   H     H_    0.726208 0.884816 0.259408 0.192616
H38   H     H_    0.509488 0.902615 0.233556 0.070622
C78   C     C_3   0.715006 0.961705 0.236981 -0.281000
H39   H     H_    0.868685 0.966032 0.234377 0.255494
H40   H     H_    0.648968 0.984489 0.208478 0.213154
C79   C     C_3   0.648777 0.980804 0.285639 -0.753764
H41   H     H_    0.494841 0.977667 0.288604 0.241253
H42   H     H_    0.688091 0.020610 0.289813 0.248587
H43   H     H_    0.714373 0.959041 0.314911 0.262676
O26   O     O_3   0.233095 0.170027 0.873892 -0.530037
C80   C     C_3   0.264091 0.215371 0.898705 0.148539
H44   H     H_    0.196892 0.245209 0.877445 0.154587
H45   H     H_    0.414399 0.225371 0.902134 0.109677
C81   C     C_3   0.172049 0.214591 0.948192 -0.312943
H46   H     H_    0.027130 0.200428 0.945004 0.244800
H47   H     H_    0.252410 0.189530 0.972127 0.224150
C82   C     C_3   0.165815 0.266402 0.970820 -0.762126
H48   H     H_    0.308783 0.281702 0.974380 0.260234
H49   H     H_    0.102360 0.263966 0.006985 0.247340
H50   H     H_    0.079640 0.291981 0.948788 0.236749
O27   O     O_3   0.261911 0.111696 0.687888 -0.519306
C83   C     C_3   0.336784 0.093172 0.731360 0.140665
H51   H     H_    0.273650 0.115041 0.760991 0.189697
H52   H     H_    0.490674 0.097677 0.734803 0.069775
C84   C     C_3   0.286292 0.038223 0.738154 -0.279713
H53   H     H_    0.132702 0.033698 0.735683 0.255195
H54   H     H_    0.352791 0.015591 0.709470 0.213001
C85   C     C_3   0.352731 0.019093 0.786647 -0.760028
H55   H     H_    0.506602 0.022411 0.789471 0.240302
H56   H     H_    0.314096 0.979229 0.790661 0.249529
H57   H     H_    0.286665 0.040708 0.816087 0.260231
O28   O     O_3   0.774097 0.835442 0.368066 -0.528889
C86   C     C_3   0.793090 0.797055 0.402300 0.138822
H58   H     H_    0.712788 0.764335 0.390091 0.143781
H59   H     H_    0.741371 0.807683 0.438584 0.137909
C87   C     C_3   0.999159 0.782854 0.405986 -0.265884
H60   H     H_    0.047597 0.767616 0.371205 0.196140
H61   H     H_    0.082753 0.816673 0.414046 0.239028
C88   C     C_3   0.033106 0.744328 0.445123 -0.788964
H62   H     H_    0.997454 0.760305 0.480660 0.253841
H63   H     H_    0.182377 0.733313 0.445140 0.253000
H64   H     H_    0.947453 0.710598 0.438911 0.240780
Br1   Br    Br    0.361440 0.537553 0.385943 -0.425633
Br2   Br    Br    0.643467 0.408826 0.551543 -0.474461
Br3   Br    Br    0.641252 0.464701 0.888518 -0.440277
Br4   Br    Br    0.371273 0.587784 0.056735 -0.491466
Br5   Br    Br    0.855713 0.962529 0.112515 -0.426441
Br6   Br    Br    0.135612 0.090469 0.945747 -0.471029
Br7   Br    Br    0.138820 0.037909 0.614419 -0.426971
Br8   Br    Br    0.854151 0.909799 0.448138 -0.475600
Br9   Br    Br    0.572146 0.668949 0.382915 -0.529906
Br10  Br    Br    0.401768 0.398035 0.686202 -0.524462
Br11  Br    Br    0.431483 0.334785 0.880815 -0.528891
Br12  Br    Br    0.603432 0.600683 0.186323 -0.522259
Br13  Br    Br    0.071337 0.830211 0.117336 -0.529714
Br14  Br    Br    0.905415 0.102682 0.814678 -0.517125
Br15  Br    Br    0.927838 0.168409 0.616985 -0.530855
Br16  Br    Br    0.095820 0.898004 0.313560 -0.522919

loop_
_geom_bond_atom_site_label_1
_geom_bond_atom_site_label_2
_ccdc_geom_bond_type
C29   C62   S    
O17   V3    S    
C87   H61   S    
O18   V4    S    
O28   C86   S    
C7    C50   S    
C31   C64   S    
O19   V1    S    
C1    C56   S    
C40   C48   A    
C80   H44   S    
C74   H30   S    
C10   C18   A    
C15   C55   A    
C84   H53   S    
C3    C54   S    
C19   C27   A    
C69   H18   S    
C46   Br14  S    
C47   C55   A    
C65   H9    S    
C45   Br13  S    
O23   C71   S    
C48   Br16  S    
C39   C47   A    
C83   H51   S    
O16   V3    S    
C14   O26   S    
O11   C3    A    
O25   C77   S    
O12   C4    A    
C14   C54   A    
O8    V1    S    
C13   C53   A    
C79   H41   S    
C74   H31   S    
C12   C52   A    
O21   C65   S    
C13   O25   S    
N7    C64   A    
C66   H12   S    
O12   V1    S    
C72   C73   S    
C87   C88   S    
N13   C61   A    
O1    V3    S    
C25   C33   A    
C38   H6    S    
O3    C2    A    
O2    V4    S    
C41   C49   A    
C88   H63   S    
C16   C24   A    
C28   C36   A    
C77   C78   S    
C35   H3    S    
C29   C37   A    
C34   H2    S    
C22   Br6   S    
C28   C59   S    
N7    N15   A    
C27   C60   S    
C75   C76   S    
C31   C39   A    
N1    C58   A    
C68   C69   S    
C10   O22   S    
C32   C40   A    
C34   C42   A    
C76   H35   S    
C11   C19   A    
C32   C63   S    
C67   H15   S    
O9    V1    S    
N5    C62   A    
N9    C57   A    
O15   C7    A    
C44   Br12  S    
C47   Br15  S    
C87   H60   S    
C23   C31   A    
C21   C29   A    
O16   C8    A    
O7    V2    S    
C77   H38   S    
O4    V3    S    
C80   H45   S    
C73   H29   S    
C22   C30   A    
O3    V4    S    
C70   H22   S    
C42   C50   A    
C71   C72   S    
C17   C25   A    
C78   H40   S    
C67   H14   S    
C78   H39   S    
C82   H50   S    
O5    V1    S    
N8    C63   A    
C44   C52   A    
N12   C60   A    
C86   H58   S    
C26   C34   A    
O15   V4    S    
C74   C75   S    
O11   V2    S    
C71   H24   S    
C66   C67   S    
N5    N13   A    
N16   C64   A    
C11   C51   A    
C30   C38   A    
C36   C44   A    
C30   C61   S    
N1    N9    A    
C88   H64   S    
C8    C49   S    
C86   H59   S    
C26   C57   S    
C83   C84   S    
C13   C21   A    
O10   V2    S    
N4    C59   A    
C15   O27   S    
C82   H48   S    
C5    C52   S    
C43   Br11  S    
C4    C53   S    
C24   Br8   S    
O8    C5    A    
C67   H13   S    
O13   C5    A    
C76   H36   S    
C16   O28   S    
C36   H4    S    
C18   C26   A    
O4    C1    A    
O9    C1    A    
O26   C80   S    
O6    V2    S    
C39   H7    S    
C82   H49   S    
C37   C45   A    
N8    N16   A    
C19   Br3   S    
C77   H37   S    
C80   C81   S    
C75   H33   S    
C18   Br2   S    
C27   C35   A    
C17   Br1   S    
C70   H20   S    
C69   C70   S    
C35   C43   A    
C78   C79   S    
C81   H46   S    
N4    N12   A    
C15   C23   A    
O24   C74   S    
C37   H5    S    
C24   C32   A    
O1    C4    A    
C21   Br5   S    
C83   H52   S    
O2    C3    A    
C73   H27   S    
C33   C41   A    
N3    C60   A    
C38   C46   A    
C79   H43   S    
C11   O23   S    
N2    C57   A    
C33   H1    S    
C71   H23   S    
C70   H21   S    
C69   H19   S    
C20   C28   A    
C65   H10   S    
C72   H25   S    
C81   C82   S    
C25   C58   S    
N15   C63   A    
O7    C6    A    
N11   C59   A    
N6    C61   A    
C9    O21   S    
C2    C55   S    
N10   C58   A    
C12   C20   A    
C23   Br7   S    
C84   C85   S    
C9    C17   A    
C6    C51   S    
O14   C6    A    
C85   H57   S    
C84   H54   S    
C85   H55   S    
C86   C87   S    
O20   V2    S    
C48   C56   A    
C66   H11   S    
C12   O24   S    
C72   H26   S    
C43   C51   A    
C68   H16   S    
O5    C8    A    
C9    C49   A    
O10   C2    A    
O6    C7    A    
C79   H42   S    
C81   H47   S    
C41   Br9   S    
C73   H28   S    
C40   H8    S    
C88   H62   S    
O13   V3    S    
C20   Br4   S    
C14   C22   A    
C65   C66   S    
N14   C62   A    
C45   C53   A    
O27   C83   S    
C42   Br10  S    
O14   V4    S    
N6    N14   A    
C46   C54   A    
C68   H17   S    
C75   H32   S    
C10   C50   A    
N3    N11   A    
C76   H34   S    
C85   H56   S    
N2    N10   A    
C16   C56   A    
O22   C68   S    
