data_mof_unit_5436.cif
_audit_creation_date              2012-12-10T17:24:42-0500
_audit_creation_method            fapswitch 2.2
_symmetry_space_group_name_H-M    P1
_symmetry_Int_Tables_number       1
_space_group_crystal_system       triclinic
_cell_length_a                    23.479829
_cell_length_b                    10.770636
_cell_length_c                    9.635774
_cell_angle_alpha                 90.426524
_cell_angle_beta                  89.135874
_cell_angle_gamma                 92.88221
_cell_volume                      2433.4029666

loop_
_atom_site_label
_atom_site_type_symbol
_atom_type_description
_atom_site_fract_x
_atom_site_fract_y
_atom_site_fract_z
_atom_type_partial_charge
C1    C     C_R   0.497925 0.262749 0.499773 0.788644
C2    C     C_R   0.964950 0.275423 0.568174 -0.161830
C3    C     C_R   0.024388 0.276782 0.570240 -0.162939
C4    C     C_R   0.057102 0.385999 0.538636 -0.014327
C5    C     C_R   0.029504 0.494630 0.504644 -0.017758
C6    C     C_R   0.061880 0.604598 0.472499 -0.014751
C7    C     C_R   0.033937 0.712473 0.438984 -0.161984
C8    C     C_R   0.974516 0.711184 0.437235 -0.163184
C9    C     C_R   0.116912 0.389485 0.539382 0.532962
C10   C     C_R   0.121570 0.603612 0.474657 0.531969
C11   C     C_R   0.238271 0.490519 0.630883 -0.105003
C12   C     C_R   0.391027 0.499536 0.500948 0.773565
C13   C     C_R   0.297695 0.491393 0.629467 -0.235685
C14   C     C_R   0.328305 0.499210 0.503012 -0.039139
C15   C     C_R   0.298389 0.506445 0.378267 -0.208319
C16   C     C_R   0.239027 0.505911 0.380045 -0.105976
C17   C     C_R   0.208795 0.497835 0.506214 0.361206
C18   C     C_R   0.758960 0.424006 0.399174 -0.106780
C19   C     C_R   0.699600 0.425851 0.398803 -0.237672
C20   C     C_R   0.670974 0.495076 0.499378 -0.018976
C21   C     C_R   0.702167 0.559737 0.602481 -0.223387
C22   C     C_R   0.761453 0.557976 0.602662 -0.096895
C23   C     C_R   0.498578 0.737088 0.500561 0.762751
C24   C     C_R   0.790077 0.490671 0.500650 0.353468
C25   C     C_R   0.405182 0.120094 0.640881 -0.192318
C26   C     C_R   0.361991 0.050720 0.710189 -0.122521
C27   C     C_R   0.362344 0.921602 0.711262 -0.115172
C28   C     C_R   0.405901 0.861021 0.643093 -0.167794
C29   C     C_R   0.450650 0.929466 0.573874 0.098236
C30   C     C_R   0.450272 0.060780 0.572757 0.093950
C31   C     C_R   0.494153 0.128610 0.499559 -0.094175
C32   C     C_R   0.536200 0.068027 0.425924 -0.195168
C33   C     C_R   0.536741 0.940146 0.427778 -0.215125
C34   C     C_R   0.608712 0.497962 0.499426 0.776114
C35   C     C_R   0.494964 0.870670 0.501889 -0.084728
C36   C     C_R   0.556125 0.706274 0.135449 0.205808
C37   C     C_R   0.555149 0.817573 0.060652 -0.220468
C38   C     C_R   0.563299 0.809969 0.918270 -0.222786
C39   C     C_R   0.557549 0.694330 0.854246 -0.136926
C40   C     C_R   0.528764 0.595148 0.924184 0.180412
C41   C     C_R   0.528356 0.597717 0.073153 0.186114
C42   C     C_R   0.472745 0.408278 0.074097 -0.069803
C43   C     C_R   0.472498 0.408703 0.926524 -0.060034
C44   C     C_R   0.882035 0.598525 0.467958 0.531427
C45   C     C_R   0.877275 0.384351 0.532470 0.534452
C46   C     C_R   0.936992 0.383267 0.534526 -0.014839
C47   C     C_R   0.969389 0.493286 0.502701 -0.017850
C48   C     C_R   0.941815 0.601994 0.468971 -0.013186
Cu1   Cu    Cu3+1 0.500000 0.499990 0.640660 0.929527
Cu2   Cu    Cu3+1 0.500000 0.500010 0.359340 0.939572
H1    H     H_    0.941027 0.189681 0.593075 0.190474
H2    H     H_    0.676053 0.373030 0.320534 0.150219
H3    H     H_    0.680728 0.612899 0.681628 0.139691
H4    H     H_    0.785250 0.609065 0.681829 0.143214
H5    H     H_    0.569670 0.120311 0.369663 0.146794
H6    H     H_    0.402202 0.219924 0.639402 0.139157
H7    H     H_    0.327734 0.097318 0.761889 0.147195
H8    H     H_    0.328359 0.868019 0.763806 0.146559
H9    H     H_    0.403471 0.760590 0.643632 0.153363
H10   H     H_    0.570801 0.895461 0.373607 0.127447
H11   H     H_    0.450127 0.333244 0.128994 0.144349
H12   H     H_    0.044575 0.192022 0.596566 0.189510
H13   H     H_    0.566821 0.905660 0.110269 0.146358
H14   H     H_    0.578593 0.890912 0.860148 0.166471
H15   H     H_    0.575470 0.685614 0.752055 0.186415
H16   H     H_    0.449602 0.334020 0.872102 0.137750
H17   H     H_    0.057855 0.798190 0.413952 0.191126
H18   H     H_    0.954335 0.795976 0.411007 0.189566
H19   H     H_    0.215075 0.484507 0.728781 0.140160
H20   H     H_    0.319564 0.485613 0.727184 0.158264
H21   H     H_    0.320762 0.512642 0.279268 0.161118
H22   H     H_    0.216411 0.511352 0.283333 0.139530
H23   H     H_    0.780833 0.371398 0.320381 0.147078
N1    N     N_R   0.851149 0.490959 0.499787 -0.469914
N2    N     N_R   0.147731 0.497087 0.507433 -0.470650
N3    N     N_R   0.500540 0.501210 0.147910 -0.198235
N4    N     N_R   0.500560 0.501290 0.852040 -0.191263
O1    O     O_R   0.500000 0.319640 0.618810 -0.579140
O2    O     O_2   0.845536 0.280212 0.564142 -0.534560
O3    O     O_2   0.144107 0.286040 0.570456 -0.535284
O4    O     O_2   0.153275 0.708282 0.444914 -0.533374
O5    O     O_R   0.500000 0.319660 0.381240 -0.579400
O6    O     O_R   0.417880 0.499950 0.618810 -0.591381
O7    O     O_R   0.417880 0.499980 0.381240 -0.573915
O8    O     O_R   0.500000 0.680340 0.618760 -0.596624
O9    O     O_R   0.500000 0.680360 0.381190 -0.577051
O10   O     O_R   0.582120 0.500020 0.618760 -0.588716
O11   O     O_R   0.582120 0.500050 0.381190 -0.578601
O12   O     O_2   0.854918 0.701536 0.434735 -0.538072
C49   C     C_3   0.612698 0.701223 0.210505 -0.342914
C50   C     C_3   0.651588 0.605551 0.146260 -0.790679
H24   H     H_    0.631675 0.510126 0.150889 0.257974
H25   H     H_    0.660751 0.628505 0.035678 0.236449
H26   H     H_    0.692710 0.608525 0.201670 0.252344
H27   H     H_    0.638058 0.791280 0.202072 0.174995
H28   H     H_    0.606973 0.695042 0.323519 0.203525

loop_
_geom_bond_atom_site_label_1
_geom_bond_atom_site_label_2
_ccdc_geom_bond_type
Cu1   O10   S    
C19   C20   A    
C16   H22   S    
C25   H6    S    
Cu2   O7    S    
C7    C8    A    
C22   H4    S    
C45   C46   A    
C2    C46   A    
C5    C47   A    
C26   C27   A    
C29   C30   A    
C18   C24   A    
C36   C37   A    
C5    C6    A    
C3    H12   S    
C13   H20   S    
C15   C16   A    
C1    C31   S    
Cu1   O1    S    
C12   O7    A    
C18   C19   A    
C19   H2    S    
C11   C17   A    
C31   C32   A    
C16   C17   A    
C23   O9    A    
C32   H5    S    
Cu2   O11   S    
C20   C34   S    
C21   C22   A    
C1    O1    A    
C39   H15   S    
C36   C41   A    
C37   H13   S    
C38   H14   S    
C38   C39   A    
Cu1   O8    S    
C49   H27   S    
C50   H24   S    
C25   C26   A    
C12   O6    A    
C45   N1    A    
C9    O3    S    
C8    C48   A    
C37   C38   A    
Cu2   N3    S    
C50   H25   S    
C10   N2    A    
C47   C48   A    
C45   O2    S    
C34   O11   A    
C44   N1    A    
C42   H11   S    
C40   C41   A    
C12   C14   S    
C8    H18   S    
C18   H23   S    
C23   C35   S    
C22   C24   A    
C43   N4    A    
C42   C43   A    
C3    C4    A    
C39   C40   A    
Cu2   O5    S    
C28   H9    S    
C36   C49   S    
C25   C30   A    
C46   C47   A    
C28   C29   A    
C40   N4    A    
C4    C5    A    
C27   H8    S    
C6    C10   A    
C11   H19   S    
C49   H28   S    
C6    C7    A    
C33   H10   S    
C15   H21   S    
C29   C35   A    
C10   O4    S    
C42   N3    A    
C32   C33   A    
Cu1   O6    S    
C2    C3    A    
C1    O5    A    
C50   H26   S    
C21   H3    S    
C11   C13   A    
C24   N1    S    
C49   C50   S    
C30   C31   A    
C43   H16   S    
C33   C35   A    
Cu1   N4    S    
C34   O10   A    
C26   H7    S    
C2    H1    S    
Cu2   O9    S    
C7    H17   S    
C20   C21   A    
Cu1   Cu2   S    
C23   O8    A    
C27   C28   A    
C17   N2    S    
C14   C15   A    
C9    N2    A    
C4    C9    A    
C13   C14   A    
C44   O12   S    
C44   C48   A    
C41   N3    A    
