data_mof_unit_22240.cif
_audit_creation_date              2012-12-11T17:19:06-0500
_audit_creation_method            fapswitch 2.2
_symmetry_space_group_name_H-M    P1
_symmetry_Int_Tables_number       1
_space_group_crystal_system       triclinic
_cell_length_a                    14.58335
_cell_length_b                    7.271382
_cell_length_c                    13.526751
_cell_angle_alpha                 90.000113
_cell_angle_beta                  99.873438
_cell_angle_gamma                 89.999888
_cell_volume                      1413.14679129

loop_
_atom_site_label
_atom_site_type_symbol
_atom_type_description
_atom_site_fract_x
_atom_site_fract_y
_atom_site_fract_z
_atom_type_partial_charge
O1    O     O_R   0.648180 0.355050 0.151550 -0.518804
O2    O     O_R   0.351820 0.644950 0.848450 -0.518803
O3    O     O_R   0.851820 0.855050 0.348450 -0.518788
O4    O     O_R   0.148180 0.144950 0.651550 -0.518788
O5    O     O_R   0.835240 0.681980 0.154280 -0.542599
O6    O     O_R   0.164760 0.318020 0.845720 -0.542599
O7    O     O_R   0.664760 0.181980 0.345720 -0.542619
O8    O     O_R   0.335240 0.818020 0.654280 -0.542619
C1    C     C_R   0.865440 0.516179 0.135237 0.756119
C2    C     C_R   0.134560 0.483821 0.864763 0.756119
C3    C     C_R   0.634554 0.016184 0.364756 0.756122
C4    C     C_R   0.365446 0.983816 0.635244 0.756122
O9    O     O_R   0.647870 0.684600 0.139630 -0.523794
O10   O     O_R   0.352130 0.315400 0.860370 -0.523794
O11   O     O_R   0.852130 0.184600 0.360370 -0.523798
O12   O     O_R   0.147870 0.815400 0.639630 -0.523798
O13   O     O_R   0.663110 0.857440 0.333700 -0.519239
O14   O     O_R   0.336890 0.142560 0.666300 -0.519239
O15   O     O_R   0.836890 0.357440 0.166300 -0.519250
O16   O     O_R   0.163110 0.642560 0.833700 -0.519250
C5    C     C_R   0.615034 0.515982 0.113292 0.730433
C6    C     C_R   0.384966 0.484018 0.886708 0.730433
C7    C     C_R   0.884966 0.015981 0.386708 0.730445
C8    C     C_R   0.115034 0.984019 0.613292 0.730445
O17   O     O_3   0.755220 0.522230 0.313690 -0.372754
O18   O     O_3   0.244780 0.477770 0.686310 -0.372754
O19   O     O_3   0.744780 0.022230 0.186310 -0.372767
O20   O     O_3   0.255220 0.977770 0.813690 -0.372767
V1    V     V_3+5 0.749030 0.796100 0.238190 1.630563
V2    V     V_3+5 0.250970 0.203900 0.761810 1.630563
V3    V     V_3+5 0.750970 0.296100 0.261810 1.630538
V4    V     V_3+5 0.249030 0.703900 0.738190 1.630538
C9    C     C_1   0.966030 0.005342 0.466730 0.025616
C10   C     C_1   0.033970 0.994658 0.533270 0.025616
C11   C     C_1   0.533970 0.505343 0.033270 0.025606
C12   C     C_1   0.466030 0.494657 0.966730 0.025605
C13   C     C_R   0.572349 0.980097 0.712953 0.311327
C14   C     C_R   0.427651 0.019903 0.287047 0.311327
C15   C     C_R   0.927654 0.480061 0.787050 0.311328
C16   C     C_R   0.072345 0.519939 0.212949 0.311328
C17   C     C_R   0.669990 0.967531 0.745616 -0.071791
C18   C     C_R   0.330010 0.032469 0.254384 -0.071791
C19   C     C_R   0.830013 0.467516 0.754385 -0.071766
C20   C     C_R   0.169987 0.532484 0.245615 -0.071766
C21   C     C_R   0.729487 0.968329 0.674741 0.350907
C22   C     C_R   0.270513 0.031671 0.325259 0.350907
C23   C     C_R   0.770510 0.468314 0.825254 0.350815
C24   C     C_R   0.229490 0.531685 0.174746 0.350815
C25   C     C_R   0.693381 0.981095 0.573481 -0.143440
C26   C     C_R   0.306619 0.018905 0.426518 -0.143440
C27   C     C_R   0.806613 0.481074 0.926513 -0.143471
C28   C     C_R   0.193387 0.518926 0.073487 -0.143471
C29   C     C_R   0.596713 0.991900 0.537198 -0.030281
C30   C     C_R   0.403287 0.008099 0.462802 -0.030282
C31   C     C_R   0.903283 0.491881 0.962798 -0.030270
C32   C     C_R   0.096716 0.508119 0.037201 -0.030270
C33   C     C_R   0.533725 0.988387 0.607091 0.011872
C34   C     C_R   0.466275 0.011613 0.392909 0.011872
C35   C     C_R   0.966276 0.488372 0.892909 0.011890
C36   C     C_R   0.033724 0.511628 0.107091 0.011890
C37   C     C_R   0.564075 0.005847 0.431865 -0.082294
C38   C     C_R   0.435924 0.994153 0.568135 -0.082295
C39   C     C_R   0.935921 0.505836 0.068131 -0.082292
C40   C     C_R   0.064079 0.494164 0.931868 -0.082291
H1    H     H_    0.743540 0.980000 0.523210 0.122959
H2    H     H_    0.256460 0.020000 0.476790 0.122959
H3    H     H_    0.756450 0.479977 0.976781 0.122947
H4    H     H_    0.243550 0.520023 0.023219 0.122947
C41   C     C_2   0.710639 0.954812 0.854277 0.921784
O21   O     O_2   0.778583 0.047309 0.888972 -0.538292
O22   O     O_R   0.671862 0.835945 0.916990 -0.624629
H5    H     H_    0.706462 0.839550 0.988587 0.300981
C42   C     C_2   0.289361 0.045187 0.145723 0.921784
O23   O     O_2   0.221417 0.952691 0.111028 -0.538292
O24   O     O_R   0.328138 0.164055 0.083009 -0.624629
H6    H     H_    0.293538 0.160450 0.011413 0.300981
C43   C     C_2   0.789369 0.454822 0.645725 0.921838
O25   O     O_2   0.721459 0.547403 0.611023 -0.538296
O26   O     O_R   0.828112 0.335893 0.583015 -0.624647
H7    H     H_    0.793510 0.339505 0.511420 0.300971
C44   C     C_2   0.210631 0.545178 0.354274 0.921838
O27   O     O_2   0.278541 0.452597 0.388977 -0.538296
O28   O     O_R   0.171888 0.664107 0.416985 -0.624647
H8    H     H_    0.206490 0.660495 0.488579 0.300971
Cl1   Cl    Cl    0.504569 0.001982 0.809684 -0.573544
Cl2   Cl    Cl    0.495431 0.998018 0.190316 -0.573543
Cl3   Cl    Cl    0.995435 0.501885 0.690322 -0.573558
Cl4   Cl    Cl    0.004565 0.498115 0.309677 -0.573558
Cl5   Cl    Cl    0.148495 0.053130 0.291127 -0.621012
Cl6   Cl    Cl    0.851505 0.946869 0.708873 -0.621012
Cl7   Cl    Cl    0.351508 0.553115 0.208898 -0.621062
Cl8   Cl    Cl    0.648492 0.446885 0.791102 -0.621062

loop_
_geom_bond_atom_site_label_1
_geom_bond_atom_site_label_2
_ccdc_geom_bond_type
O17   V3    S    
O1    C5    A    
C16   C36   A    
C31   C35   A    
O19   V1    S    
O13   V1    S    
C23   Cl8   S    
O3    C7    A    
C11   C12   T    
C15   Cl3   S    
O15   V3    S    
C44   O27   D    
C33   C38   A    
C22   Cl5   S    
C43   O25   D    
O7    C3    A    
C35   C40   A    
C26   C30   A    
C25   H1    S    
C14   Cl2   S    
C36   C39   A    
C13   Cl1   S    
C14   C18   A    
C18   C22   A    
O4    C8    A    
O1    V3    S    
O2    V4    S    
C42   O23   D    
O3    V1    S    
C14   C34   A    
C29   C37   A    
C1    O15   A    
C2    O16   A    
C7    C9    S    
C24   Cl7   S    
C31   C39   A    
O2    C6    A    
C32   C40   A    
O14   V2    S    
C16   C20   A    
C28   H4    S    
C34   C37   A    
O11   C7    A    
C41   O22   S    
O12   C8    A    
C42   O24   S    
O10   V2    S    
C44   O28   S    
O5    V1    S    
C43   O26   S    
O7    V3    S    
O8    V4    S    
C20   C44   S    
C29   C33   A    
O18   V4    S    
C23   C27   A    
C30   C38   A    
C8    C10   S    
C32   C36   A    
O24   H6    S    
O5    C1    A    
C4    C38   S    
O28   H8    S    
C21   C25   A    
O8    C4    A    
C15   C35   A    
C30   C34   A    
C9    C10   T    
O9    C5    A    
C27   H3    S    
C21   Cl6   S    
C26   H2    S    
O6    V2    S    
O12   V4    S    
C17   C41   S    
O16   V4    S    
O9    V1    S    
C3    O13   A    
C18   C42   S    
C1    C39   S    
C2    C40   S    
C3    C37   S    
O6    C2    A    
C15   C19   A    
O11   V3    S    
C5    C11   S    
C19   C43   S    
C6    C12   S    
C22   C26   A    
C16   Cl4   S    
O20   V2    S    
O22   H5    S    
O10   C6    A    
C25   C29   A    
C27   C31   A    
C13   C17   A    
C41   O21   D    
O4    V2    S    
O26   H7    S    
C28   C32   A    
C24   C28   A    
C4    O14   A    
C17   C21   A    
C19   C23   A    
C13   C33   A    
C20   C24   A    
