data_mof_unit_15916.cif
_audit_creation_date              2012-12-10T19:09:35-0500
_audit_creation_method            fapswitch 2.2
_symmetry_space_group_name_H-M    P1
_symmetry_Int_Tables_number       1
_space_group_crystal_system       triclinic
_cell_length_a                    9.528767
_cell_length_b                    10.804803
_cell_length_c                    17.082273
_cell_angle_alpha                 89.729865
_cell_angle_beta                  93.737568
_cell_angle_gamma                 90.189178
_cell_volume                      1754.96212379

loop_
_atom_site_label
_atom_site_type_symbol
_atom_type_description
_atom_site_fract_x
_atom_site_fract_y
_atom_site_fract_z
_atom_type_partial_charge
C1    C     C_R   0.499874 0.262355 0.501870 0.803996
C2    C     C_R   0.657125 0.487086 0.779162 -0.236783
C3    C     C_R   0.561497 0.447485 0.138550 -0.195649
C4    C     C_R   0.566008 0.433252 0.219948 -0.052361
C5    C     C_R   0.463690 0.528018 0.099673 0.365541
C6    C     C_R   0.473291 0.502903 0.263475 -0.071871
C7    C     C_R   0.374182 0.581008 0.224427 -0.249023
C8    C     C_R   0.368984 0.592642 0.143098 -0.193258
C9    C     C_R   0.613526 0.063190 0.540412 0.101537
C10   C     C_R   0.497322 0.129224 0.508514 -0.082463
C11   C     C_R   0.373294 0.064304 0.485844 -0.229189
C12   C     C_R   0.517314 0.499279 0.650949 0.786282
C13   C     C_R   0.373883 0.935637 0.484073 -0.230077
C14   C     C_R   0.498415 0.870838 0.504804 -0.112403
C15   C     C_R   0.614715 0.935923 0.537074 0.066041
C16   C     C_3   0.766667 0.932480 0.519239 -0.189536
C17   C     C_3   0.766812 0.073139 0.527626 -0.519938
C18   C     C_R   0.069994 0.595133 0.465902 0.283324
C19   C     C_R   0.078904 0.413226 0.540656 -0.084133
C20   C     C_R   0.929896 0.413265 0.540690 -0.073720
C21   C     C_R   0.922604 0.595280 0.466056 0.286049
C22   C     C_3   0.906731 0.635503 0.382386 -0.509146
C23   C     C_R   0.500026 0.737687 0.499985 0.788473
C24   C     C_3   0.065998 0.634702 0.382074 -0.529276
C25   C     C_R   0.482722 0.500216 0.349262 0.798068
C26   C     C_R   0.526883 0.501753 0.736915 -0.023004
C27   C     C_R   0.405239 0.519273 0.777473 -0.243830
C28   C     C_R   0.413545 0.522801 0.858963 -0.162288
C29   C     C_R   0.544437 0.508158 0.901411 0.388575
C30   C     C_R   0.665346 0.489817 0.860844 -0.200044
Cu1   Cu    Cu3+1 0.640670 0.499980 0.500000 0.948307
Cu2   Cu    Cu3+1 0.359330 0.500020 0.500000 0.932898
H1    H     H_    0.279336 0.887556 0.462489 0.152861
H2    H     H_    0.780302 0.902111 0.458067 0.139827
H3    H     H_    0.827305 0.107775 0.581022 0.192091
H4    H     H_    0.789085 0.123435 0.473247 0.208204
H5    H     H_    0.138238 0.341626 0.572311 0.141488
H6    H     H_    0.877432 0.341925 0.572508 0.135959
H7    H     H_    0.855622 0.564351 0.343392 0.225904
H8    H     H_    0.861010 0.729701 0.375686 0.184210
H9    H     H_    0.105666 0.562447 0.343103 0.219442
H10   H     H_    0.631070 0.391909 0.105445 0.157236
H11   H     H_    0.112073 0.728416 0.374987 0.184729
H12   H     H_    0.766235 0.476934 0.892796 0.138274
H13   H     H_    0.752330 0.472177 0.749222 0.154626
H14   H     H_    0.302490 0.635026 0.257059 0.152220
H15   H     H_    0.317349 0.534944 0.888416 0.149108
H16   H     H_    0.291864 0.653320 0.113771 0.143171
H17   H     H_    0.303377 0.529797 0.746300 0.153417
H18   H     H_    0.278397 0.112461 0.465070 0.158834
N1    N     N_2   0.557928 0.503989 0.984460 -0.267500
N2    N     N_2   0.452018 0.540202 0.016850 -0.264684
N3    N     N_R   0.147870 0.500930 0.499500 -0.186789
N4    N     N_R   0.851960 0.500890 0.499500 -0.183236
O1    O     O_R   0.618810 0.319640 0.500000 -0.575652
O2    O     O_R   0.381230 0.319680 0.499990 -0.591118
O3    O     O_R   0.631790 0.498830 0.613930 -0.587452
O4    O     O_R   0.394210 0.498870 0.613920 -0.584454
O5    O     O_R   0.618770 0.680320 0.500010 -0.582418
O6    O     O_R   0.381190 0.680360 0.500000 -0.585728
O7    O     O_R   0.605790 0.501130 0.386080 -0.570428
O8    O     O_R   0.368210 0.501170 0.386070 -0.585021
C31   C     C_R   0.659597 0.337065 0.256343 0.128691
C32   C     C_R   0.805520 0.343280 0.249386 -0.155451
C33   C     C_R   0.892504 0.248053 0.279475 -0.119995
C34   C     C_R   0.834072 0.144897 0.314965 -0.129665
C35   C     C_R   0.688756 0.137665 0.321455 -0.144551
C36   C     C_R   0.601815 0.233894 0.293029 -0.116962
H19   H     H_    0.851618 0.421627 0.220595 0.121886
H20   H     H_    0.005008 0.253593 0.274498 0.127393
H21   H     H_    0.901327 0.070619 0.337559 0.114618
H22   H     H_    0.643463 0.057535 0.348675 0.133969
H23   H     H_    0.489314 0.226744 0.297966 0.106143
C37   C     C_R   0.866007 0.867672 0.578830 0.164652
C38   C     C_R   0.011322 0.877094 0.570222 -0.190304
C39   C     C_R   0.107101 0.815523 0.622111 -0.124264
C40   C     C_R   0.058726 0.743833 0.683053 -0.121518
C41   C     C_R   0.914596 0.733414 0.692175 -0.155770
C42   C     C_R   0.818294 0.794585 0.640375 -0.079097
H24   H     H_    0.050154 0.931871 0.522937 0.125336
H25   H     H_    0.218830 0.823216 0.615055 0.151133
H26   H     H_    0.132883 0.696645 0.723366 0.123286
H27   H     H_    0.877474 0.677987 0.739544 0.132262
H28   H     H_    0.707264 0.784067 0.648596 0.119992

loop_
_geom_bond_atom_site_label_1
_geom_bond_atom_site_label_2
_ccdc_geom_bond_type
C3    H10   S    
C18   C21   A    
Cu1   O7    S    
C19   C20   A    
Cu2   O4    S    
C7    C8    A    
C28   H15   S    
C40   C41   A    
C23   O5    A    
C4    C31   S    
C26   C27   A    
C16   C37   S    
C28   C29   A    
C1    O2    A    
C21   N4    A    
C6    C25   S    
C33   H20   S    
C35   H22   S    
Cu1   O5    S    
C19   H5    S    
C18   N3    A    
C16   H2    S    
C41   H27   S    
Cu1   Cu2   S    
C16   C17   S    
C5    N2    S    
C17   H4    S    
C38   H24   S    
C12   O4    A    
C19   N3    A    
C34   C35   A    
C13   C14   A    
C24   H9    S    
C20   N4    A    
C30   H12   S    
C9    C10   A    
C2    H13   S    
C23   O6    A    
C37   C38   A    
C35   C36   A    
C7    H14   S    
C39   C40   A    
C4    C6    A    
C41   C42   A    
C36   H23   S    
C15   C16   S    
N1    N2    D    
C12   C26   S    
C14   C23   S    
C38   C39   A    
C8    H16   S    
C13   H1    S    
C29   C30   A    
C20   H6    S    
C34   H21   S    
C22   H8    S    
C2    C26   A    
C25   O7    A    
C32   H19   S    
C12   O3    A    
C9    C17   S    
C37   C42   A    
C18   C24   S    
Cu2   O6    S    
C3    C4    A    
Cu2   N3    S    
C29   N1    S    
C31   C36   A    
C1    C10   S    
C3    C5    A    
C39   H25   S    
C5    C8    A    
C6    C7    A    
C2    C30   A    
C32   C33   A    
Cu1   O3    S    
C9    C15   A    
Cu2   O8    S    
C11   H18   S    
C11   C13   A    
C42   H28   S    
C40   H26   S    
C22   H7    S    
C22   C24   S    
C25   O8    A    
Cu1   N4    S    
C1    O1    A    
C10   C11   A    
C31   C32   A    
C33   C34   A    
C27   C28   A    
C24   H11   S    
C14   C15   A    
C17   H3    S    
Cu1   O1    S    
C21   C22   S    
Cu2   O2    S    
C27   H17   S    
