data_mof_unit_38322.cif
_audit_creation_date              2012-12-11T15:43:49-0500
_audit_creation_method            fapswitch 2.2
_symmetry_space_group_name_H-M    P1
_symmetry_Int_Tables_number       1
_space_group_crystal_system       triclinic
_cell_length_a                    14.468535
_cell_length_b                    16.265443
_cell_length_c                    6.920875
_cell_angle_alpha                 90.015696
_cell_angle_beta                  98.667564
_cell_angle_gamma                 90.158883
_cell_volume                      1610.13104258

loop_
_atom_site_label
_atom_site_type_symbol
_atom_type_description
_atom_site_fract_x
_atom_site_fract_y
_atom_site_fract_z
_atom_type_partial_charge
O1    O     O_R   0.831700 0.662810 0.581550 -0.516905
O2    O     O_R   0.168300 0.337190 0.418450 -0.514576
O3    O     O_R   0.168300 0.162810 0.418450 -0.518920
O4    O     O_R   0.831700 0.837190 0.581550 -0.526366
O5    O     O_R   0.842890 0.834390 0.255500 -0.513182
O6    O     O_R   0.157110 0.165610 0.744500 -0.551836
O7    O     O_R   0.157110 0.334390 0.744500 -0.519687
O8    O     O_R   0.842890 0.665610 0.255500 -0.554908
O9    O     O_R   0.661690 0.835580 0.024130 -0.547017
O10   O     O_R   0.338310 0.164420 0.975870 -0.547132
O11   O     O_R   0.338310 0.335580 0.975870 -0.545461
O12   O     O_R   0.661690 0.664420 0.024130 -0.547107
C1    C     C_R   0.865784 0.864323 0.430462 0.774842
C2    C     C_R   0.133837 0.136172 0.569160 0.735703
C3    C     C_R   0.135202 0.365069 0.570031 0.749859
C4    C     C_R   0.865236 0.635253 0.430175 0.740243
C5    C     C_R   0.064903 0.066773 0.538285 -0.197995
C6    C     C_R   0.933661 0.934849 0.459765 -0.181096
C7    C     C_R   0.933801 0.565423 0.460473 -0.202001
C8    C     C_R   0.067600 0.435606 0.540247 -0.179985
C9    C     C_R   0.025131 0.927958 0.411139 -0.100427
C10   C     C_R   0.972393 0.075505 0.579977 -0.090150
C11   C     C_R   0.986394 0.437491 0.632612 -0.079910
C12   C     C_R   0.016098 0.564869 0.371277 -0.117452
O13   O     O_3   0.687240 0.750000 0.366320 -0.384741
O14   O     O_3   0.312760 0.250000 0.633680 -0.385158
V1    V     V_3+5 0.757720 0.750000 0.115230 1.542973
V2    V     V_3+5 0.242280 0.250000 0.884770 1.545240
O15   O     O_R   0.650500 0.664000 0.690740 -0.537822
O16   O     O_R   0.349500 0.336000 0.309260 -0.540030
O17   O     O_R   0.349500 0.164000 0.309260 -0.536729
O18   O     O_R   0.650500 0.836000 0.690740 -0.538063
C13   C     C_R   0.628164 0.636060 0.853534 0.785427
C14   C     C_R   0.371902 0.363888 0.146474 0.790980
C15   C     C_R   0.371665 0.135963 0.146344 0.774125
C16   C     C_R   0.628306 0.864014 0.853653 0.776863
C17   C     C_R   0.090630 0.992526 0.455227 0.220174
C18   C     C_R   0.907930 0.009020 0.544574 0.285202
C19   C     C_R   0.919018 0.500109 0.587845 0.224374
C20   C     C_R   0.082258 0.500537 0.411322 0.302771
V3    V     V_3+5 0.735670 0.750000 0.607790 1.542046
V4    V     V_3+5 0.264330 0.250000 0.392210 1.555607
O19   O     O_3   0.806150 0.750000 0.906560 -0.354989
O20   O     O_3   0.193850 0.250000 0.093440 -0.348706
H1    H     H_    0.435571 0.056357 0.850303 0.161353
H2    H     H_    0.564380 0.943604 0.149692 0.159347
H3    H     H_    0.564575 0.556568 0.149532 0.155637
H4    H     H_    0.435515 0.443360 0.850477 0.153689
C21   C     C_2   0.559412 0.931793 0.843960 -0.275028
C22   C     C_2   0.440542 0.068170 0.156037 -0.271679
C23   C     C_2   0.440866 0.431759 0.156303 -0.279861
C24   C     C_2   0.559222 0.568172 0.843704 -0.277787
C25   C     C_2   0.534192 0.965896 0.005974 -0.095863
C26   C     C_2   0.465758 0.034064 0.994021 -0.096167
C27   C     C_2   0.465858 0.465801 0.994131 -0.097045
C28   C     C_2   0.534235 0.534125 0.005877 -0.098438
H5    H     H_    0.470683 0.045245 0.299190 0.146211
H6    H     H_    0.529270 0.954718 0.700807 0.145690
H7    H     H_    0.528940 0.545104 0.700602 0.138066
H8    H     H_    0.471151 0.454824 0.299405 0.137384
C29   C     C_2   0.055543 0.852572 0.319912 0.444873
H9    H     H_    0.118925 0.821750 0.385576 0.133903
O21   O     O_2   0.013606 0.827403 0.164939 -0.505848
C30   C     C_2   0.942761 0.155314 0.654634 0.442899
H10   H     H_    0.989960 0.190266 0.760396 0.037505
O22   O     O_2   0.866335 0.184477 0.593266 -0.489215
C31   C     C_2   0.968041 0.373206 0.773181 0.432543
H11   H     H_    0.907347 0.333697 0.739375 0.115939
O23   O     O_2   0.016386 0.368203 0.933242 -0.499192
C32   C     C_2   0.034393 0.631792 0.236455 0.490589
H12   H     H_    0.982321 0.648432 0.113516 0.089997
O24   O     O_2   0.108665 0.668867 0.261201 -0.491942
Br1   Br    Br    0.217290 0.978703 0.401439 -0.563446
Br2   Br    Br    0.783369 0.018920 0.612773 -0.487613
Br3   Br    Br    0.803457 0.492584 0.697175 -0.556856
Br4   Br    Br    0.195090 0.503497 0.290901 -0.467720

loop_
_geom_bond_atom_site_label_1
_geom_bond_atom_site_label_2
_ccdc_geom_bond_type
H4    C27   S    
C27   C28   S    
O3    V4    S    
O17   V4    S    
C6    C9    A    
C12   C32   S    
C25   C26   S    
C13   C24   S    
O9    V1    S    
C14   C23   S    
C22   C26   D    
C1    C6    S    
O18   C16   A    
C8    C20   A    
C11   C19   A    
O4    V3    S    
C10   C18   A    
O15   C13   A    
C11   C31   S    
O4    C1    A    
C29   O21   D    
O5    V1    S    
O6    V2    S    
O9    C16   A    
O18   V3    S    
O10   C15   A    
C19   Br3   S    
C9    C29   S    
O7    C3    A    
O8    C4    A    
V3    O19   S    
C2    C5    S    
V4    O20   S    
C3    C8    S    
O16   C14   A    
O12   V1    S    
C31   H11   S    
O13   V3    S    
V2    O20   S    
C21   H6    S    
C20   Br4   S    
C31   O23   D    
C30   O22   D    
C24   H7    S    
O6    C2    A    
C8    C11   A    
C15   C22   S    
O1    C4    A    
C5    C17   A    
O2    C3    A    
C32   H12   S    
O3    C2    A    
C7    C19   A    
O1    V3    S    
H1    C26   S    
O17   C15   A    
O14   V4    S    
C18   Br2   S    
O10   V2    S    
C17   Br1   S    
O15   V3    S    
C22   H5    S    
O5    C1    A    
O11   C14   A    
O13   V1    S    
O14   V2    S    
C5    C10   A    
C30   H10   S    
C7    C12   A    
C6    C18   A    
O11   V2    S    
O2    V4    S    
C4    C7    S    
C21   C25   D    
H2    C25   S    
C12   C20   A    
C23   C27   D    
C29   H9    S    
O7    V2    S    
C10   C30   S    
V1    O19   S    
C9    C17   A    
O8    V1    S    
O16   V4    S    
C32   O24   D    
C23   H8    S    
O12   C13   A    
C16   C21   S    
C24   C28   D    
H3    C28   S    
