data_mof_unit_63381.cif
_audit_creation_date              2012-12-10T19:51:48-0500
_audit_creation_method            fapswitch 2.2
_symmetry_space_group_name_H-M    P1
_symmetry_Int_Tables_number       1
_space_group_crystal_system       triclinic
_cell_length_a                    25.964679
_cell_length_b                    26.046603
_cell_length_c                    22.1611
_cell_angle_alpha                 89.999966
_cell_angle_beta                  125.712638
_cell_angle_gamma                 90.000018
_cell_volume                      12169.0650187

loop_
_atom_site_label
_atom_site_type_symbol
_atom_type_description
_atom_site_fract_x
_atom_site_fract_y
_atom_site_fract_z
_atom_type_partial_charge
C1    C     C_R   0.650327 0.750020 0.300602 0.821662
C2    C     C_3   0.502055 0.797855 0.024506 -0.189494
C3    C     C_R   0.263288 0.525899 0.458651 0.131659
C4    C     C_R   0.748638 0.945552 0.499624 -0.091395
C5    C     C_R   0.748638 0.054448 0.499624 -0.091399
C6    C     C_R   0.248638 0.445552 0.499624 -0.091400
C7    C     C_R   0.248638 0.554448 0.499624 -0.091396
C8    C     C_R   0.732470 0.972994 0.541383 -0.202078
C9    C     C_R   0.732471 0.027006 0.541383 -0.202088
C10   C     C_R   0.232468 0.472994 0.541381 -0.202092
C11   C     C_R   0.232468 0.527006 0.541381 -0.202090
C12   C     C_3   0.785268 0.029578 0.409960 -0.475266
C13   C     C_3   0.998244 0.703102 0.024522 -0.189958
C14   C     C_3   0.785268 0.970422 0.409960 -0.475266
C15   C     C_3   0.285273 0.529578 0.409965 -0.475284
C16   C     C_3   0.285273 0.470422 0.409965 -0.475280
C17   C     C_R   0.609240 0.751025 0.498845 0.832727
C18   C     C_R   0.609241 0.248976 0.498846 0.832641
C19   C     C_R   0.109241 0.251024 0.498846 0.832667
C20   C     C_R   0.109240 0.748975 0.498845 0.832669
C21   C     C_R   0.749868 0.890006 0.499964 0.812633
C22   C     C_R   0.749868 0.109994 0.499964 0.812597
C23   C     C_R   0.249868 0.390006 0.499964 0.812603
C24   C     C_3   0.997785 0.296762 0.024523 -0.190005
C25   C     C_R   0.249868 0.609994 0.499964 0.812616
C26   C     C_R   0.750042 0.609998 0.500069 0.805650
C27   C     C_R   0.750042 0.390001 0.500069 0.805649
C28   C     C_R   0.250042 0.109998 0.500069 0.805646
C29   C     C_R   0.250042 0.890001 0.500069 0.805651
C30   C     C_R   0.695497 0.525901 0.457601 0.133860
C31   C     C_R   0.695497 0.474098 0.457601 0.133781
C32   C     C_R   0.195497 0.025902 0.457599 0.133776
C33   C     C_R   0.195497 0.974098 0.457599 0.133778
C34   C     C_R   0.750834 0.554447 0.500347 -0.085853
C35   C     C_3   0.939897 0.738709 0.975292 -0.164468
C36   C     C_R   0.750834 0.445553 0.500347 -0.085856
C37   C     C_R   0.250834 0.054447 0.500347 -0.085845
C38   C     C_R   0.250834 0.945553 0.500347 -0.085846
C39   C     C_R   0.808422 0.526996 0.544552 -0.218018
C40   C     C_R   0.808422 0.473004 0.544552 -0.218010
C41   C     C_R   0.308422 0.026996 0.544554 -0.218003
C42   C     C_R   0.308422 0.973004 0.544554 -0.217986
C43   C     C_3   0.939786 0.260829 0.975292 -0.164439
C44   C     C_3   0.439426 0.240879 0.975295 -0.164339
C45   C     C_3   0.440963 0.765053 0.975287 -0.164735
C46   C     C_1   0.889291 0.750090 0.778826 -0.137686
C47   C     C_1   0.889291 0.249910 0.778826 -0.137682
C48   C     C_1   0.389292 0.250090 0.778826 -0.137676
C49   C     C_R   0.650326 0.249979 0.300602 0.821475
C50   C     C_1   0.389290 0.749911 0.778826 -0.137685
C51   C     C_1   0.610695 0.249864 0.221187 -0.138534
C52   C     C_1   0.610716 0.750116 0.221187 -0.138557
C53   C     C_1   0.110703 0.749871 0.221187 -0.138527
C54   C     C_1   0.110700 0.250131 0.221187 -0.138549
C55   C     C_3   0.020736 0.714399 0.974509 -0.147862
C56   C     C_3   0.020385 0.285926 0.974510 -0.147871
C57   C     C_3   0.519074 0.212910 0.974516 -0.147893
C58   C     C_3   0.523491 0.782804 0.974499 -0.147796
C59   C     C_3   0.963247 0.750140 0.926736 0.173063
C60   C     C_R   0.150326 0.250021 0.300602 0.821520
C61   C     C_3   0.963245 0.249860 0.926736 0.173066
C62   C     C_3   0.463247 0.250138 0.926736 0.173048
C63   C     C_3   0.463245 0.749858 0.926736 0.173077
C64   C     C_3   0.560438 0.258729 0.024303 -0.189801
C65   C     C_3   0.558977 0.735291 0.024311 -0.190627
C66   C     C_3   0.059996 0.760916 0.024305 -0.190081
C67   C     C_3   0.060097 0.239550 0.024305 -0.190049
C68   C     C_3   0.537021 0.249490 0.073255 0.182752
C69   C     C_3   0.537095 0.750440 0.073255 0.182831
C70   C     C_3   0.037049 0.749515 0.073255 0.182772
C71   C     C_R   0.150326 0.749979 0.300602 0.821545
C72   C     C_3   0.037041 0.250492 0.073255 0.182783
C73   C     C_3   0.001916 0.796789 0.975020 -0.216122
C74   C     C_3   0.002368 0.203355 0.975020 -0.216151
C75   C     C_3   0.504026 0.296080 0.975012 -0.216243
C76   C     C_3   0.498130 0.702200 0.975037 -0.215887
C77   C     C_R   0.849641 0.750012 0.699405 0.815206
C78   C     C_R   0.849641 0.249988 0.699405 0.815209
C79   C     C_R   0.349642 0.250012 0.699405 0.815206
C80   C     C_R   0.349641 0.749988 0.699405 0.815216
C81   C     C_3   0.481537 0.285743 0.024404 0.151208
C82   C     C_3   0.625174 0.470421 0.404738 -0.478737
C83   C     C_3   0.477307 0.718352 0.024420 0.151103
C84   C     C_3   0.979945 0.784322 0.024410 0.151166
C85   C     C_3   0.980278 0.215370 0.024409 0.151188
C86   C     C_1   0.922669 0.750133 0.845624 -0.070754
C87   C     C_1   0.922668 0.249867 0.845624 -0.070753
C88   C     C_1   0.422670 0.250133 0.845624 -0.070735
C89   C     C_1   0.422667 0.749867 0.845624 -0.070770
C90   C     C_1   0.577417 0.249704 0.154395 -0.066045
C91   C     C_1   0.577461 0.750255 0.154395 -0.066111
C92   C     C_1   0.077433 0.749719 0.154395 -0.066064
C93   C     C_3   0.625174 0.529579 0.404738 -0.479023
C94   C     C_1   0.077428 0.250286 0.154395 -0.066084
C95   C     C_R   0.507154 0.714478 0.460794 0.073571
C96   C     C_R   0.507155 0.285524 0.460796 0.073484
C97   C     C_R   0.007157 0.214476 0.460799 0.073510
C98   C     C_R   0.007156 0.785522 0.460796 0.073533
C99   C     C_R   0.550652 0.754871 0.493320 -0.135430
C100  C     C_R   0.550652 0.245130 0.493321 -0.135437
C101  C     C_R   0.050652 0.254870 0.493322 -0.135432
C102  C     C_R   0.050652 0.745129 0.493321 -0.135431
C103  C     C_R   0.534408 0.798857 0.516833 0.153716
C104  C     C_3   0.125174 0.970421 0.404733 -0.478816
C105  C     C_R   0.534407 0.201143 0.516830 0.153683
C106  C     C_R   0.034407 0.298857 0.516831 0.153690
C107  C     C_R   0.034408 0.701142 0.516832 0.153695
C108  C     C_R   0.481055 0.797214 0.517963 -0.243921
C109  C     C_R   0.481054 0.202787 0.517961 -0.243915
C110  C     C_R   0.981054 0.297213 0.517962 -0.243919
C111  C     C_R   0.981054 0.702785 0.517962 -0.243922
C112  C     C_R   0.442948 0.753068 0.494411 -0.145878
C113  C     C_R   0.442948 0.246933 0.494412 -0.145863
C114  C     C_R   0.942949 0.253067 0.494413 -0.145866
C115  C     C_3   0.125174 0.029579 0.404733 -0.478797
C116  C     C_R   0.942948 0.746932 0.494411 -0.145864
C117  C     C_R   0.453987 0.713772 0.460656 0.142409
C118  C     C_R   0.453988 0.286230 0.460659 0.142337
C119  C     C_R   0.953990 0.213770 0.460661 0.142350
C120  C     C_R   0.953988 0.786227 0.460658 0.142390
C121  C     C_3   0.458861 0.657076 0.473803 -0.098182
C122  C     C_3   0.458862 0.342925 0.473807 -0.098174
C123  C     C_3   0.958866 0.157075 0.473813 -0.098183
C124  C     C_3   0.958861 0.842923 0.473805 -0.098205
C125  C     C_R   0.889942 0.749910 0.499720 0.818165
C126  C     C_3   0.496117 0.203780 0.024531 -0.190182
C127  C     C_R   0.889943 0.250089 0.499721 0.818173
C128  C     C_R   0.389943 0.249911 0.499720 0.818166
C129  C     C_R   0.389943 0.750090 0.499720 0.818182
C130  C     C_3   0.517450 0.657887 0.473450 -0.530451
C131  C     C_3   0.517451 0.342115 0.473453 -0.530366
C132  C     C_3   0.017455 0.157885 0.473460 -0.530381
C133  C     C_3   0.017451 0.842113 0.473453 -0.530400
C134  C     C_R   0.763286 0.974101 0.458649 0.131655
C135  C     C_R   0.763286 0.025899 0.458649 0.131652
C136  C     C_R   0.263288 0.474101 0.458651 0.131657
H1    H     H_    0.853310 0.546950 0.579048 0.183214
H2    H     H_    0.468348 0.353709 0.528034 0.155179
H3    H     H_    0.968351 0.146292 0.528041 0.155181
H4    H     H_    0.968344 0.853708 0.528030 0.155181
H5    H     H_    0.561939 0.648402 0.528416 0.185225
H6    H     H_    0.561941 0.351599 0.528420 0.185219
H7    H     H_    0.061945 0.148403 0.528427 0.185222
H8    H     H_    0.061940 0.851597 0.528420 0.185216
H9    H     H_    0.511523 0.637773 0.425497 0.209350
H10   H     H_    0.511524 0.362229 0.425501 0.209394
H11   H     H_    0.011528 0.137769 0.425508 0.209390
H12   H     H_    0.853311 0.453050 0.579048 0.183215
H13   H     H_    0.011525 0.862227 0.425500 0.209395
H14   H     H_    0.720084 0.953011 0.574118 0.199346
H15   H     H_    0.720084 0.046989 0.574118 0.199350
H16   H     H_    0.220079 0.453011 0.574113 0.199350
H17   H     H_    0.220079 0.546989 0.574113 0.199344
H18   H     H_    0.748775 0.046704 0.354917 0.215331
H19   H     H_    0.748775 0.953297 0.354916 0.215324
H20   H     H_    0.248782 0.546703 0.354921 0.215321
H21   H     H_    0.248782 0.453296 0.354921 0.215324
H22   H     H_    0.833484 0.046571 0.439355 0.206773
H23   H     H_    0.353310 0.046950 0.579052 0.183218
H24   H     H_    0.833484 0.953429 0.439354 0.206771
H25   H     H_    0.333489 0.546570 0.439362 0.206774
H26   H     H_    0.333489 0.453429 0.439362 0.206773
H27   H     H_    0.609744 0.453336 0.350631 0.211041
H28   H     H_    0.609744 0.546664 0.350631 0.210868
H29   H     H_    0.109747 0.953336 0.350627 0.210989
H30   H     H_    0.109747 0.046664 0.350627 0.211000
H31   H     H_    0.603397 0.453372 0.430905 0.202127
H32   H     H_    0.603397 0.546628 0.430905 0.202134
H33   H     H_    0.103396 0.953372 0.430898 0.202132
H34   H     H_    0.353310 0.953050 0.579052 0.183224
H35   H     H_    0.103396 0.046628 0.430898 0.202131
H36   H     H_    0.890215 0.730431 0.954762 0.138189
H37   H     H_    0.890025 0.268724 0.954761 0.138233
H38   H     H_    0.389409 0.234398 0.954767 0.138388
H39   H     H_    0.392070 0.776448 0.954752 0.137862
H40   H     H_    0.493565 0.165902 0.045615 0.142062
H41   H     H_    0.504356 0.837071 0.045569 0.142124
H42   H     H_    0.997430 0.664669 0.045599 0.142068
H43   H     H_    0.996598 0.335084 0.045600 0.142062
H44   H     H_    0.002416 0.835473 0.954345 0.137621
H45   H     H_    0.470234 0.830074 0.538698 0.195617
H46   H     H_    0.003244 0.164776 0.954345 0.137581
H47   H     H_    0.506278 0.334233 0.954330 0.137501
H48   H     H_    0.495497 0.662775 0.954375 0.137858
H49   H     H_    0.610460 0.265731 0.045218 0.143491
H50   H     H_    0.607811 0.723403 0.045233 0.143197
H51   H     H_    0.109659 0.769706 0.045223 0.143424
H52   H     H_    0.109844 0.231142 0.045224 0.143379
H53   H     H_    0.037163 0.685312 0.952635 0.141231
H54   H     H_    0.036527 0.315277 0.952637 0.141223
H55   H     H_    0.534147 0.182612 0.952646 0.141187
H56   H     H_    0.470232 0.169926 0.538694 0.195624
H57   H     H_    0.542161 0.809614 0.952615 0.141324
H58   H     H_    0.398181 0.640602 0.361217 0.203838
H59   H     H_    0.416399 0.590346 0.418211 0.180246
H60   H     H_    0.398181 0.359400 0.361220 0.203850
H61   H     H_    0.416401 0.409656 0.418215 0.180258
H62   H     H_    0.898186 0.140596 0.361229 0.203852
H63   H     H_    0.916407 0.090342 0.418227 0.180264
H64   H     H_    0.898182 0.859394 0.361218 0.203889
H65   H     H_    0.916400 0.909653 0.418209 0.180263
H66   H     H_    0.423590 0.344944 0.007131 0.182348
H67   H     H_    0.970233 0.330074 0.538695 0.195620
H68   H     H_    0.498647 0.351541 0.082403 0.181537
H69   H     H_    0.412332 0.665764 0.007176 0.182552
H70   H     H_    0.486264 0.654566 0.082470 0.182023
H71   H     H_    0.919364 0.841236 0.007147 0.182452
H72   H     H_    0.994077 0.849504 0.082438 0.181723
H73   H     H_    0.920252 0.157955 0.007148 0.182438
H74   H     H_    0.995045 0.150044 0.082435 0.181677
H75   H     H_    0.970232 0.669925 0.538695 0.195618
H76   H     H_    0.468345 0.646292 0.528030 0.155184
I1    I     I_    0.585586 0.869358 0.551625 -0.343970
I2    I     I_    0.585582 0.130641 0.551616 -0.344025
I3    I     I_    0.085582 0.369359 0.551616 -0.344041
I4    I     I_    0.085583 0.630641 0.551618 -0.344085
N1    N     N_3   0.405023 0.629414 0.410801 -0.422536
N2    N     N_3   0.405024 0.370589 0.410806 -0.422542
N3    N     N_3   0.905029 0.129409 0.410814 -0.422542
N4    N     N_3   0.905023 0.870585 0.410802 -0.422521
N5    N     N_3   0.461393 0.325294 0.052904 -0.456979
N6    N     N_3   0.452472 0.683409 0.052938 -0.457015
N7    N     N_3   0.958034 0.822272 0.052916 -0.456950
N8    N     N_3   0.958740 0.177071 0.052916 -0.456963
O1    O     O_3   0.749980 0.749980 0.500000 -0.489043
O2    O     O_R   0.612630 0.280380 0.456900 -0.642599
O3    O     O_R   0.112630 0.219620 0.456900 -0.642589
O4    O     O_R   0.112630 0.780380 0.456900 -0.642585
O5    O     O_R   0.698160 0.780350 0.335610 -0.636595
O6    O     O_R   0.698160 0.219650 0.335610 -0.636696
O7    O     O_R   0.198160 0.280350 0.335610 -0.636675
O8    O     O_R   0.198160 0.719650 0.335610 -0.636660
O9    O     O_R   0.801810 0.780340 0.664390 -0.631908
O10   O     O_R   0.801810 0.219660 0.664390 -0.631896
O11   O     O_R   0.301810 0.280340 0.664390 -0.631903
O12   O     O_3   0.749980 0.250020 0.500000 -0.489061
O13   O     O_R   0.301810 0.719660 0.664390 -0.631899
O14   O     O_R   0.637440 0.719620 0.335610 -0.636593
O15   O     O_R   0.637440 0.280380 0.335610 -0.636316
O16   O     O_R   0.137440 0.219620 0.335610 -0.636386
O17   O     O_R   0.137440 0.780380 0.335610 -0.636405
O18   O     O_R   0.862520 0.719620 0.664390 -0.637239
O19   O     O_R   0.862520 0.280380 0.664390 -0.637238
O20   O     O_R   0.362520 0.219620 0.664390 -0.637224
O21   O     O_R   0.362520 0.780380 0.664390 -0.637250
O22   O     O_R   0.844240 0.780350 0.456900 -0.626644
O23   O     O_3   0.249980 0.249980 0.500000 -0.489058
O24   O     O_R   0.844240 0.219650 0.456900 -0.626648
O25   O     O_R   0.344240 0.280350 0.456900 -0.626653
O26   O     O_R   0.344240 0.719650 0.456900 -0.626638
O27   O     O_R   0.655730 0.780340 0.543100 -0.611280
O28   O     O_R   0.655730 0.219660 0.543100 -0.611267
O29   O     O_R   0.155730 0.280340 0.543100 -0.611270
O30   O     O_R   0.155730 0.719660 0.543100 -0.611278
O31   O     O_R   0.758800 0.865790 0.456890 -0.640848
O32   O     O_R   0.758800 0.134210 0.456890 -0.640854
O33   O     O_R   0.258800 0.365790 0.456890 -0.640853
O34   O     O_3   0.249980 0.750020 0.500000 -0.489057
O35   O     O_R   0.258800 0.634210 0.456890 -0.640855
O36   O     O_R   0.698070 0.634180 0.456910 -0.644540
O37   O     O_R   0.698070 0.365820 0.456910 -0.644470
O38   O     O_R   0.198070 0.134180 0.456910 -0.644489
O39   O     O_R   0.198070 0.865820 0.456910 -0.644495
O40   O     O_R   0.741170 0.865780 0.543090 -0.632970
O41   O     O_R   0.741170 0.134220 0.543090 -0.632971
O42   O     O_R   0.241170 0.365780 0.543090 -0.632969
O43   O     O_R   0.241170 0.634220 0.543090 -0.632970
O44   O     O_R   0.801880 0.634180 0.543110 -0.646962
O45   O     O_R   0.887330 0.719620 0.543100 -0.644463
O46   O     O_R   0.801880 0.365820 0.543110 -0.646971
O47   O     O_R   0.301880 0.134180 0.543110 -0.646969
O48   O     O_R   0.301880 0.865820 0.543110 -0.646960
O49   O     O_R   0.887330 0.280380 0.543100 -0.644456
O50   O     O_R   0.387330 0.219620 0.543100 -0.644448
O51   O     O_R   0.387330 0.780380 0.543100 -0.644469
O52   O     O_R   0.612630 0.719620 0.456900 -0.642578
Zn1   Zn    Zn3+2 0.824140 0.706600 0.561580 0.967772
Zn2   Zn    Zn3+2 0.737390 0.206640 0.561570 0.997600
Zn3   Zn    Zn3+2 0.237390 0.293360 0.561570 0.997609
Zn4   Zn    Zn3+2 0.237390 0.706640 0.561570 0.997604
Zn5   Zn    Zn3+2 0.675820 0.706600 0.438430 0.966303
Zn6   Zn    Zn3+2 0.675820 0.293400 0.438430 0.966453
Zn7   Zn    Zn3+2 0.175820 0.206600 0.438430 0.966416
Zn8   Zn    Zn3+2 0.175820 0.793400 0.438430 0.966413
Zn9   Zn    Zn3+2 0.824140 0.293400 0.561580 0.967782
Zn10  Zn    Zn3+2 0.324140 0.206600 0.561580 0.967793
Zn11  Zn    Zn3+2 0.324140 0.793400 0.561580 0.967781
Zn12  Zn    Zn3+2 0.762580 0.793360 0.438420 0.978248
Zn13  Zn    Zn3+2 0.762580 0.206640 0.438420 0.978151
Zn14  Zn    Zn3+2 0.262580 0.293360 0.438420 0.978163
Zn15  Zn    Zn3+2 0.262580 0.706640 0.438420 0.978198
Zn16  Zn    Zn3+2 0.737390 0.793360 0.561570 0.997634

loop_
_geom_bond_atom_site_label_1
_geom_bond_atom_site_label_2
_ccdc_geom_bond_type
O34   Zn15  S    
C99   C103  A    
C124  N4    S    
C55   C59   S    
O49   Zn9   S    
O51   Zn11  S    
H72   N7    S    
C124  C133  S    
C68   C81   S    
C95   C99   A    
C13   C70   S    
C131  H10   S    
O40   Zn16  S    
C130  H5    S    
C42   H34   S    
C49   C51   S    
C12   C135  S    
C68   C90   S    
C60   O16   A    
C2    H41   S    
C112  C129  S    
C70   C84   S    
C59   C73   S    
C72   C94   S    
C35   H36   S    
C125  O22   A    
C76   C83   S    
C25   O43   A    
C26   O44   A    
C82   H31   S    
H74   N8    S    
C43   C85   S    
H65   N4    S    
C44   C81   S    
C16   H26   S    
C98   C102  A    
C62   C88   S    
O31   Zn12  S    
C8    H14   S    
O2    Zn6   S    
O38   Zn7   S    
O1    Zn16  S    
O9    Zn16  S    
H63   N3    S    
C67   C74   S    
C31   C82   S    
C108  H45   S    
H64   N4    S    
C62   C75   S    
H61   N2    S    
C53   C71   S    
C43   C61   S    
C9    H15   S    
C15   H25   S    
C78   O19   A    
C12   H18   S    
C84   N7    S    
C46   C77   S    
C35   C84   S    
C98   C120  A    
C119  C123  S    
C61   C74   S    
C24   C56   S    
C58   H57   S    
C33   C38   A    
O11   Zn3   S    
C43   H37   S    
C30   C31   A    
O23   Zn14  S    
C85   N8    S    
C63   C76   S    
C14   H24   S    
C24   C43   S    
C31   C36   A    
C52   C91   T    
C127  O24   A    
O20   Zn10  S    
O10   Zn2   S    
H68   N5    S    
O21   Zn11  S    
C60   O7    A    
O22   Zn12  S    
C121  C130  S    
C49   O15   A    
C72   C85   S    
C66   C70   S    
C95   C117  A    
O12   Zn2   S    
C55   H53   S    
C44   H38   S    
C13   C35   S    
C45   H39   S    
C51   C90   T    
C28   O38   A    
O41   Zn2   S    
C13   H42   S    
C123  H3    S    
O43   Zn4   S    
C3    C136  A    
C118  C122  S    
C49   O6    A    
C19   O3    A    
O7    Zn14  S    
C61   C87   S    
C104  H29   S    
C19   O29   A    
C29   C38   S    
C95   C130  S    
O50   Zn10  S    
C2    C69   S    
O12   Zn13  S    
C110  C114  A    
C114  C119  A    
H66   N5    S    
C45   C83   S    
C127  O49   A    
O32   Zn13  S    
H58   N1    S    
C2    C45   S    
C56   H54   S    
C30   C34   A    
C34   C39   A    
O12   Zn6   S    
O5    Zn12  S    
C39   C40   A    
O16   Zn7   S    
O39   Zn8   S    
C116  C120  A    
O34   Zn11  S    
C47   C87   T    
C80   O13   A    
C97   C119  A    
C5    C9    A    
C58   C65   S    
C78   O10   A    
C63   C89   S    
O45   Zn1   S    
C102  C107  A    
C32   C37   A    
C128  O25   A    
C96   C131  S    
C116  C125  S    
O34   Zn4   S    
C16   C136  S    
C122  C131  S    
H59   N1    S    
C24   C72   S    
O47   Zn10  S    
C4    C134  A    
C101  C106  A    
C5    C135  A    
C123  N3    S    
C65   H50   S    
C133  H8    S    
C105  I2    S    
C132  H11   S    
C107  C111  A    
O3    Zn7   S    
C20   O30   A    
C134  C135  A    
C74   H46   S    
O42   Zn3   S    
C20   O4    A    
C79   O11   A    
C28   C37   S    
H70   N6    S    
C96   C100  A    
C64   C75   S    
C74   C85   S    
C37   C41   A    
C10   C11   A    
C11   H17   S    
C25   O35   A    
C26   O36   A    
O1    Zn1   S    
O34   Zn8   S    
C47   C78   S    
C12   H22   S    
C69   C91   S    
C41   C42   A    
H62   N3    S    
O36   Zn5   S    
C126  H40   S    
C113  C128  S    
O48   Zn11  S    
H71   N7    S    
C98   C133  S    
C65   C76   S    
O24   Zn13  S    
C48   C79   S    
C57   H55   S    
C3    C7    A    
C112  C117  A    
C123  C132  S    
C109  H56   S    
C33   C104  S    
H69   N6    S    
C35   C59   S    
C121  H76   S    
O28   Zn2   S    
O23   Zn7   S    
O29   Zn3   S    
C10   H16   S    
C73   H44   S    
O30   Zn4   S    
C93   H32   S    
C48   C88   T    
C111  C116  A    
O1    Zn5   S    
C132  H7    S    
C82   C93   S    
C66   H51   S    
C130  H9    S    
O27   Zn16  S    
C121  N1    S    
O23   Zn10  S    
O15   Zn6   S    
C40   H12   S    
O1    Zn12  S    
C122  H2    S    
C115  H35   S    
C17   O27   A    
C108  C112  A    
C50   C80   S    
C110  H67   S    
C21   O31   A    
C104  C115  S    
C50   C89   T    
C79   O20   A    
C115  H30   S    
C17   C99   S    
C128  O50   A    
O19   Zn9   S    
C129  O51   A    
O46   Zn9   S    
C64   C68   S    
C55   C66   S    
C67   H52   S    
C129  O26   A    
C16   H21   S    
C124  H4    S    
C70   C92   S    
C97   C132  S    
C6    C10   A    
H60   N2    S    
C2    C58   S    
C38   C42   A    
C27   C36   S    
C81   N5    S    
C7    C25   S    
C32   C33   A    
O14   Zn5   S    
C114  C127  S    
C22   O41   A    
C105  C109  A    
C65   C69   S    
O25   Zn14  S    
O44   Zn1   S    
O12   Zn9   S    
C53   C92   T    
C32   C115  S    
C1    C52   S    
C111  H75   S    
O52   Zn5   S    
C56   C61   S    
O18   Zn1   S    
C13   C55   S    
C39   H1    S    
C14   H19   S    
C4    C8    A    
C75   H47   S    
O8    Zn15  S    
C57   C62   S    
C54   C60   S    
C7    C11   A    
C106  I3    S    
C44   C126  S    
C100  C105  A    
C96   C118  A    
C67   C72   S    
C30   C93   S    
C20   C102  S    
C82   H27   S    
C15   C16   S    
C27   O37   A    
C117  C121  S    
C6    C136  A    
C21   O40   A    
C41   H23   S    
C83   N6    S    
C26   C34   S    
C5    C22   S    
C18   O28   A    
C8    C9    A    
C71   O8    A    
C103  C108  A    
C18   O2    A    
C103  I1    S    
C73   C84   S    
C22   O32   A    
C64   H49   S    
C109  C113  A    
O4    Zn8   S    
C28   O47   A    
O23   Zn3   S    
C18   C100  S    
O6    Zn13  S    
O33   Zn14  S    
C107  I4    S    
C77   O18   A    
C36   C40   A    
O13   Zn4   S    
C133  H13   S    
C71   O17   A    
C57   C126  S    
C75   C81   S    
C14   C134  S    
C93   H28   S    
C44   C62   S    
C66   C73   S    
C45   C63   S    
O26   Zn15  S    
C113  C118  A    
C125  O45   A    
C69   C83   S    
O35   Zn15  S    
C24   H43   S    
C77   O9    A    
C15   H20   S    
C131  H6    S    
C12   C14   S    
C68   C126  S    
C17   O52   A    
C3    C15   S    
C57   C64   S    
C106  C110  A    
C58   C63   S    
C122  N2    S    
C29   O48   A    
C1    O14   A    
C56   C67   S    
C23   O42   A    
C59   C86   S    
C4    C21   S    
C19   C101  S    
C6    C23   S    
C29   O39   A    
H73   N8    S    
C54   C94   T    
O37   Zn6   S    
C1    O5    A    
C27   O46   A    
C23   O33   A    
C80   O21   A    
O17   Zn8   S    
C76   H48   S    
C97   C101  A    
C120  C124  S    
C104  H33   S    
C46   C86   T    
