data_mof_unit_58064.cif
_audit_creation_date              2012-12-10T17:00:45-0500
_audit_creation_method            fapswitch 2.2
_symmetry_space_group_name_H-M    P1
_symmetry_Int_Tables_number       1
_space_group_crystal_system       triclinic
_cell_length_a                    10.867272
_cell_length_b                    10.594577
_cell_length_c                    10.142516
_cell_angle_alpha                 91.000817
_cell_angle_beta                  105.93495
_cell_angle_gamma                 90.626158
_cell_volume                      1122.55656387

loop_
_atom_site_label
_atom_site_type_symbol
_atom_type_description
_atom_site_fract_x
_atom_site_fract_y
_atom_site_fract_z
_atom_type_partial_charge
C1    C     C_R   0.518505 0.263866 0.504224 0.883222
C2    C     C_2   0.117859 0.486522 0.404963 -0.078255
C3    C     C_2   0.065892 0.477134 0.511509 -0.167956
C4    C     C_2   0.879148 0.493499 0.595150 -0.395653
C5    C     C_2   0.931731 0.455368 0.497327 -0.170630
C6    C     C_2   0.575581 0.926562 0.425158 -0.211788
C7    C     C_3   0.411296 0.406698 0.061164 -0.261701
C8    C     C_3   0.296287 0.363942 0.108553 -0.308590
C9    C     C_3   0.213242 0.267849 0.007119 -1.019064
C10   C     C_3   0.041246 0.478243 0.254518 -0.421949
C11   C     C_3   0.046111 0.602797 0.180998 -0.325904
C12   C     C_2   0.506532 0.872427 0.500204 -0.397571
C13   C     C_3   0.978976 0.588033 0.027979 -0.918123
C14   C     C_3   0.586813 0.109117 0.273352 -0.386316
C15   C     C_3   0.718622 0.170554 0.288964 -0.301986
C16   C     C_3   0.727709 0.233727 0.157826 -0.925727
C17   C     C_3   0.642809 0.098894 0.667486 -0.438298
C18   C     C_3   0.754922 0.189452 0.735249 -0.317590
C19   C     C_3   0.848935 0.129765 0.857502 -0.922581
C20   C     C_3   0.661308 0.750622 0.883863 0.171588
C21   C     C_3   0.733876 0.819528 0.016328 -0.991114
C22   C     C_2   0.577561 0.062868 0.411482 0.104795
C23   C     C_2   0.574830 0.138183 0.520781 -0.088659
C24   C     C_2   0.530472 0.599235 0.935768 0.489013
C25   C     C_2   0.547373 0.590693 0.088905 -0.177688
C26   C     C_R   0.257967 0.498474 0.440759 0.883802
C27   C     C_R   0.499597 0.738021 0.500444 0.936546
C28   C     C_R   0.741010 0.497889 0.559268 0.901832
H1    H     H_    0.872456 0.412762 0.403827 0.183637
H2    H     H_    0.133959 0.234394 0.047703 0.259834
H3    H     H_    0.323365 0.316673 0.207236 0.272164
H4    H     H_    0.237073 0.447508 0.111266 0.247840
H5    H     H_    0.357827 0.447471 0.962926 0.181970
H6    H     H_    0.464460 0.321391 0.046044 0.168785
H7    H     H_    0.029888 0.519432 0.978676 0.264244
H8    H     H_    0.879002 0.553779 0.012434 0.260752
H9    H     H_    0.977752 0.680435 0.977724 0.254205
H10   H     H_    0.997543 0.677008 0.226169 0.225107
H11   H     H_    0.146337 0.634753 0.193545 0.235570
H12   H     H_    0.535574 0.416905 0.894589 0.116319
H13   H     H_    0.079050 0.399782 0.204501 0.201030
H14   H     H_    0.939282 0.454192 0.238545 0.209755
H15   H     H_    0.676442 0.176826 0.065847 0.262286
H16   H     H_    0.686295 0.329217 0.151671 0.265775
H17   H     H_    0.829704 0.244224 0.158745 0.247030
H18   H     H_    0.739607 0.241743 0.373876 0.222479
H19   H     H_    0.792611 0.096513 0.315919 0.211318
H20   H     H_    0.576831 0.028007 0.199814 0.180859
H21   H     H_    0.506985 0.170805 0.223744 0.227207
H22   H     H_    0.797854 0.091518 0.929167 0.270777
H23   H     H_    0.593237 0.669863 0.153207 0.169751
H24   H     H_    0.900675 0.051994 0.822173 0.265573
H25   H     H_    0.919506 0.202344 0.912702 0.258182
H26   H     H_    0.807711 0.216043 0.659890 0.216968
H27   H     H_    0.718089 0.276612 0.772124 0.249241
H28   H     H_    0.573462 0.096401 0.730166 0.205569
H29   H     H_    0.683791 0.003375 0.669081 0.228978
H30   H     H_    0.655916 0.817068 0.799264 0.167290
H31   H     H_    0.716477 0.668476 0.862535 0.139355
H32   H     H_    0.765376 0.752159 0.100861 0.247714
H33   H     H_    0.821029 0.865953 0.001488 0.237124
H34   H     H_    0.124255 0.488403 0.616975 0.180432
H35   H     H_    0.672883 0.892727 0.044780 0.274227
H36   H     H_    0.936195 0.530250 0.694037 0.157082
H37   H     H_    0.624019 0.869635 0.364903 0.172501
H38   H     H_    0.456114 0.926349 0.560514 0.162935
H39   H     H_    0.171562 0.311297 0.905991 0.275489
H40   H     H_    0.270620 0.184920 0.993547 0.278936
N1    N     N_2   0.501330 0.501330 0.852460 -0.251152
N2    N     N_2   0.501370 0.501360 0.148130 -0.097771
O1    O     O_R   0.499980 0.319060 0.613030 -0.616281
O2    O     O_R   0.500020 0.319100 0.386910 -0.633664
O3    O     O_R   0.317800 0.500000 0.570840 -0.604135
O4    O     O_R   0.317840 0.500040 0.344720 -0.631654
O5    O     O_R   0.499980 0.680900 0.613090 -0.575671
O6    O     O_R   0.500020 0.680940 0.386970 -0.602866
O7    O     O_R   0.682160 0.499960 0.655280 -0.645935
O8    O     O_R   0.682200 0.500000 0.429160 -0.601493
O9    O     O_3   0.534200 0.718566 0.883454 -0.588276
Zn1   Zn    Zn3+2 0.499970 0.499970 0.650990 0.930468
Zn2   Zn    Zn3+2 0.500030 0.500030 0.349010 0.918484

loop_
_geom_bond_atom_site_label_1
_geom_bond_atom_site_label_2
_ccdc_geom_bond_type
C10   H14   S    
O8    Zn2   S    
C15   H19   S    
C7    N2    S    
C9    H39   S    
C7    C8    S    
C1    O1    A    
C13   H7    S    
C6    C12   D    
O7    Zn1   S    
C14   H21   S    
C15   C16   S    
C6    C22   S    
C26   O3    A    
C18   C19   S    
N2    Zn2   S    
C19   H24   S    
C6    H37   S    
C8    C9    S    
C28   O8    A    
O5    Zn1   S    
C16   H16   S    
C21   H33   S    
O2    Zn2   S    
C19   H25   S    
C10   H13   S    
C7    H5    S    
C27   O5    A    
O1    Zn1   S    
C4    C28   S    
C24   N1    D    
C5    H1    S    
C1    O2    A    
H12   N1    S    
C12   C27   S    
C8    H4    S    
C24   C25   S    
C21   H32   S    
C14   H20   S    
C12   H38   S    
O6    Zn2   S    
C11   H10   S    
C25   H23   S    
C24   O9    S    
C16   H15   S    
C17   C18   S    
C2    C26   S    
C17   C23   S    
C20   H31   S    
C11   H11   S    
C28   O7    A    
C17   H28   S    
C9    H2    S    
C13   H8    S    
C18   H27   S    
C1    C23   S    
C7    H6    S    
O4    Zn2   S    
C20   H30   S    
C27   O6    A    
C2    C10   S    
C3    H34   S    
C20   O9    S    
C14   C15   S    
C8    H3    S    
C13   H9    S    
C4    C5    D    
C3    C5    S    
C16   H17   S    
C4    H36   S    
C14   C22   S    
C2    C3    D    
C9    H40   S    
C11   C13   S    
C19   H22   S    
C26   O4    A    
O3    Zn1   S    
C21   H35   S    
C10   C11   S    
C18   H26   S    
C20   C21   S    
C22   C23   D    
N1    Zn1   S    
C25   N2    D    
C15   H18   S    
C17   H29   S    
