data_mof_unit_61276.cif
_audit_creation_date              2012-12-10T19:39:30-0500
_audit_creation_method            fapswitch 2.2
_symmetry_space_group_name_H-M    P1
_symmetry_Int_Tables_number       1
_space_group_crystal_system       triclinic
_cell_length_a                    15.902048
_cell_length_b                    17.095596
_cell_length_c                    17.319568
_cell_angle_alpha                 87.734837
_cell_angle_beta                  95.78421
_cell_angle_gamma                 85.173912
_cell_volume                      4662.35504345

loop_
_atom_site_label
_atom_site_type_symbol
_atom_type_description
_atom_site_fract_x
_atom_site_fract_y
_atom_site_fract_z
_atom_type_partial_charge
C1    C     C_R   0.509333 0.349023 0.499012 0.835558
C2    C     C_R   0.477270 0.901261 0.490678 0.347561
C3    C     C_R   0.585137 0.138312 0.549880 -0.168696
C4    C     C_R   0.414762 0.861703 0.450286 -0.168723
C5    C     C_R   0.580623 0.219921 0.545246 -0.235963
C6    C     C_R   0.419283 0.780093 0.454908 -0.235961
C7    C     C_R   0.249746 0.456002 0.534966 0.358897
C8    C     C_R   0.750253 0.543992 0.465029 0.358933
C9    C     C_R   0.160927 0.454670 0.530306 0.034106
C10   C     C_R   0.839072 0.545336 0.469699 0.034132
C11   C     C_R   0.108317 0.511741 0.482265 0.306481
C12   C     C_R   0.490667 0.650978 0.500995 0.835549
C13   C     C_R   0.891682 0.488275 0.517748 0.306470
C14   C     C_R   0.148162 0.565787 0.438171 -0.306833
C15   C     C_R   0.851838 0.434236 0.561849 -0.306837
C16   C     C_R   0.510772 0.498929 0.650796 0.828931
C17   C     C_R   0.489229 0.501076 0.349204 0.828992
C18   C     C_R   0.237220 0.563951 0.442986 0.041262
C19   C     C_R   0.762781 0.436065 0.557029 0.041276
C20   C     C_R   0.515083 0.493090 0.736274 -0.090370
C21   C     C_R   0.484927 0.506914 0.263725 -0.090341
C22   C     C_R   0.438417 0.488574 0.769790 -0.179804
C23   C     C_R   0.513151 0.263353 0.499960 -0.072092
C24   C     C_R   0.561601 0.511343 0.230214 -0.179803
C25   C     C_R   0.438138 0.478188 0.849470 -0.106967
C26   C     C_R   0.561897 0.521689 0.150534 -0.106986
C27   C     C_R   0.514313 0.473613 0.897356 0.111174
C28   C     C_R   0.485729 0.526328 0.102643 0.111147
C29   C     C_R   0.590989 0.478614 0.865794 -0.133631
C30   C     C_R   0.409046 0.521420 0.134200 -0.133593
C31   C     C_R   0.592500 0.488844 0.785694 0.163318
C32   C     C_R   0.407516 0.511217 0.214301 0.163336
C33   C     C_2   0.513375 0.468328 0.981183 0.062778
C34   C     C_R   0.486853 0.736651 0.500063 -0.072185
C35   C     C_2   0.486671 0.531604 0.018817 0.062811
C36   C     C_R   0.450673 0.223908 0.457407 0.129274
C37   C     C_R   0.549422 0.776094 0.542504 0.129397
C38   C     C_R   0.455698 0.142146 0.462470 -0.162965
C39   C     C_R   0.544394 0.857856 0.537445 -0.162998
C40   C     C_R   0.522718 0.098748 0.509371 0.347554
Cu1   Cu    Cu3+1 0.585060 0.496170 0.503810 1.009588
Cu2   Cu    Cu3+1 0.414940 0.503830 0.496190 1.009591
H1    H     H_    0.377900 0.492972 0.734560 0.188128
H2    H     H_    0.378413 0.475080 0.874051 0.162858
H3    H     H_    0.592821 0.887080 0.570654 0.178949
H4    H     H_    0.407352 0.112916 0.429161 0.178947
H5    H     H_    0.637174 0.105633 0.585725 0.161336
H6    H     H_    0.362644 0.894387 0.414547 0.161331
H7    H     H_    0.629242 0.249245 0.578240 0.167144
H8    H     H_    0.370586 0.750777 0.422008 0.167192
H9    H     H_    0.913426 0.636745 0.465534 0.258905
H10   H     H_    0.905157 0.583997 0.382790 0.255475
H11   H     H_    0.086564 0.363270 0.534501 0.258898
H12   H     H_    0.622113 0.506885 0.265448 0.188115
H13   H     H_    0.094850 0.416044 0.617229 0.255484
H14   H     H_    0.110026 0.609409 0.399617 0.172454
H15   H     H_    0.889974 0.390626 0.600415 0.172452
H16   H     H_    0.266312 0.605949 0.408212 0.156557
H17   H     H_    0.733689 0.394075 0.591814 0.156545
H18   H     H_    0.649624 0.476187 0.903915 0.171361
H19   H     H_    0.350413 0.523893 0.096078 0.171379
H20   H     H_    0.621630 0.524707 0.125961 0.162862
I1    I     I_    0.681022 0.628989 0.382902 -0.284338
I2    I     I_    0.318974 0.370991 0.617076 -0.284415
I3    I     I_    0.284744 0.500305 0.250154 -0.296333
I4    I     I_    0.715255 0.499878 0.749835 -0.296279
I5    I     I_    0.446404 0.643368 0.962290 -0.304600
I6    I     I_    0.553614 0.356558 0.037699 -0.304618
I7    I     I_    0.650137 0.718510 0.619891 -0.253696
I8    I     I_    0.350116 0.281502 0.379866 -0.253743
N1    N     N_2   0.530194 0.015587 0.517117 -0.239656
N2    N     N_2   0.469788 0.984423 0.482939 -0.239634
N3    N     N_R   0.287170 0.509590 0.490460 -0.210984
N4    N     N_R   0.712830 0.490410 0.509540 -0.210992
N5    N     N_2   0.017148 0.514693 0.472502 -0.236293
N6    N     N_2   0.982850 0.485327 0.527511 -0.236292
N7    N     N_3   0.873023 0.607336 0.427566 -0.548468
N8    N     N_3   0.126973 0.392687 0.572456 -0.548498
O1    O     O_R   0.579730 0.382480 0.503570 -0.599336
O2    O     O_R   0.420270 0.617520 0.496430 -0.599357
O3    O     O_R   0.436070 0.388960 0.497130 -0.537468
O4    O     O_R   0.563930 0.611040 0.502870 -0.537463
O5    O     O_R   0.580160 0.496380 0.617190 -0.552562
O6    O     O_R   0.419840 0.503620 0.382810 -0.552522
O7    O     O_R   0.436500 0.502850 0.610750 -0.581090
O8    O     O_R   0.563500 0.497150 0.389250 -0.581102

loop_
_geom_bond_atom_site_label_1
_geom_bond_atom_site_label_2
_ccdc_geom_bond_type
C31   I4    S    
C14   H14   S    
Cu2   O2    S    
C40   N1    S    
C37   I7    S    
C27   C29   A    
C34   C37   A    
Cu1   Cu2   S    
C14   C18   A    
C7    N3    A    
C27   C33   S    
C15   C19   A    
Cu1   O8    S    
C24   C26   A    
C11   C14   A    
C1    O3    A    
Cu1   O5    S    
Cu1   N4    S    
C2    C39   A    
C18   H16   S    
C28   C35   S    
C28   C30   A    
C22   C25   A    
C29   H18   S    
C30   C32   A    
C39   H3    S    
C15   H15   S    
C5    H7    S    
Cu2   O3    S    
C2    N2    S    
C25   H2    S    
C10   N7    S    
C36   I8    S    
C21   C32   A    
C17   O8    A    
Cu2   O6    S    
C4    C6    A    
H13   N8    S    
C19   H17   S    
C16   O5    A    
C17   C21   S    
C6    C34   A    
C2    C4    A    
N5    N6    D    
H9    N7    S    
C22   H1    S    
C5    C23   A    
C13   N6    S    
C35   I5    S    
C16   C20   S    
C8    N4    A    
C12   O4    A    
Cu2   O7    S    
C6    H8    S    
C9    C11   A    
C8    C10   A    
C20   C22   A    
C3    C40   A    
C1    C23   S    
C18   N3    A    
C13   C15   A    
C16   O7    A    
C1    O1    A    
C21   C24   A    
C12   C34   S    
H10   N7    S    
C4    H6    S    
C7    C9    A    
Cu2   N3    S    
C19   N4    A    
C3    C5    A    
C10   C13   A    
Cu1   O1    S    
C25   C27   A    
C26   C28   A    
C17   O6    A    
C36   C38   A    
H11   N8    S    
C26   H20   S    
N1    N2    D    
C37   C39   A    
C11   N5    S    
C38   C40   A    
Cu1   O4    S    
C12   O2    A    
C3    H5    S    
C33   C35   D    
C9    N8    S    
C7    I2    S    
C38   H4    S    
C8    I1    S    
C29   C31   A    
C23   C36   A    
C30   H19   S    
C24   H12   S    
C33   I6    S    
C32   I3    S    
C20   C31   A    
