data_mof_unit_60536.cif
_audit_creation_date              2012-12-10T18:40:29-0500
_audit_creation_method            fapswitch 2.2
_symmetry_space_group_name_H-M    P1
_symmetry_Int_Tables_number       1
_space_group_crystal_system       triclinic
_cell_length_a                    10.778229
_cell_length_b                    11.575291
_cell_length_c                    16.772739
_cell_angle_alpha                 90.004815
_cell_angle_beta                  85.089431
_cell_angle_gamma                 90.00869
_cell_volume                      2084.90517236

loop_
_atom_site_label
_atom_site_type_symbol
_atom_type_description
_atom_site_fract_x
_atom_site_fract_y
_atom_site_fract_z
_atom_type_partial_charge
C1    C     C_R   0.500009 0.718840 0.499975 0.911395
C2    C     C_R   0.499995 0.281159 0.499981 0.917820
C3    C     C_1   0.500021 0.838954 0.499918 -0.179063
C4    C     C_1   0.499986 0.161034 0.499943 -0.181697
C5    C     C_1   0.500012 0.940837 0.499896 0.014387
C6    C     C_1   0.499995 0.059148 0.499910 0.014496
C7    C     C_1   0.930240 0.500005 0.500005 0.044566
C8    C     C_1   0.069760 0.500005 0.499996 0.043600
C9    C     C_R   0.482747 0.500539 0.653850 0.870344
C10   C     C_R   0.517099 0.505807 0.346465 0.864328
C11   C     C_R   0.471398 0.514057 0.740245 -0.043573
C12   C     C_R   0.527349 0.544987 0.263981 -0.038473
C13   C     C_R   0.576927 0.501708 0.782660 -0.187862
C14   C     C_R   0.431249 0.613058 0.237605 -0.165461
C15   C     C_R   0.569712 0.526879 0.863593 -0.118292
C16   C     C_R   0.441211 0.657084 0.160661 -0.105723
C17   C     C_R   0.457443 0.566715 0.902472 0.126378
C18   C     C_R   0.545675 0.630465 0.108704 0.127130
C19   C     C_R   0.350551 0.573987 0.861137 -0.111794
C20   C     C_R   0.645502 0.569144 0.136246 -0.127392
C21   C     C_R   0.357437 0.548073 0.780068 -0.206301
C22   C     C_R   0.636665 0.526816 0.214162 -0.203195
C23   C     C_2   0.448071 0.590198 0.988000 0.410666
C24   C     C_2   0.540122 0.643583 0.022883 0.405235
H1    H     H_    0.665166 0.473660 0.753200 0.163826
H2    H     H_    0.348304 0.632363 0.276444 0.160261
H3    H     H_    0.713070 0.477340 0.234691 0.161727
H4    H     H_    0.274738 0.557765 0.748256 0.166705
H5    H     H_    0.262580 0.601464 0.891304 0.174938
H6    H     H_    0.726436 0.547931 0.096102 0.169356
H7    H     H_    0.364309 0.705753 0.139964 0.163718
H8    H     H_    0.651494 0.514080 0.895811 0.174986
N1    N     N_1   0.819370 0.500000 0.500010 -0.078047
N2    N     N_1   0.180630 0.500000 0.499990 -0.078958
O1    O     O_R   0.397470 0.665550 0.500010 -0.611073
O2    O     O_R   0.602530 0.334450 0.499990 -0.605855
O3    O     O_R   0.602530 0.665550 0.499990 -0.602719
O4    O     O_R   0.397470 0.334450 0.500010 -0.601921
O5    O     O_R   0.385350 0.500000 0.615800 -0.615850
O6    O     O_R   0.614650 0.500000 0.384200 -0.611510
O7    O     O_R   0.590410 0.500000 0.615800 -0.613340
O8    O     O_R   0.409590 0.500000 0.384200 -0.612143
Zn1   Zn    Zn3+2 0.363080 0.500000 0.500000 0.986652
Zn2   Zn    Zn3+2 0.636920 0.500000 0.500000 0.990548
F1    F     F_    0.639653 0.690292 0.978784 -0.682221
F2    F     F_    0.348817 0.543935 0.032814 -0.680597

loop_
_geom_bond_atom_site_label_1
_geom_bond_atom_site_label_2
_ccdc_geom_bond_type
C2    C4    S    
C23   C24   D    
C10   O8    A    
O1    Zn1   S    
C2    O4    A    
C9    O7    A    
C1    O3    A    
C9    C11   S    
C16   C18   A    
O3    Zn2   S    
O4    Zn1   S    
C23   F2    S    
C20   H6    S    
C14   H2    S    
C16   H7    S    
C11   C13   A    
C13   H1    S    
C17   C23   S    
C10   C12   S    
C18   C24   S    
C24   F1    S    
C4    C6    T    
C19   C21   A    
C21   H4    S    
C12   C14   A    
C18   C20   A    
C22   H3    S    
C13   C15   A    
O5    Zn1   S    
C5    C6    S    
O7    Zn2   S    
C14   C16   A    
O2    Zn2   S    
C7    C8    S    
O8    Zn1   S    
C7    N1    T    
C19   H5    S    
C12   C22   A    
O6    Zn2   S    
C1    O1    A    
C10   O6    A    
C2    O2    A    
C1    C3    S    
C15   C17   A    
C8    N2    T    
C17   C19   A    
N1    Zn2   S    
C11   C21   A    
C9    O5    A    
N2    Zn1   S    
C20   C22   A    
C3    C5    T    
C15   H8    S    
