data_mof_unit_20338.cif
_audit_creation_date              2013-03-05T15:51:23-0500
_audit_creation_method            fapswitch 2.2
_symmetry_space_group_name_H-M    P1
_symmetry_Int_Tables_number       1
_space_group_crystal_system       triclinic
_cell_length_a                    10.732072
_cell_length_b                    10.857424
_cell_length_c                    9.591254
_cell_angle_alpha                 88.260512
_cell_angle_beta                  89.977092
_cell_angle_gamma                 93.265572
_cell_volume                      1115.26694677

loop_
_atom_site_label
_atom_site_type_symbol
_atom_site_description
_atom_site_fract_x
_atom_site_fract_y
_atom_site_fract_z
_atom_type_partial_charge
O1    O     O_R   0.499990 0.319640 0.618810 -0.556966
O2    O     O_R   0.500000 0.319660 0.381240 -0.585337
C1    C     C_R   0.492285 0.262508 0.502241 0.814033
O3    O     O_R   0.317680 0.499970 0.618790 -0.608687
O4    O     O_R   0.317700 0.499990 0.381210 -0.569952
C2    C     C_R   0.259929 0.498532 0.500169 0.748241
Cu1   Cu    Cu3+1 0.499990 0.499990 0.640660 0.958380
Cu2   Cu    Cu3+1 0.500010 0.500010 0.359340 0.970746
O5    O     O_R   0.500000 0.680340 0.618760 -0.618168
O6    O     O_R   0.500010 0.680360 0.381190 -0.554542
O7    O     O_R   0.682300 0.500010 0.618790 -0.572056
O8    O     O_R   0.682320 0.500030 0.381210 -0.608801
C3    C     C_R   0.491323 0.737150 0.497584 0.780360
C4    C     C_R   0.739665 0.496956 0.500391 0.780582
C5    C     C_3   0.070789 0.461357 0.648860 -0.447884
H1    H     H_    0.108159 0.528334 0.726349 0.153376
H2    H     H_    0.103694 0.369585 0.682206 0.202343
C6    C     C_3   0.927280 0.460427 0.650647 0.225683
H3    H     H_    0.901324 0.533363 0.723003 0.103910
H4    H     H_    0.110601 0.692816 0.544828 0.109632
H5    H     H_    0.900715 0.694709 0.536802 0.146052
C7    C     C_3   0.077282 0.629941 0.461160 -0.144340
C8    C     C_3   0.066048 0.400496 0.399157 -0.356610
C9    C     C_3   0.121732 0.498293 0.500451 0.018704
H6    H     H_    0.106062 0.414448 0.292639 0.211137
H7    H     H_    0.090122 0.306589 0.436024 0.178439
C10   C     C_3   0.877476 0.495830 0.501711 0.012910
C11   C     C_3   0.932599 0.627236 0.461141 -0.510942
C12   C     C_3   0.923198 0.406021 0.392061 -0.304796
H8    H     H_    0.877516 0.312208 0.407179 0.202644
H9    H     H_    0.897094 0.438644 0.285383 0.206992
H10   H     H_    0.896132 0.656583 0.357456 0.196488
H11   H     H_    0.590086 0.128103 0.317487 0.190642
C13   C     C_R   0.328122 0.111381 0.699559 -0.167900
H12   H     H_    0.320168 0.209772 0.702481 0.137043
C14   C     C_R   0.253316 0.038972 0.792340 -0.099484
H13   H     H_    0.194632 0.082358 0.866065 0.150344
C15   C     C_R   0.250680 0.911191 0.787387 -0.130711
H14   H     H_    0.189775 0.855293 0.857106 0.138795
C16   C     C_R   0.322638 0.854981 0.689416 -0.156551
H15   H     H_    0.309315 0.756008 0.683806 0.155727
C17   C     C_R   0.402925 0.926016 0.596707 0.115209
C18   C     C_R   0.405709 0.056755 0.602324 0.101877
C19   C     C_R   0.481198 0.128309 0.505357 -0.120981
C20   C     C_R   0.539881 0.072085 0.397266 -0.227015
C21   C     C_R   0.529518 0.945968 0.383778 -0.018934
C22   C     C_R   0.473204 0.870573 0.491896 -0.139369
H16   H     H_    0.346412 0.372005 0.133679 0.134261
C23   C     C_R   0.679915 0.649955 0.138717 -0.137121
H17   H     H_    0.678476 0.667317 0.247120 0.192825
C24   C     C_R   0.773610 0.716664 0.064345 -0.117137
H18   H     H_    0.844061 0.772097 0.118651 0.186576
C25   C     C_R   0.771607 0.719674 0.920619 -0.209611
H19   H     H_    0.840845 0.776841 0.862608 0.157900
C26   C     C_R   0.677713 0.653590 0.850835 -0.144989
H20   H     H_    0.678912 0.669759 0.741090 0.192507
C27   C     C_R   0.588106 0.574462 0.922609 0.232003
C28   C     C_R   0.588683 0.573499 0.072144 0.203569
N1    N     N_R   0.501200 0.501210 0.147910 -0.192647
C29   C     C_R   0.415583 0.429668 0.076441 -0.024775
H21   H     H_    0.346529 0.372038 0.875368 0.121730
C30   C     C_R   0.415752 0.429555 0.928501 -0.043677
N2    N     N_R   0.501250 0.501290 0.852040 -0.193103
C31   C     C_2   0.130172 0.683989 0.324404 0.888926
O9    O     O_2   0.203306 0.774575 0.325037 -0.579601
O10   O     O_R   0.094461 0.632023 0.197858 -0.778643
H22   H     H_    0.136231 0.676866 0.114512 0.329596
C32   C     C_2   0.566943 0.901540 0.247132 0.853316
O11   O     O_2   0.670901 0.930910 0.200795 -0.618905
O12   O     O_R   0.477877 0.839897 0.164080 -0.706808
H23   H     H_    0.509329 0.826996 0.066245 0.328296
N3    N     N_R   0.872681 0.341330 0.705446 0.135687
O13   O     O_R   0.805205 0.337682 0.818423 -0.335897
O14   O     O_R   0.899216 0.238023 0.650060 -0.384540

loop_
_geom_bond_atom_site_label_1
_geom_bond_atom_site_label_2
_geom_bond_distance
_ccdc_geom_bond_type
C5    C6    1.539691 S    
C26   H20   1.061807 S    
C10   C12   1.553704 S    
H11   C20   1.086187 S    
Cu1   Cu2   2.698205 S    
C25   H19   1.083108 S    
Cu1   O7    1.967680 S    
C30   N2    1.367381 A    
C8    C12   1.539109 S    
C29   C30   1.418961 A    
C14   H13   1.082689 S    
C6    H3    1.115636 S    
Cu2   N1    2.027556 S    
O4    C2    1.297566 A    
O7    C4    1.293733 A    
C5    H1    1.114382 S    
Cu1   O5    1.963015 S    
C13   H12   1.077721 S    
C8    H7    1.113350 S    
O5    C3    1.304996 A    
C32   O11   1.222463 D    
C23   C24   1.389097 A    
C8    C9    1.555400 S    
C27   N2    1.380931 A    
O12   H23   1.013507 S    
C4    C10   1.479801 S    
C16   C17   1.417744 A    
O10   H22   1.014028 S    
N1    C29   1.367127 A    
C7    C11   1.551355 S    
O3    Cu1   1.967848 S    
H16   C29   1.081795 S    
C25   C26   1.387643 A    
C6    N3    1.470991 S    
C1    C19   1.454533 S    
C13   C18   1.415652 A    
C24   H18   1.082915 S    
C11   H10   1.113079 S    
N3    O14   1.301479 A    
C3    C22   1.471943 S    
C28   N1    1.380744 A    
C20   C21   1.377507 A    
C23   C28   1.412639 A    
O1    C1    1.295366 A    
C31   O10   1.398457 S    
C18   C19   1.417291 A    
C21   C32   1.473674 S    
C12   H8    1.110375 S    
Cu2   O8    1.967848 S    
C2    C9    1.482998 S    
Cu1   N2    2.027923 S    
O3    C2    1.295890 A    
C5    C9    1.557444 S    
H5    C11   1.114007 S    
H4    C7    1.115144 S    
C26   C27   1.416414 A    
C7    C9    1.567725 S    
C17   C18   1.420765 A    
C19   C20   1.387726 A    
C5    H2    1.113854 S    
C21   C22   1.415023 A    
C16   H15   1.078934 S    
O1    Cu1   1.975634 S    
Cu2   O6    1.975634 S    
O2    Cu2   1.963015 S    
C6    C10   1.569929 S    
O8    C4    1.298895 A    
N3    O13   1.301402 A    
O6    C3    1.297460 A    
O4    Cu2   1.967680 S    
C31   O9    1.223037 D    
C14   C15   1.388313 A    
O2    C1    1.299662 A    
C12   H9    1.113715 S    
C15   C16   1.392742 A    
C27   C28   1.433964 A    
C15   H14   1.082836 S    
C13   C14   1.392677 A    
C17   C22   1.424664 A    
C8    H6    1.110832 S    
H21   C30   1.080916 S    
C7    C31   1.517150 S    
C32   O12   1.398654 S    
C23   H17   1.062547 S    
C10   C11   1.551421 S    
C24   C25   1.378117 A    
