data_mof_unit_11725.cif
_audit_creation_date              2012-12-10T17:22:52-0500
_audit_creation_method            fapswitch 2.2
_symmetry_space_group_name_H-M    P1
_symmetry_Int_Tables_number       1
_space_group_crystal_system       triclinic
_cell_length_a                    10.179323
_cell_length_b                    10.512826
_cell_length_c                    10.905845
_cell_angle_alpha                 89.667763
_cell_angle_beta                  97.213522
_cell_angle_gamma                 81.141951
_cell_volume                      1143.64908287

loop_
_atom_site_label
_atom_site_type_symbol
_atom_type_description
_atom_site_fract_x
_atom_site_fract_y
_atom_site_fract_z
_atom_type_partial_charge
C1    C     C_R   0.441916 0.509087 0.267307 0.881310
C2    C     C_3   0.496993 0.123326 0.496576 -0.037221
C3    C     C_3   0.626598 0.943122 0.513711 0.036506
C4    C     C_3   0.372977 0.056934 0.484038 0.055180
C5    C     C_2   0.406991 0.522150 0.134190 -0.202190
C6    C     C_2   0.592884 0.477939 0.865870 -0.210043
C7    C     C_2   0.505948 0.485143 0.065436 -0.202514
C8    C     C_2   0.493846 0.514921 0.934560 -0.195629
C9    C     C_2   0.056759 0.527290 0.476103 0.339885
C10   C     C_2   0.943345 0.472483 0.524106 0.285430
C11   C     C_1   0.766931 0.879924 0.530984 0.270373
C12   C     C_R   0.558067 0.490925 0.732710 0.885729
C13   C     C_1   0.232508 0.119563 0.464482 0.216919
C14   C     C_1   0.724577 0.414380 0.918706 0.309549
C15   C     C_1   0.275272 0.585827 0.081547 0.328833
C16   C     C_R   0.498689 0.258024 0.497509 0.860000
C17   C     C_R   0.501073 0.742034 0.501625 0.856260
C18   C     C_3   0.562056 0.033035 0.403755 -0.201739
C19   C     C_3   0.437447 0.967106 0.594099 -0.211672
C20   C     C_3   0.436363 0.964943 0.391210 -0.203261
C21   C     C_3   0.563317 0.035021 0.606672 -0.220586
C22   C     C_3   0.502563 0.876759 0.501360 -0.034350
H1    H     H_    0.384201 0.932286 0.304207 0.162544
H2    H     H_    0.875961 0.677120 0.187563 0.388385
H3    H     H_    0.615573 0.067561 0.693683 0.163602
H4    H     H_    0.613016 0.063616 0.326865 0.162489
H5    H     H_    0.386402 0.936635 0.670976 0.161087
H6    H     H_    0.398122 0.566317 0.891771 0.197002
H7    H     H_    0.601645 0.433670 0.108205 0.192150
H8    H     H_    0.850123 0.452730 0.356097 0.218925
H9    H     H_    0.149920 0.547825 0.643880 0.219421
H10   H     H_    0.137989 0.273460 0.681176 0.356790
N1    N     N_2   0.157310 0.552180 0.551120 -0.219536
N2    N     N_2   0.842690 0.447820 0.448880 -0.202894
N3    N     N_1   0.877515 0.830128 0.544659 -0.141989
N4    N     N_1   0.121742 0.168715 0.448442 -0.183827
N5    N     N_1   0.829304 0.363475 0.961870 -0.082428
N6    N     N_1   0.170519 0.636857 0.038587 -0.102926
O1    O     O_R   0.568940 0.489500 0.307530 -0.630896
O2    O     O_2   0.872667 0.311229 0.687454 -0.281187
O3    O     O_3   0.117757 0.350174 0.731737 -0.558611
O4    O     O_2   0.127644 0.690046 0.314675 -0.272163
O5    O     O_2   0.077272 0.480199 0.238532 -0.319360
O6    O     O_3   0.879933 0.658118 0.277141 -0.589018
O7    O     O_R   0.431060 0.510500 0.692470 -0.629315
O8    O     O_R   0.348880 0.522990 0.340350 -0.530891
O9    O     O_R   0.651120 0.477010 0.659650 -0.529812
O10   O     O_R   0.610000 0.297210 0.483560 -0.593636
O11   O     O_R   0.390000 0.702790 0.516440 -0.592369
O12   O     O_R   0.389940 0.330700 0.516390 -0.623016
O13   O     O_R   0.610060 0.669300 0.483610 -0.605428
O14   O     O_2   0.914686 0.524474 0.759248 -0.284537
S1    S     S_3+6 0.958617 0.414307 0.679059 0.029506
S2    S     S_3+6 0.039252 0.588966 0.322385 0.020961
Zn1   Zn    Zn3+2 0.646930 0.477640 0.478080 1.052451
Zn2   Zn    Zn3+2 0.353070 0.522360 0.521920 1.041758

loop_
_geom_bond_atom_site_label_1
_geom_bond_atom_site_label_2
_ccdc_geom_bond_type
O10   Zn1   S    
C2    C4    S    
H10   O3    S    
H9    N1    S    
C15   N6    T    
C7    H7    S    
C6    C14   S    
O11   Zn2   S    
C2    C16   S    
C9    C10   S    
O5    S2    D    
C18   C20   S    
C17   C22   S    
C18   H4    S    
C20   H1    S    
C5    C15   S    
O3    S1    S    
C16   O10   A    
N1    Zn2   S    
C11   N3    T    
N2    Zn1   S    
C10   N2    D    
O4    S2    D    
C14   N5    T    
C9    N1    D    
C17   O13   A    
C2    C21   S    
C12   O9    A    
C1    C5    S    
C6    C8    D    
C19   H5    S    
C19   C21   S    
H2    O6    S    
C20   C22   S    
O13   Zn1   S    
C6    C12   S    
C8    H6    S    
C3    C18   S    
O12   Zn2   S    
C1    O8    A    
C3    C21   S    
C2    C18   S    
C1    O1    A    
C17   O11   A    
C4    C20   S    
O6    S2    S    
C7    C8    S    
C19   C22   S    
C3    C11   S    
O14   S1    D    
C13   N4    T    
O9    Zn1   S    
O2    S1    D    
O8    Zn2   S    
C4    C13   S    
C5    C7    D    
C10   S1    S    
H8    N2    S    
C3    C22   S    
C21   H3    S    
C9    S2    S    
C4    C19   S    
O1    Zn1   S    
O7    Zn2   S    
C16   O12   A    
C12   O7    A    
