data_mof_unit_11953.cif
_audit_creation_date              2012-12-10T18:34:28-0500
_audit_creation_method            fapswitch 2.2
_symmetry_space_group_name_H-M    P1
_symmetry_Int_Tables_number       1
_space_group_crystal_system       triclinic
_cell_length_a                    14.994586
_cell_length_b                    15.465864
_cell_length_c                    15.735914
_cell_angle_alpha                 90.188585
_cell_angle_beta                  105.508428
_cell_angle_gamma                 81.626741
_cell_volume                      3476.44522109

loop_
_atom_site_label
_atom_site_type_symbol
_atom_type_description
_atom_site_fract_x
_atom_site_fract_y
_atom_site_fract_z
_atom_type_partial_charge
C1    C     C_R   0.441022 0.662405 0.483796 0.905676
C2    C     C_R   0.558863 0.337480 0.510953 0.937098
C3    C     C_R   0.286317 0.872403 0.378105 0.600897
C4    C     C_R   0.719478 0.119991 0.536399 0.591488
C5    C     C_R   0.312588 0.783931 0.406176 0.339808
C6    C     C_R   0.691114 0.210304 0.538598 0.337992
C7    C     C_R   0.470115 0.812333 0.472955 -0.282308
C8    C     C_R   0.530793 0.189072 0.470116 -0.275157
C9    C     C_R   0.448193 0.897370 0.437027 -0.014142
C10   C     C_R   0.557875 0.099413 0.464927 -0.022217
C11   C     C_R   0.353763 0.929568 0.393201 -0.207594
C12   C     C_R   0.653742 0.064299 0.500190 -0.194769
C13   C     C_R   0.517994 0.952198 0.448939 0.046556
C14   C     C_R   0.490422 0.043057 0.432764 0.033868
C15   C     C_R   0.396139 0.074091 0.387036 -0.304899
C16   C     C_R   0.614516 0.918765 0.476708 -0.324306
C17   C     C_R   0.329354 0.018002 0.366003 0.722610
C18   C     C_R   0.681395 0.973852 0.501107 0.713083
C19   C     C_R   0.847791 0.627327 0.641318 0.482588
C20   C     C_R   0.153896 0.366213 0.366085 0.470876
C21   C     C_R   0.758206 0.603615 0.619494 0.481904
C22   C     C_R   0.245224 0.385712 0.390076 0.463332
C23   C     C_R   0.501831 0.500242 0.662211 0.884709
C24   C     C_R   0.498161 0.499880 0.337821 0.849579
C25   C     C_R   0.788873 0.524498 0.498219 -0.149343
C26   C     C_R   0.204712 0.493576 0.486677 -0.126044
C27   C     C_R   0.881427 0.543986 0.518465 -0.107601
C28   C     C_R   0.110081 0.479715 0.462019 -0.107557
C29   C     C_R   0.909926 0.598375 0.590699 -0.149618
C30   C     C_R   0.084693 0.415655 0.398648 -0.149660
C31   C     C_R   0.947536 0.506960 0.473034 0.085239
C32   C     C_R   0.041332 0.524825 0.500348 0.081393
C33   C     C_R   0.063943 0.585830 0.566468 -0.314260
C34   C     C_R   0.923475 0.450221 0.403096 -0.357447
C35   C     C_R   0.000944 0.620172 0.613109 0.545639
C36   C     C_R   0.990989 0.401745 0.369237 0.518718
C37   C     C_3   0.430137 0.557156 0.008258 0.445077
C38   C     C_3   0.573131 0.436723 0.992757 0.476772
C39   C     C_3   0.514886 0.576987 0.978030 0.462928
C40   C     C_3   0.488547 0.416975 0.023143 0.469239
C41   C     C_1   0.506178 0.499916 0.752126 -0.127329
C42   C     C_1   0.494840 0.498180 0.248216 -0.179649
C43   C     C_3   0.421707 0.477905 0.948657 0.235587
C44   C     C_3   0.581711 0.515910 0.052487 0.230591
C45   C     C_3   0.506142 0.497711 0.918171 -0.333321
C46   C     C_3   0.497133 0.496201 0.082840 -0.322018
C47   C     C_1   0.507784 0.499017 0.827774 0.219593
C48   C     C_1   0.494402 0.496800 0.172897 0.204165
C49   C     C_R   0.404965 0.754646 0.456924 -0.242902
C50   C     C_R   0.595260 0.244361 0.507671 -0.252306
H1    H     H_    0.230510 0.541361 0.532858 0.183127
H2    H     H_    0.760637 0.484748 0.444574 0.170366
H3    H     H_    0.130983 0.607924 0.585325 0.162967
H4    H     H_    0.852501 0.440373 0.373393 0.160636
H5    H     H_    0.458025 0.216731 0.449085 0.233943
H6    H     H_    0.538980 0.789955 0.514894 0.171061
H7    H     H_    0.372300 0.141335 0.364470 0.200866
H8    H     H_    0.640342 0.849660 0.478676 0.169506
N1    N     N_R   0.731710 0.552730 0.549140 -0.160165
N2    N     N_R   0.268290 0.447270 0.450860 -0.167434
O1    O     O_R   0.383110 0.605620 0.475230 -0.574056
O2    O     O_R   0.616890 0.394380 0.524770 -0.581255
O3    O     O_R   0.531900 0.639510 0.506760 -0.624389
O4    O     O_R   0.468100 0.360490 0.493240 -0.571117
O5    O     O_R   0.425620 0.483070 0.607460 -0.612703
O6    O     O_R   0.574380 0.516930 0.392540 -0.610673
O7    O     O_R   0.574400 0.516960 0.638990 -0.545385
O8    O     O_R   0.425600 0.483040 0.361010 -0.611296
Zn1   Zn    Zn3+2 0.400660 0.477370 0.478940 0.994746
Zn2   Zn    Zn3+2 0.599340 0.522630 0.521060 1.001604
F1    F     F_    0.528052 0.658690 0.952751 -0.620414
F2    F     F_    0.475078 0.335202 0.047867 -0.618115
O9    O     O_3   0.314362 0.338063 0.358513 -0.581171
C51   C     C_3   0.297126 0.356360 0.267017 0.095698
H9    H     H_    0.290201 0.427845 0.252572 0.133199
H10   H     H_    0.232597 0.332526 0.228136 0.206010
C52   C     C_3   0.378337 0.309571 0.235497 -0.721685
H11   H     H_    0.380392 0.237701 0.240623 0.255487
H12   H     H_    0.369395 0.329129 0.165549 0.241300
H13   H     H_    0.445756 0.326456 0.276313 0.248119
O10   O     O_3   0.701614 0.619913 0.676064 -0.573806
C53   C     C_3   0.672995 0.710547 0.682150 0.135105
H14   H     H_    0.596357 0.724788 0.652391 0.147910
H15   H     H_    0.706391 0.754273 0.647781 0.148390
C54   C     C_3   0.691071 0.733344 0.778895 -0.676696
H16   H     H_    0.767013 0.719710 0.812652 0.288719
H17   H     H_    0.665854 0.803818 0.784018 0.215423
H18   H     H_    0.653209 0.694003 0.812469 0.257650
F3    F     F_    0.875068 0.673461 0.714891 -0.637550
F4    F     F_    0.134596 0.297325 0.314096 -0.614316
F5    F     F_    0.357471 0.618813 0.018437 -0.638334
F6    F     F_    0.645810 0.374940 0.982831 -0.600389
O11   O     O_3   0.663475 0.534292 0.114268 -0.559851
C55   C     C_3   0.729268 0.552417 0.069998 0.171270
H19   H     H_    0.703712 0.614640 0.029992 0.188490
H20   H     H_    0.744345 0.498499 0.026530 0.187533
C56   C     C_3   0.820502 0.562184 0.137995 -0.762861
H21   H     H_    0.848296 0.500592 0.178545 0.281205
H22   H     H_    0.873048 0.576811 0.104129 0.208437
H23   H     H_    0.808526 0.616445 0.181956 0.264713
O12   O     O_3   0.340743 0.456275 0.888147 -0.560693
C57   C     C_3   0.270975 0.450145 0.931791 0.162477
H24   H     H_    0.239905 0.516531 0.945826 0.170241
H25   H     H_    0.298711 0.410284 0.994677 0.168344
C58   C     C_3   0.193909 0.406523 0.872201 -0.798080
H26   H     H_    0.222158 0.338387 0.860578 0.283093
H27   H     H_    0.136236 0.405150 0.903897 0.213265
H28   H     H_    0.165748 0.443146 0.807775 0.236509
F7    F     F_    0.240253 0.051697 0.321660 -0.572140
F8    F     F_    0.772879 0.937536 0.528971 -0.578891
O13   O     O_3   0.755097 0.262609 0.582109 -0.549172
C59   C     C_3   0.814170 0.277583 0.528851 0.145820
H29   H     H_    0.776018 0.326357 0.474908 0.114149
H30   H     H_    0.840281 0.217078 0.498825 0.157154
C60   C     C_3   0.899086 0.313153 0.585581 -0.739401
H31   H     H_    0.938492 0.264628 0.639224 0.281244
H32   H     H_    0.946047 0.325895 0.544744 0.185045
H33   H     H_    0.876678 0.374868 0.615416 0.253128
O14   O     O_3   0.247277 0.727190 0.385501 -0.561722
C61   C     C_3   0.240606 0.699715 0.298532 0.178641
H34   H     H_    0.310028 0.668176 0.291744 0.118923
H35   H     H_    0.213212 0.755882 0.249960 0.183468
C62   C     C_3   0.173361 0.633098 0.276176 -0.770049
H36   H     H_    0.165306 0.613432 0.206912 0.199641
H37   H     H_    0.201142 0.574178 0.320400 0.236521
H38   H     H_    0.103749 0.661600 0.284016 0.272456
F9    F     F_    0.195441 0.901190 0.335053 -0.578634
F10   F     F_    0.810555 0.086802 0.574437 -0.577766
O15   O     O_3   0.027270 0.680052 0.677234 -0.526217
C63   C     C_3   0.088095 0.635200 0.753780 0.104096
H39   H     H_    0.155057 0.604503 0.741211 0.134588
H40   H     H_    0.054488 0.583940 0.777624 0.150919
C64   C     C_3   0.110783 0.699974 0.826505 -0.621695
H41   H     H_    0.045498 0.730918 0.841776 0.274991
H42   H     H_    0.158642 0.665654 0.887086 0.211470
H43   H     H_    0.145384 0.751563 0.805198 0.263508
O16   O     O_3   0.963555 0.345607 0.301589 -0.556677
C65   C     C_3   0.937352 0.271674 0.335734 0.120842
H44   H     H_    0.869964 0.289377 0.353077 0.094997
H45   H     H_    0.992361 0.241992 0.395129 0.164783
C66   C     C_3   0.924077 0.203124 0.265790 -0.597842
H46   H     H_    0.990593 0.182888 0.247721 0.301184
H47   H     H_    0.902912 0.144883 0.291709 0.201539
H48   H     H_    0.868706 0.230179 0.205977 0.253566

loop_
_geom_bond_atom_site_label_1
_geom_bond_atom_site_label_2
_ccdc_geom_bond_type
O11   C55   S    
C27   C29   A    
C24   C42   S    
C6    O13   S    
O13   C59   S    
C59   H30   S    
C56   H21   S    
C62   H36   S    
C20   C30   A    
C52   H11   S    
C40   C46   S    
C58   H27   S    
O12   C57   S    
C51   H10   S    
C5    O14   S    
C19   C21   A    
C21   N1    A    
C66   H47   S    
C22   N2    A    
C57   H25   S    
C3    F9    S    
C62   H37   S    
C60   H31   S    
C38   F6    S    
O2    Zn2   S    
C57   C58   S    
C15   C17   A    
O9    C51   S    
C45   C47   S    
C23   O7    A    
C9    C13   A    
C38   C45   S    
C44   O11   S    
C2    C50   S    
C40   C43   S    
C61   H35   S    
O8    Zn1   S    
C60   H32   S    
C51   C52   S    
C64   H43   S    
C4    C12   A    
C36   O16   S    
C35   O15   S    
C61   C62   S    
C24   O6    A    
C39   C45   S    
C54   H17   S    
C13   C14   A    
C15   H7    S    
C5    C49   A    
C57   H24   S    
C7    H6    S    
C1    O3    A    
C8    H5    S    
C59   H29   S    
C56   H22   S    
C44   C46   S    
O10   C53   S    
C52   H12   S    
C33   H3    S    
C58   H28   S    
C46   C48   S    
C51   H9    S    
C4    F10   S    
C27   C31   A    
C28   C32   A    
C7    C49   A    
C4    C6    A    
C10   C14   A    
C66   H48   S    
C37   F5    S    
C62   H38   S    
C42   C48   T    
C55   C56   S    
C54   H16   S    
C20   F4    S    
C1    O1    A    
C37   C43   S    
C63   H40   S    
C43   O12   S    
C38   C44   S    
C19   F3    S    
C43   C45   S    
C31   C32   A    
O3    Zn2   S    
C60   H33   S    
C41   C47   T    
C31   C34   A    
C16   H8    S    
O4    Zn1   S    
C6    C50   A    
C55   H20   S    
C9    C11   A    
C10   C12   A    
C16   C18   A    
C21   O10   S    
C34   H4    S    
C53   H15   S    
C64   H41   S    
C2    O4    A    
C63   C64   S    
C19   C29   A    
C8    C50   A    
C56   H23   S    
C61   H34   S    
O15   C63   S    
O16   C65   S    
C54   H18   S    
O1    Zn1   S    
C7    C9    A    
C11   C17   A    
C40   F2    S    
C18   F8    S    
C20   C22   A    
C3    C5    A    
C65   C66   S    
C17   F7    S    
O14   C61   S    
C39   C44   S    
C65   H45   S    
C25   C27   A    
C53   C54   S    
C58   H26   S    
C29   C35   A    
C26   C28   A    
C23   C41   S    
C30   C36   A    
O7    Zn2   S    
C32   C33   A    
C23   O5    A    
C28   C30   A    
C63   H39   S    
C25   H2    S    
C37   C39   S    
C26   H1    S    
C38   C40   S    
C52   H13   S    
O6    Zn2   S    
C26   N2    A    
N2    Zn1   S    
O5    Zn1   S    
C33   C35   A    
C34   C36   A    
C55   H19   S    
C3    C11   A    
C65   H44   S    
C24   O8    A    
N1    Zn2   S    
C8    C10   A    
C53   H14   S    
C13   C16   A    
C12   C18   A    
C64   H42   S    
C39   F1    S    
C14   C15   A    
C25   N1    A    
C22   O9    S    
C37   C46   S    
C66   H46   S    
C1    C49   S    
C59   C60   S    
C2    O2    A    
