data_mof_unit_32478.cif
_audit_creation_date              2012-12-11T15:54:49-0500
_audit_creation_method            fapswitch 2.2
_symmetry_space_group_name_H-M    P1
_symmetry_Int_Tables_number       1
_space_group_crystal_system       triclinic
_cell_length_a                    17.686584
_cell_length_b                    24.406924
_cell_length_c                    15.020088
_cell_angle_alpha                 89.748838
_cell_angle_beta                  125.662664
_cell_angle_gamma                 90.481916
_cell_volume                      5267.66265184

loop_
_atom_site_label
_atom_site_type_symbol
_atom_type_description
_atom_site_fract_x
_atom_site_fract_y
_atom_site_fract_z
_atom_type_partial_charge
C1    C     C_R   0.905478 0.870123 0.091075 -0.137288
C2    C     C_R   0.916376 0.137330 0.093147 -0.139422
C3    C     C_R   0.402948 0.378106 0.093840 -0.137288
C4    C     C_R   0.438196 0.648895 0.093989 -0.138092
C5    C     C_R   0.093472 0.872162 0.906839 0.523292
C6    C     C_R   0.067731 0.148125 0.908145 0.524216
C7    C     C_R   0.551847 0.346944 0.908587 0.494363
C8    C     C_R   0.551578 0.653504 0.908681 0.452710
C9    C     C_R   0.155530 0.149848 0.091463 -0.229187
C10   C     C_R   0.185447 0.871908 0.090936 -0.212621
C11   C     C_R   0.646270 0.653007 0.090561 -0.254677
C12   C     C_R   0.642545 0.346832 0.090459 -0.232482
C13   C     C_R   0.322937 0.000076 0.318363 0.071466
C14   C     C_R   0.823485 0.499412 0.286632 0.065600
C15   C     C_R   0.922593 0.001515 0.627869 -0.051725
C16   C     C_R   0.551311 0.501107 0.727995 0.055075
C17   C     C_R   0.180064 0.855473 0.998858 -0.171423
C18   C     C_R   0.132567 0.179072 0.999606 -0.158521
C19   C     C_R   0.612761 0.314857 0.999638 -0.155609
C20   C     C_R   0.612554 0.685348 0.999077 -0.048042
C21   C     C_3   0.930925 0.059592 0.394984 -0.539492
C22   C     C_3   0.881446 0.961613 0.352983 -0.598168
C23   C     C_3   0.613661 0.553782 0.535193 -0.537210
C24   C     C_3   0.463521 0.499007 0.427341 -0.570634
C25   C     C_3   0.912234 0.061435 0.482219 0.486533
C26   C     C_3   0.864607 0.960703 0.443409 0.429755
C27   C     C_3   0.610279 0.554916 0.635838 0.490843
C28   C     C_3   0.460397 0.499738 0.527268 0.410086
C29   C     C_3   0.052571 0.986923 0.500043 -0.438389
C30   C     C_3   0.620403 0.451212 0.541196 -0.416157
C31   C     C_3   0.962506 0.001932 0.387823 0.305198
C32   C     C_3   0.565929 0.501083 0.466262 0.295371
C33   C     C_3   0.932511 0.002720 0.537240 0.083081
C34   C     C_3   0.561444 0.501155 0.636959 0.085131
C35   C     C_R   0.819346 0.134020 0.908452 -0.131779
C36   C     C_R   0.812424 0.873393 0.907098 -0.131698
C37   C     C_R   0.345164 0.649686 0.909702 -0.122041
C38   C     C_R   0.309841 0.378046 0.910088 -0.129117
C39   C     C_3   0.035686 0.988466 0.588235 -0.365606
C40   C     C_3   0.620206 0.452079 0.643625 -0.396713
C41   C     C_3   0.675719 0.171865 0.954211 -0.393054
C42   C     C_3   0.661770 0.811366 0.885992 -0.479678
C43   C     C_3   0.224682 0.709921 0.956050 -0.420310
C44   C     C_3   0.156475 0.324335 0.916625 -0.431421
C45   C     C_3   0.170460 0.759814 0.947571 -0.391971
C46   C     C_3   0.104929 0.274250 0.920243 -0.386031
C47   C     C_3   0.614970 0.214631 0.959762 -0.408089
C48   C     C_3   0.605153 0.763799 0.885909 -0.316736
C49   C     C_3   0.328833 0.773348 0.936526 -0.391792
C50   C     C_3   0.298574 0.266718 0.980639 -0.376471
C51   C     C_3   0.767699 0.245759 0.935952 -0.404527
C52   C     C_3   0.810288 0.759601 0.020714 -0.394242
C53   C     C_3   0.816306 0.215472 0.122549 -0.416307
C54   C     C_3   0.742530 0.823908 0.088176 -0.408224
C55   C     C_3   0.372725 0.747862 0.123682 -0.433057
C56   C     C_3   0.278786 0.310782 0.117942 -0.415654
C57   C     C_3   0.774109 0.196062 0.003846 0.405795
C58   C     C_3   0.758476 0.814374 0.998156 0.416233
C59   C     C_3   0.326282 0.726675 0.005156 0.406139
C60   C     C_3   0.262441 0.318282 0.005021 0.404317
C61   C     C_3   0.236361 0.810366 0.002218 0.423285
C62   C     C_3   0.176656 0.230825 0.001983 0.415503
C63   C     C_3   0.668971 0.269869 0.001979 0.412583
C64   C     C_3   0.661848 0.733847 0.998159 0.379051
C65   C     C_3   0.284321 0.825114 0.945144 -0.417702
C66   C     C_3   0.246157 0.215942 0.975293 -0.423725
C67   C     C_3   0.703062 0.288115 0.931204 -0.410507
C68   C     C_3   0.753225 0.712344 0.019373 -0.416446
C69   C     C_3   0.315689 0.794428 0.122644 -0.392289
C70   C     C_3   0.231899 0.257657 0.117582 -0.384192
C71   C     C_3   0.756244 0.259912 0.121194 -0.388625
C72   C     C_3   0.685385 0.775832 0.088612 -0.402128
C73   C     C_3   0.464149 0.943623 0.395245 -0.519634
C74   C     C_3   0.469251 0.045735 0.373057 -0.523212
C75   C     C_3   0.959263 0.438748 0.403124 -0.538170
C76   C     C_3   0.980928 0.531852 0.347740 -0.517548
C77   C     C_R   0.747054 0.954131 0.695582 -0.127881
C78   C     C_R   0.746526 0.045347 0.695028 -0.191178
C79   C     C_R   0.243516 0.453356 0.699812 -0.086778
C80   C     C_R   0.241710 0.545014 0.698294 -0.182330
C81   C     C_3   0.568099 0.940881 0.488070 0.539665
C82   C     C_3   0.576135 0.042905 0.453198 0.540879
C83   C     C_3   0.060381 0.436800 0.503403 0.536574
C84   C     C_3   0.085423 0.530534 0.445016 0.545688
C85   C     C_3   0.445269 0.008468 0.512044 -0.425756
C86   C     C_3   0.935462 0.523388 0.478905 -0.407367
C87   C     C_3   0.423386 0.999430 0.398028 0.294065
C88   C     C_3   0.923017 0.498458 0.376408 0.287857
C89   C     C_3   0.601572 0.998778 0.542235 0.132960
C90   C     C_3   0.097171 0.496938 0.541017 0.135559
C91   C     C_3   0.550303 0.012447 0.595987 -0.599394
C92   C     C_3   0.037961 0.524040 0.574601 -0.612551
C93   C     C_R   0.004272 0.046683 0.271877 -0.152710
C94   C     C_R   0.005277 0.954614 0.275204 -0.151811
C95   C     C_R   0.545886 0.546250 0.302288 -0.144264
C96   C     C_R   0.548254 0.454835 0.304577 -0.161855
C97   C     C_R   0.817608 0.856990 0.998858 -0.006606
C98   C     C_R   0.832690 0.155217 0.002208 -0.012306
C99   C     C_R   0.314633 0.364804 0.003551 -0.014176
C100  C     C_R   0.371652 0.678016 0.003343 -0.002575
C101  C     C_R   0.700414 0.999419 0.632707 0.084606
C102  C     C_R   0.193278 0.498336 0.639704 0.057733
C103  C     C_R   0.984870 0.001119 0.309265 0.086666
C104  C     C_R   0.562198 0.500834 0.365899 0.073514
C105  C     C_R   0.266490 0.954263 0.281909 -0.147521
C106  C     C_R   0.268365 0.046492 0.275398 -0.151564
C107  C     C_R   0.766429 0.453530 0.251628 -0.146688
C108  C     C_R   0.768664 0.545995 0.254982 -0.145470
C109  C     C_R   0.941999 0.045998 0.693343 -0.019497
C110  C     C_R   0.941516 0.955683 0.691709 -0.032287
C111  C     C_R   0.520410 0.546542 0.753122 -0.199994
C112  C     C_R   0.523809 0.454873 0.756912 -0.027937
H1    H     H_    0.936078 0.856239 0.173459 0.086598
H2    H     H_    0.952672 0.150988 0.176561 0.089945
H3    H     H_    0.432676 0.371848 0.179208 0.094056
H4    H     H_    0.480565 0.661074 0.179152 0.094064
H5    H     H_    0.867622 0.072094 0.313976 0.125700
H6    H     H_    0.817230 0.976001 0.274719 0.150195
H7    H     H_    0.577663 0.590944 0.485619 0.118832
H8    H     H_    0.425795 0.535438 0.375242 0.148215
H9    H     H_    0.837496 0.069621 0.441481 -0.060451
H10   H     H_    0.793764 0.977816 0.404101 0.079676
H11   H     H_    0.566075 0.590544 0.623658 -0.038860
H12   H     H_    0.429804 0.540266 0.522861 0.051125
H13   H     H_    0.109092 0.016635 0.521659 0.174068
H14   H     H_    0.077945 0.945812 0.497705 0.150905
H15   H     H_    0.693389 0.452386 0.566537 0.168809
H16   H     H_    0.589346 0.411925 0.497279 0.145651
H17   H     H_    0.082659 0.019719 0.650806 0.203635
H18   H     H_    0.055784 0.948551 0.631964 0.153012
H19   H     H_    0.692913 0.455787 0.718286 0.207203
H20   H     H_    0.594497 0.412144 0.651464 0.130959
H21   H     H_    0.642225 0.159816 0.867331 0.151058
H22   H     H_    0.668702 0.803974 0.818151 0.152780
H23   H     H_    0.190025 0.691655 0.872937 0.152781
H24   H     H_    0.140735 0.327202 0.833485 0.149385
H25   H     H_    0.680741 0.134389 0.999851 0.154337
H26   H     H_    0.623820 0.850544 0.868994 0.163852
H27   H     H_    0.222922 0.678442 0.008792 0.168074
H28   H     H_    0.130818 0.362441 0.930842 0.159552
H29   H     H_    0.597939 0.200098 0.016550 0.164828
H30   H     H_    0.538402 0.779117 0.867743 0.177773
H31   H     H_    0.135167 0.750847 0.987887 0.159376
H32   H     H_    0.061041 0.287266 0.947190 0.158052
H33   H     H_    0.115108 0.766695 0.859605 0.184593
H34   H     H_    0.056350 0.259016 0.835732 0.174705
H35   H     H_    0.548192 0.217546 0.878063 0.140385
H36   H     H_    0.589418 0.735588 0.819079 0.194332
H37   H     H_    0.289743 0.760902 0.849030 0.156449
H38   H     H_    0.289812 0.270807 0.901236 0.156873
H39   H     H_    0.740349 0.233604 0.850786 0.148610
H40   H     H_    0.823934 0.752525 0.958325 0.167097
H41   H     H_    0.763577 0.142134 0.823783 0.089100
H42   H     H_    0.757100 0.867030 0.821812 0.090982
H43   H     H_    0.299646 0.663061 0.825414 0.095250
H44   H     H_    0.253466 0.369229 0.826152 0.081921
H45   H     H_    0.237690 0.843170 0.862862 0.135442
H46   H     H_    0.210738 0.197353 0.892793 0.146466
H47   H     H_    0.643652 0.293589 0.844017 0.163371
H48   H     H_    0.737461 0.682585 0.954581 0.146294
H49   H     H_    0.887621 0.232619 0.161570 0.153884
H50   H     H_    0.810076 0.826796 0.170056 0.160509
H51   H     H_    0.444448 0.762613 0.158056 0.173343
H52   H     H_    0.353793 0.307146 0.185621 0.147704
H53   H     H_    0.820686 0.180421 0.172997 0.153219
H54   H     H_    0.705284 0.863151 0.073236 0.156226
H55   H     H_    0.376773 0.714969 0.177887 0.154208
H56   H     H_    0.250787 0.346461 0.135731 0.171033
H57   H     H_    0.735040 0.247137 0.175023 0.167393
H58   H     H_    0.620154 0.791483 0.074130 0.153763
H59   H     H_    0.285865 0.779958 0.166633 0.155976
H60   H     H_    0.184337 0.266489 0.141405 0.154663
H61   H     H_    0.362266 0.830140 0.168038 0.151753
H62   H     H_    0.287136 0.229607 0.180010 0.154799
H63   H     H_    0.798970 0.298049 0.155882 0.155776
H64   H     H_    0.726611 0.756383 0.170913 0.158167
H65   H     H_    0.401865 0.782439 0.966359 0.155126
H66   H     H_    0.374311 0.261299 0.045623 0.158228
H67   H     H_    0.838017 0.264164 0.973625 0.160745
H68   H     H_    0.879084 0.760627 0.102059 0.155280
H69   H     H_    0.339413 0.856544 0.994817 0.162789
H70   H     H_    0.296908 0.185140 0.035034 0.162121
H71   H     H_    0.740355 0.328208 0.960860 0.156234
H72   H     H_    0.795668 0.690483 0.099356 0.162350
H73   H     H_    0.431165 0.908344 0.407374 0.111034
H74   H     H_    0.446813 0.086591 0.381727 0.121136
H75   H     H_    0.918700 0.413105 0.423122 0.123714
H76   H     H_    0.956894 0.575091 0.329405 0.123939
H77   H     H_    0.451818 0.938298 0.314105 0.193076
H78   H     H_    0.446250 0.042188 0.286739 0.184354
H79   H     H_    0.951559 0.420614 0.330263 0.185882
H80   H     H_    0.970103 0.514821 0.272421 0.191214
H81   H     H_    0.734859 0.911733 0.670673 0.092302
H82   H     H_    0.731565 0.087744 0.669974 0.089634
H83   H     H_    0.231888 0.410890 0.675975 0.119850
H84   H     H_    0.225427 0.587167 0.671471 0.090352
H85   H     H_    0.576893 0.912131 0.551748 -0.039233
H86   H     H_    0.601699 0.083700 0.493955 -0.040145
H87   H     H_    0.062269 0.416938 0.572037 -0.034179
H88   H     H_    0.107393 0.573743 0.473588 -0.035441
H89   H     H_    0.417175 0.973761 0.533217 0.173419
H90   H     H_    0.412384 0.046750 0.513937 0.173953
H91   H     H_    0.895290 0.498992 0.501246 0.176317
H92   H     H_    0.909069 0.566110 0.463087 0.170086
H93   H     H_    0.571761 0.983892 0.664936 0.196534
H94   H     H_    0.568435 0.054690 0.630595 0.192193
H95   H     H_    0.047168 0.502039 0.645454 0.196627
H96   H     H_    0.060245 0.567306 0.600638 0.193215
H97   H     H_    0.010118 0.088685 0.295797 0.089644
H98   H     H_    0.011453 0.913374 0.304604 0.085384
H99   H     H_    0.555925 0.588893 0.325686 0.092900
H100  H     H_    0.561954 0.412765 0.331904 0.087306
H101  H     H_    0.283526 0.912986 0.312665 0.088196
H102  H     H_    0.289126 0.088970 0.294856 0.095719
H103  H     H_    0.784485 0.410728 0.262373 0.101516
H104  H     H_    0.791309 0.588287 0.272866 0.094505
H105  H     H_    0.916225 0.086849 0.666170 0.163455
H106  H     H_    0.921112 0.914251 0.664063 0.197926
H107  H     H_    0.526282 0.589009 0.738059 0.111711
H108  H     H_    0.534370 0.412749 0.746417 0.119288
H109  H     H_    0.196934 0.163075 0.175918 0.123736
H110  H     H_    0.238130 0.862010 0.174963 0.121759
H111  H     H_    0.691076 0.665681 0.175344 0.121689
H112  H     H_    0.682827 0.334119 0.175281 0.124970
H113  H     H_    0.987364 0.089478 0.418932 0.192734
H114  H     H_    0.893942 0.920690 0.332929 0.181506
H115  H     H_    0.686782 0.555781 0.561110 0.190766
H116  H     H_    0.426920 0.463219 0.373098 0.178409
N1    N     N_R   0.950530 0.896220 0.057200 -0.037171
N2    N     N_R   0.950530 0.103780 0.057200 -0.034542
N3    N     N_R   0.450530 0.396220 0.057200 -0.039018
N4    N     N_R   0.450530 0.603780 0.057200 -0.034018
N5    N     N_R   0.893330 0.103780 0.942800 -0.035376
N6    N     N_R   0.893330 0.896220 0.942800 -0.039978
N7    N     N_R   0.393330 0.603780 0.942800 -0.039853
N8    N     N_R   0.393330 0.396220 0.942800 -0.034923
N9    N     N_R   0.818150 0.971400 0.792440 -0.045516
N10   N     N_R   0.818150 0.028600 0.792440 -0.036163
N11   N     N_R   0.318150 0.471400 0.792440 -0.046007
N12   N     N_R   0.318150 0.528600 0.792440 -0.040589
N13   N     N_R   0.025710 0.028600 0.207560 -0.036640
N14   N     N_R   0.025710 0.971400 0.207560 -0.035918
N15   N     N_R   0.525710 0.528600 0.207560 -0.037105
N16   N     N_R   0.525710 0.471400 0.207560 -0.035608
N17   N     N_R   0.181850 0.971400 0.207560 -0.035631
N18   N     N_R   0.181850 0.028600 0.207560 -0.036278
N19   N     N_R   0.681850 0.471400 0.207560 -0.037707
N20   N     N_R   0.681850 0.528600 0.207560 -0.035492
N21   N     N_R   0.974290 0.028600 0.792440 -0.059578
N22   N     N_R   0.974290 0.971400 0.792440 -0.060132
N23   N     N_R   0.474290 0.528600 0.792440 -0.049473
N24   N     N_R   0.474290 0.471400 0.792440 -0.029349
N25   N     N_R   0.049470 0.896220 0.942800 -0.066878
N26   N     N_R   0.049470 0.103780 0.942800 -0.068095
N27   N     N_R   0.549470 0.396220 0.942800 -0.069628
N28   N     N_R   0.549470 0.603780 0.942800 -0.090581
N29   N     N_R   0.106670 0.103780 0.057200 -0.059492
N30   N     N_R   0.106670 0.896220 0.057200 -0.061867
N31   N     N_R   0.606670 0.603780 0.057200 -0.049595
N32   N     N_R   0.606670 0.396220 0.057200 -0.060297
Ni1   Ni    Ni4+2 0.065600 0.934400 0.131190 0.200371
Ni2   Ni    Ni4+2 0.065600 0.065600 0.131190 0.202442
Ni3   Ni    Ni4+2 0.565600 0.434400 0.131190 0.198584
Ni4   Ni    Ni4+2 0.565600 0.565600 0.131190 0.203097
Ni5   Ni    Ni4+2 0.934400 0.065600 0.868810 0.232843
Ni6   Ni    Ni4+2 0.934400 0.934400 0.868810 0.230056
Ni7   Ni    Ni4+2 0.434400 0.565600 0.868810 0.207231
Ni8   Ni    Ni4+2 0.434400 0.434400 0.868810 0.264176
O1    O     O_3   0.969577 0.103764 0.557963 -0.662285
C113  C     C_3   0.922776 0.155054 0.529372 0.220043
H117  H     H_    0.959489 0.180664 0.603995 0.163390
H118  H     H_    0.849981 0.151299 0.504154 0.065586
C114  C     C_3   0.925936 0.186149 0.442521 -0.337426
H119  H     H_    0.997708 0.185169 0.464399 0.214802
H120  H     H_    0.877573 0.166556 0.361408 0.189181
C115  C     C_3   0.896924 0.245801 0.433434 -1.053598
H121  H     H_    0.825081 0.248050 0.411063 0.269570
H122  H     H_    0.898714 0.266673 0.368875 0.268260
H123  H     H_    0.945527 0.267570 0.512265 0.265353
O2    O     O_3   0.857813 0.907552 0.478660 -0.670260
C116  C     C_3   0.924214 0.868290 0.496862 0.201928
H124  H     H_    0.958179 0.851044 0.580221 0.134168
H125  H     H_    0.981405 0.884872 0.494866 0.104716
C117  C     C_3   0.874354 0.821194 0.414885 -0.292887
H126  H     H_    0.838231 0.795056 0.440054 0.207960
H127  H     H_    0.820878 0.837751 0.332289 0.207610
C118  C     C_3   0.942074 0.785979 0.408770 -1.078667
H128  H     H_    0.976170 0.810793 0.379072 0.263588
H129  H     H_    0.903628 0.751593 0.350651 0.272168
H130  H     H_    0.996042 0.768847 0.490750 0.274838
O3    O     O_3   0.702037 0.559144 0.734003 -0.658766
C119  C     C_3   0.725653 0.613609 0.774400 0.215592
H131  H     H_    0.787536 0.611385 0.861044 0.127221
H132  H     H_    0.670084 0.633433 0.776211 0.069691
C120  C     C_3   0.751157 0.648617 0.710109 -0.319542
H133  H     H_    0.803964 0.626918 0.705841 0.209875
H134  H     H_    0.688437 0.655477 0.625512 0.188625
C121  C     C_3   0.790004 0.704426 0.763531 -1.034900
H135  H     H_    0.737687 0.727026 0.767285 0.262171
H136  H     H_    0.806553 0.728795 0.714244 0.276046
H137  H     H_    0.854825 0.699393 0.847391 0.267589
O4    O     O_3   0.397079 0.461757 0.524311 -0.661154
C122  C     C_3   0.403646 0.406540 0.501165 0.230818
H138  H     H_    0.418212 0.380991 0.570776 0.137957
H139  H     H_    0.459041 0.398189 0.490343 0.086153
C123  C     C_3   0.310327 0.388260 0.398330 -0.284496
H140  H     H_    0.254321 0.396874 0.408641 0.239280
H141  H     H_    0.295084 0.411868 0.326255 0.188595
C124  C     C_3   0.310686 0.327257 0.376857 -1.095963
H142  H     H_    0.362368 0.318780 0.359306 0.273502
H143  H     H_    0.240585 0.314651 0.305418 0.278276
H144  H     H_    0.328335 0.302642 0.448895 0.278923
O5    O     O_3   0.618518 0.922918 0.446949 -0.618545
C125  C     C_3   0.618810 0.864904 0.442625 0.197858
H145  H     H_    0.554031 0.845807 0.425622 0.064456
H146  H     H_    0.679333 0.849231 0.522416 0.105307
C126  C     C_3   0.627270 0.847117 0.351431 -0.205431
H147  H     H_    0.564025 0.859913 0.270950 0.179483
H148  H     H_    0.688566 0.867380 0.362398 0.241660
C127  C     C_3   0.637683 0.785047 0.351697 -1.120118
H149  H     H_    0.702052 0.771602 0.430252 0.276665
H150  H     H_    0.641655 0.773006 0.283297 0.272240
H151  H     H_    0.577344 0.763877 0.341642 0.270993
O6    O     O_3   0.612516 0.028099 0.393774 -0.623122
C128  C     C_3   0.653427 0.073031 0.376306 0.208809
H152  H     H_    0.687685 0.055849 0.340238 0.123183
H153  H     H_    0.708005 0.093275 0.455045 0.065860
C129  C     C_3   0.581481 0.114538 0.293215 -0.342517
H154  H     H_    0.527048 0.092817 0.216712 0.208012
H155  H     H_    0.547721 0.135299 0.327048 0.185852
C130  C     C_3   0.627347 0.158166 0.265726 -1.032042
H156  H     H_    0.680902 0.181148 0.340739 0.265883
H157  H     H_    0.573952 0.187476 0.205319 0.268330
H158  H     H_    0.660594 0.139004 0.229711 0.264013
O7    O     O_3   0.114429 0.406813 0.478418 -0.626781
C131  C     C_3   0.101114 0.349690 0.483049 0.156420
H159  H     H_    0.026247 0.338193 0.426253 0.104832
H160  H     H_    0.127127 0.337189 0.567779 0.080134
C132  C     C_3   0.154745 0.318035 0.449562 -0.220795
H161  H     H_    0.132487 0.331853 0.367046 0.207430
H162  H     H_    0.230312 0.326483 0.509747 0.211586
C133  C     C_3   0.137295 0.256454 0.445651 -1.069854
H163  H     H_    0.158046 0.241501 0.526928 0.274956
H164  H     H_    0.178954 0.234697 0.423345 0.273220
H165  H     H_    0.062511 0.246920 0.383008 0.268661
O8    O     O_3   0.136354 0.505702 0.409954 -0.626084
C134  C     C_3   0.202161 0.542047 0.416578 0.228602
H166  H     H_    0.251105 0.516902 0.411079 0.180636
H167  H     H_    0.244429 0.563769 0.496877 0.080703
C135  C     C_3   0.155614 0.582448 0.320334 -0.366095
H168  H     H_    0.113471 0.559309 0.241977 0.216239
H169  H     H_    0.108523 0.610076 0.325140 0.192971
C136  C     C_3   0.228112 0.617179 0.320984 -1.019193
H170  H     H_    0.270763 0.640919 0.398472 0.266791
H171  H     H_    0.192639 0.646305 0.251136 0.271702
H172  H     H_    0.274442 0.590666 0.312704 0.262912
O9    O     O_3   0.049466 0.858782 0.798480 -0.833364
H173  H     H_    0.096152 0.848360 0.786159 0.288836
O10   O     O_3   0.018681 0.161622 0.799606 -0.817774
H174  H     H_    0.063472 0.178386 0.788442 0.291456
O11   O     O_3   0.488131 0.330858 0.801484 -0.812874
H175  H     H_    0.494178 0.291338 0.795357 0.299318
O12   O     O_3   0.480605 0.673893 0.808223 -0.815347
H176  H     H_    0.435071 0.643827 0.767192 0.309024

loop_
_geom_bond_atom_site_label_1
_geom_bond_atom_site_label_2
_ccdc_geom_bond_type
O9    H173  S    
C55   C59   S    
C15   C109  A    
C77   C101  A    
O3    C119  S    
C42   C58   S    
C26   O2    S    
C122  H139  S    
C116  C117  S    
C109  N21   A    
C42   C48   S    
C111  H107  S    
C46   C62   S    
C4    N4    A    
C117  H126  S    
C50   H66   S    
C82   H86   S    
C86   C88   S    
N27   Ni8   S    
N28   N31   A    
C114  C115  S    
C62   C70   S    
N1    N6    A    
C77   H81   S    
C96   N16   A    
C21   H5    S    
C17   C61   S    
C74   H78   S    
C82   O6    S    
N25   N30   A    
C19   C63   S    
O6    C128  S    
C32   C104  S    
C79   C102  A    
C36   C97   A    
C51   C57   S    
C76   H76   S    
C66   H70   S    
C78   N10   A    
N17   N18   A    
C78   C101  A    
C69   H61   S    
C73   C81   S    
C136  H171  S    
C44   C46   S    
C49   H65   S    
C80   H84   S    
C11   C20   A    
C24   H8    S    
C127  H151  S    
C11   H111  S    
C133  H163  S    
C131  H159  S    
C125  H145  S    
C8    N28   A    
C11   N31   A    
C126  C127  S    
C24   C32   S    
C90   C92   S    
C122  H138  S    
C123  H140  S    
N16   Ni3   S    
C52   C58   S    
C85   H90   S    
C14   C107  A    
C63   C71   S    
C7    C19   A    
C96   C104  A    
C113  H118  S    
C121  H135  S    
C53   C71   S    
N23   Ni7   S    
C91   H94   S    
C22   H6    S    
C108  N20   A    
C30   H15   S    
C68   H72   S    
C89   C101  S    
C117  C118  S    
C13   C106  A    
C133  H165  S    
C7    O11   S    
C56   H52   S    
C42   H22   S    
C61   C69   S    
C119  H132  S    
C55   H51   S    
C81   H85   S    
C2    H2    S    
C46   H34   S    
N11   Ni8   S    
C135  H168  S    
C10   H110  S    
C14   C88   S    
O7    C131  S    
C61   C65   S    
C107  H103  S    
O10   H174  S    
C67   H47   S    
C68   H48   S    
C25   H9    S    
C25   O1    S    
C16   C111  A    
C31   C103  S    
N20   Ni4   S    
C130  H157  S    
C29   H13   S    
N17   Ni1   S    
C93   C103  A    
C41   H21   S    
C120  H134  S    
C6    O10   S    
C21   C31   S    
N21   N22   A    
C82   C89   S    
C45   H33   S    
C64   C68   S    
C69   H59   S    
C36   N6    A    
C79   H83   S    
N13   N14   A    
N21   Ni5   S    
C128  H153  S    
C90   C102  S    
C16   C34   S    
C73   C87   S    
C74   C87   S    
C89   C91   S    
C43   C59   S    
N9    N10   A    
C59   C100  S    
C56   H56   S    
C84   C90   S    
C131  C132  S    
C51   H67   S    
C37   N7    A    
C124  H143  S    
N7    Ni7   S    
C106  H102  S    
C47   H35   S    
C62   C66   S    
C48   H30   S    
O2    C116  S    
C3    N3    A    
C18   C62   S    
C46   H32   S    
C39   H17   S    
N26   N29   A    
C106  N18   A    
C80   C102  A    
C127  H150  S    
C75   H79   S    
C76   H80   S    
C43   C45   S    
C26   C33   S    
C13   C87   S    
C118  H129  S    
C41   C47   S    
C51   C67   S    
C70   H62   S    
C105  N17   A    
N3    N8    A    
C67   H71   S    
C40   H19   S    
C94   H98   S    
N8    Ni8   S    
C21   C25   S    
N27   N32   A    
N4    Ni4   S    
C24   C28   S    
C129  H154  S    
C73   H73   S    
C28   H12   S    
C22   H114  S    
N1    Ni1   S    
N25   Ni6   S    
C116  H125  S    
C49   C59   S    
C50   C60   S    
C55   C69   S    
C117  H127  S    
C92   H95   S    
C93   N13   A    
C134  C135  S    
C114  H120  S    
C130  H158  S    
N19   Ni3   S    
C109  H105  S    
C2    N2    A    
C28   C34   S    
C3    C99   A    
C9    C18   A    
C132  C133  S    
C115  H121  S    
C27   O3    S    
C86   H91   S    
C37   C100  A    
C25   C33   S    
C44   H24   S    
N2    Ni2   S    
C96   H100  S    
C9    N29   A    
C42   H26   S    
N11   N12   A    
C113  C114  S    
C55   H55   S    
C76   C84   S    
C136  H170  S    
C36   H42   S    
N23   N24   A    
C110  N22   A    
C1    H1    S    
C74   C82   S    
C129  C130  S    
C47   C63   S    
C133  H164  S    
C48   C64   S    
C5    C17   A    
C125  H146  S    
N15   N16   A    
C78   H82   S    
C126  H148  S    
C70   H60   S    
C12   H112  S    
N3    Ni3   S    
C91   H93   S    
N24   Ni8   S    
C123  H141  S    
O12   H176  S    
C71   H57   S    
C35   N5    A    
C79   N11   A    
C35   C98   A    
C41   H25   S    
N18   Ni2   S    
C85   H89   S    
C81   C89   S    
C125  C126  S    
C14   C108  A    
C51   H39   S    
C44   H28   S    
O1    C113  S    
C77   N9    A    
C15   C110  A    
C121  H136  S    
C54   H54   S    
N32   Ni3   S    
C112  H108  S    
C122  C123  S    
N10   Ni5   S    
C30   H16   S    
C123  C124  S    
N29   Ni2   S    
C35   H41   S    
N22   Ni6   S    
C13   C105  A    
N31   Ni4   S    
C134  H166  S    
C53   C57   S    
C135  C136  S    
C56   C60   S    
N9    Ni6   S    
C121  H137  S    
C130  H156  S    
C132  H161  S    
C115  H123  S    
C52   H40   S    
C118  H130  S    
C8    C20   A    
C135  H169  S    
C28   O4    S    
C108  H104  S    
C131  H160  S    
N28   Ni7   S    
C94   C103  A    
N13   Ni2   S    
C120  H133  S    
C136  H172  S    
C16   C112  A    
C7    N27   A    
C4    H4    S    
C75   H75   S    
C38   N8    A    
C38   C99   A    
C65   H45   S    
C23   C32   S    
C41   C57   S    
C3    H3    S    
C23   H7    S    
C75   C83   S    
O5    C125  S    
C84   O8    S    
C44   C60   S    
C57   C98   S    
C12   C19   A    
C45   C61   S    
C71   H63   S    
C72   H64   S    
C128  H152  S    
C5    O9    S    
C9    H109  S    
C22   C26   S    
C45   H31   S    
C113  H117  S    
C83   O7    S    
C26   H10   S    
C73   H77   S    
C74   H74   S    
N26   Ni5   S    
C37   H43   S    
C38   H44   S    
C60   C99   S    
C85   C91   S    
C65   H69   S    
C124  H142  S    
C84   H88   S    
C33   C39   S    
C49   C65   S    
C34   C40   S    
C107  N19   A    
C119  H131  S    
N6    Ni6   S    
C10   C17   A    
C111  N23   A    
C8    O12   S    
C6    N26   A    
N2    N5    A    
C118  H128  S    
C10   N30   A    
C43   H27   S    
C23   C27   S    
C47   H29   S    
C76   C88   S    
C52   C68   S    
C40   H20   S    
C29   H14   S    
N12   Ni7   S    
C58   C97   S    
C112  N24   A    
C120  C121  S    
C85   C87   S    
C27   C34   S    
C6    C18   A    
C63   C67   S    
C105  H101  S    
C22   C31   S    
C53   H53   S    
C129  H155  S    
C1    C97   A    
C27   H11   S    
C116  H124  S    
N5    Ni5   S    
N4    N7    A    
C72   H58   S    
C20   C64   S    
C128  C129  S    
C52   H68   S    
C92   H96   S    
C134  H167  S    
C50   H38   S    
C29   C39   S    
C114  H119  S    
C30   C40   S    
C54   H50   S    
C43   H23   S    
C50   C66   S    
C132  H162  S    
C115  H122  S    
C56   C70   S    
C4    C100  A    
C93   H97   S    
N30   Ni1   S    
N15   Ni4   S    
C83   H87   S    
C86   H92   S    
C66   H46   S    
C95   C104  A    
C54   C58   S    
C124  H144  S    
C81   O5    S    
C83   C90   S    
O4    C122  S    
C119  C120  S    
C23   H115  S    
N19   N20   A    
C39   H18   S    
C95   H99   S    
C21   H113  S    
O11   H175  S    
C49   H37   S    
C5    N25   A    
C127  H149  S    
C80   N12   A    
C94   N14   A    
C29   C31   S    
C86   C92   S    
C30   C32   S    
C53   H49   S    
O8    C134  S    
C48   H36   S    
N14   Ni1   S    
C64   C72   S    
C126  H147  S    
C110  H106  S    
C1    N1    A    
C75   C88   S    
C54   C72   S    
C2    C98   A    
C12   N32   A    
C24   H116  S    
C15   C33   S    
C95   N15   A    
