data_mof_unit_14445.cif
_audit_creation_date              2012-12-10T19:35:21-0500
_audit_creation_method            fapswitch 2.2
_symmetry_space_group_name_H-M    P1
_symmetry_Int_Tables_number       1
_space_group_crystal_system       triclinic
_cell_length_a                    30.702631
_cell_length_b                    30.742271
_cell_length_c                    22.348882
_cell_angle_alpha                 89.615871
_cell_angle_beta                  89.774566
_cell_angle_gamma                 89.978885
_cell_volume                      21093.7694409

loop_
_atom_site_label
_atom_site_type_symbol
_atom_type_description
_atom_site_fract_x
_atom_site_fract_y
_atom_site_fract_z
_atom_type_partial_charge
C1    C     C_R   0.619259 0.117840 0.247529 -0.310295
C2    C     C_R   0.383038 0.880636 0.751286 -0.296483
C3    C     C_R   0.119302 0.381860 0.251387 -0.314484
C4    C     C_R   0.883336 0.619136 0.751786 -0.298479
C5    C     C_R   0.381966 0.880890 0.252442 -0.295859
C6    C     C_R   0.619530 0.116785 0.748113 -0.296731
C7    C     C_R   0.881482 0.618863 0.248893 -0.301623
C8    C     C_R   0.118402 0.383278 0.748869 -0.292759
C9    C     C_R   0.381174 0.118754 0.748811 -0.300507
C10   C     C_R   0.618357 0.882909 0.249179 -0.296460
C11   C     C_R   0.882070 0.380914 0.752553 -0.295244
C12   C     C_R   0.119443 0.616754 0.248676 -0.297237
C13   C     C_R   0.619243 0.881946 0.752050 -0.320485
C14   C     C_R   0.383282 0.118840 0.251758 -0.297061
C15   C     C_R   0.119472 0.617485 0.747422 -0.311075
C16   C     C_R   0.883247 0.380535 0.250850 -0.298559
C17   C     C_R   0.761309 0.206239 0.280033 0.270188
C18   C     C_R   0.260414 0.776518 0.697088 0.191442
C19   C     C_R   0.219315 0.247652 0.296348 0.268400
C20   C     C_R   0.787399 0.753084 0.711369 0.288459
C21   C     C_R   0.252790 0.773896 0.302185 0.274540
C22   C     C_R   0.757414 0.211113 0.708967 0.186265
C23   C     C_R   0.786783 0.756611 0.285383 0.276638
C24   C     C_R   0.216437 0.253181 0.701211 0.189498
C25   C     C_R   0.245474 0.217464 0.705351 0.277432
C26   C     C_R   0.751490 0.786042 0.290428 0.187000
C27   C     C_R   0.792834 0.240013 0.717187 0.270568
C28   C     C_R   0.224181 0.737687 0.302738 0.191197
C29   C     C_R   0.758401 0.788563 0.716997 0.273098
C30   C     C_R   0.255502 0.219461 0.301453 0.300846
C31   C     C_R   0.224455 0.747570 0.698399 0.279774
C32   C     C_R   0.790404 0.241452 0.288397 0.188117
C33   C     C_R   0.259094 0.708846 0.783958 0.271220
C34   C     C_R   0.762537 0.275372 0.195985 0.191991
C35   C     C_R   0.721074 0.749671 0.800216 0.270326
C36   C     C_R   0.288321 0.253314 0.211728 0.289995
C37   C     C_R   0.753707 0.273319 0.802932 0.277633
C38   C     C_R   0.258969 0.709543 0.211034 0.187496
C39   C     C_R   0.289234 0.258974 0.779029 0.274873
C40   C     C_R   0.718408 0.754249 0.200214 0.190436
C41   C     C_R   0.747441 0.718530 0.204146 0.277205
C42   C     C_R   0.254432 0.288972 0.785005 0.184161
C43   C     C_R   0.294060 0.738811 0.219674 0.269998
C44   C     C_R   0.725176 0.237067 0.803483 0.194972
C45   C     C_R   0.259099 0.288625 0.217318 0.273748
C46   C     C_R   0.757362 0.721524 0.804466 0.300449
C47   C     C_R   0.726297 0.246819 0.196747 0.278676
C48   C     C_R   0.287948 0.744380 0.791246 0.185960
C49   C     C_R   0.000000 0.499908 0.409821 0.852971
C50   C     C_R   0.999998 0.500092 0.590179 0.847667
C51   C     C_R   0.499946 0.000004 0.409837 0.832552
C52   C     C_R   0.500054 0.999994 0.590163 0.849772
C53   C     C_R   0.500004 0.999908 0.909821 0.846604
C54   C     C_R   0.499997 0.000092 0.090179 0.845449
C55   C     C_R   0.999945 0.500008 0.909837 0.839370
C56   C     C_R   0.000054 0.500002 0.090163 0.843624
C57   C     C_R   0.915688 0.584243 0.249904 0.934561
C58   C     C_R   0.083967 0.416243 0.749924 0.949173
C59   C     C_R   0.584237 0.084301 0.249786 0.852282
C60   C     C_R   0.415962 0.915797 0.750462 0.919467
C61   C     C_R   0.084407 0.415700 0.250136 0.855579
C62   C     C_R   0.916107 0.584235 0.750222 0.935528
C63   C     C_R   0.415681 0.915797 0.250264 0.857452
C64   C     C_R   0.584178 0.084048 0.749367 0.912639
C65   C     C_R   0.084348 0.584130 0.749562 0.875831
C66   C     C_R   0.915836 0.415937 0.250598 0.922623
C67   C     C_R   0.415568 0.084200 0.750054 0.889083
C68   C     C_R   0.584002 0.916166 0.249946 0.939763
C69   C     C_R   0.915736 0.415789 0.750357 0.859593
C70   C     C_R   0.084075 0.584117 0.249340 0.922131
C71   C     C_R   0.584367 0.915713 0.750225 0.896872
C72   C     C_R   0.416107 0.084147 0.250194 0.942678
C73   C     C_1   0.000070 0.500013 0.026741 -0.080457
C74   C     C_1   0.999926 0.500014 0.973258 -0.080466
C75   C     C_1   0.500001 0.000123 0.026743 -0.093766
C76   C     C_1   0.500004 0.999878 0.973256 -0.091509
C77   C     C_1   0.500072 0.999997 0.526741 -0.083970
C78   C     C_1   0.499927 1.000000 0.473259 -0.076417
C79   C     C_1   0.999998 0.500122 0.526744 -0.088226
C80   C     C_1   0.999998 0.499876 0.473256 -0.096167
C81   C     C_R   0.631055 0.138500 0.192490 0.332908
C82   C     C_R   0.396465 0.836207 0.757398 0.364568
C83   C     C_R   0.143330 0.370746 0.198707 0.271278
C84   C     C_R   0.838177 0.609089 0.757376 0.354155
C85   C     C_R   0.370012 0.857373 0.200291 0.347680
C86   C     C_R   0.610396 0.162189 0.753176 0.366865
C87   C     C_R   0.862618 0.633234 0.193987 0.349873
C88   C     C_R   0.162740 0.396055 0.743028 0.366969
C89   C     C_R   0.368407 0.141683 0.801591 0.354003
C90   C     C_R   0.607379 0.838010 0.248945 0.371013
C91   C     C_R   0.862507 0.367909 0.807761 0.254775
C92   C     C_R   0.163802 0.602537 0.244397 0.364787
C93   C     C_R   0.631839 0.861908 0.807280 0.310368
C94   C     C_R   0.396297 0.163338 0.251468 0.354308
C95   C     C_R   0.141381 0.630664 0.800320 0.353085
C96   C     C_R   0.837631 0.389171 0.247408 0.359754
C97   C     C_R   0.133139 0.636433 0.692094 0.286496
C98   C     C_R   0.897416 0.336330 0.255734 0.366651
C99   C     C_R   0.641509 0.868636 0.699006 0.351728
C100  C     C_R   0.338106 0.108539 0.254054 0.351923
C101  C     C_R   0.869305 0.358349 0.700038 0.366509
C102  C     C_R   0.110513 0.662305 0.251056 0.360320
C103  C     C_R   0.359671 0.130040 0.694146 0.329438
C104  C     C_R   0.662945 0.895400 0.248313 0.368035
C105  C     C_R   0.866553 0.638872 0.302561 0.361990
C106  C     C_R   0.107639 0.338438 0.753145 0.370041
C107  C     C_R   0.361501 0.868824 0.307458 0.262971
C108  C     C_R   0.663849 0.103066 0.740766 0.365200
C109  C     C_R   0.130356 0.359608 0.305671 0.347835
C110  C     C_R   0.896345 0.663670 0.748229 0.354227
C111  C     C_R   0.643181 0.129474 0.299550 0.287011
C112  C     C_R   0.337612 0.890234 0.746870 0.367330
C113  C     C_R   0.670927 0.160639 0.189503 -0.101006
C114  C     C_R   0.365773 0.803499 0.749117 -0.092904
C115  C     C_R   0.169967 0.333686 0.200199 -0.102646
C116  C     C_R   0.807847 0.642601 0.752573 -0.093062
C117  C     C_R   0.334117 0.829231 0.203403 -0.122478
C118  C     C_R   0.644913 0.191716 0.746803 -0.128822
C119  C     C_R   0.836911 0.670868 0.193578 -0.100306
C120  C     C_R   0.194492 0.364017 0.735987 -0.097542
C121  C     C_R   0.331476 0.168620 0.799295 -0.110734
C122  C     C_R   0.640619 0.807249 0.253619 -0.109689
C123  C     C_R   0.840145 0.328172 0.809855 -0.090579
C124  C     C_R   0.197069 0.632776 0.251297 -0.083736
C125  C     C_R   0.670118 0.837149 0.808706 -0.101620
C126  C     C_R   0.364809 0.195397 0.259246 -0.076611
C127  C     C_R   0.168877 0.666990 0.797519 -0.124177
C128  C     C_R   0.808471 0.354489 0.253937 -0.125403
C129  C     C_R   0.172336 0.659878 0.690848 -0.095325
C130  C     C_R   0.867268 0.303089 0.248262 -0.083919
C131  C     C_R   0.668805 0.832160 0.701751 -0.110791
C132  C     C_R   0.307815 0.142053 0.249000 -0.091949
C133  C     C_R   0.833367 0.330315 0.703210 -0.124913
C134  C     C_R   0.145328 0.691440 0.243997 -0.128453
C135  C     C_R   0.334178 0.167817 0.692015 -0.099835
C136  C     C_R   0.694753 0.863404 0.241576 -0.099728
C137  C     C_R   0.829976 0.666151 0.300239 -0.104990
C138  C     C_R   0.141308 0.308085 0.757472 -0.112918
C139  C     C_R   0.339073 0.829151 0.310276 -0.093524
C140  C     C_R   0.697077 0.133221 0.748585 -0.087300
C141  C     C_R   0.168621 0.334831 0.307329 -0.105431
C142  C     C_R   0.865185 0.695966 0.756721 -0.076533
C143  C     C_R   0.671124 0.165522 0.296280 -0.114907
C144  C     C_R   0.307683 0.856164 0.752798 -0.122758
C145  C     C_R   0.688670 0.178982 0.241138 0.098879
C146  C     C_R   0.321453 0.812913 0.750368 0.113998
C147  C     C_R   0.186337 0.317868 0.254630 0.108249
C148  C     C_R   0.820963 0.685968 0.755275 0.100774
C149  C     C_R   0.320770 0.811537 0.258497 0.100388
C150  C     C_R   0.688157 0.177532 0.748276 0.113204
C151  C     C_R   0.817089 0.685390 0.246197 0.086217
C152  C     C_R   0.184452 0.320300 0.746138 0.111689
C153  C     C_R   0.316536 0.185181 0.744536 0.093829
C154  C     C_R   0.684123 0.819488 0.247170 0.111829
C155  C     C_R   0.820897 0.311610 0.758048 0.098629
C156  C     C_R   0.188474 0.677083 0.248002 0.112254
C157  C     C_R   0.686626 0.818463 0.756328 0.102276
C158  C     C_R   0.320706 0.185343 0.254507 0.101474
C159  C     C_R   0.187880 0.679603 0.742949 0.100049
C160  C     C_R   0.822892 0.311556 0.250642 0.110968
C161  C     C_R   0.791253 0.275582 0.245384 -0.222153
C162  C     C_R   0.224304 0.712284 0.741238 -0.206259
C163  C     C_R   0.287801 0.220093 0.256029 -0.253767
C164  C     C_R   0.722416 0.785316 0.758173 -0.234529
C165  C     C_R   0.224439 0.708800 0.253542 -0.221102
C166  C     C_R   0.788920 0.274489 0.760062 -0.203541
C167  C     C_R   0.718659 0.786059 0.245909 -0.221857
C168  C     C_R   0.283392 0.220977 0.742656 -0.208222
C169  C     C_R   0.219124 0.286982 0.744073 -0.220849
C170  C     C_R   0.783414 0.720606 0.245026 -0.206241
C171  C     C_R   0.724151 0.209261 0.753221 -0.221123
C172  C     C_R   0.288963 0.774257 0.260821 -0.203175
C173  C     C_R   0.788199 0.720898 0.757143 -0.252332
C174  C     C_R   0.221911 0.284422 0.256272 -0.237520
C175  C     C_R   0.289209 0.777397 0.746533 -0.222681
C176  C     C_R   0.725882 0.210908 0.238605 -0.203363
H1    H     H_    0.684867 0.168146 0.146481 0.233133
H2    H     H_    0.376209 0.770142 0.744858 0.179914
H3    H     H_    0.182243 0.320350 0.158915 0.224681
H4    H     H_    0.773435 0.635288 0.750565 0.223101
H5    H     H_    0.319995 0.817128 0.162647 0.225164
H6    H     H_    0.638506 0.226228 0.745147 0.175326
H7    H     H_    0.828377 0.686040 0.151573 0.230499
H8    H     H_    0.227658 0.373182 0.725527 0.181307
H9    H     H_    0.317387 0.180940 0.840240 0.226851
H10   H     H_    0.632721 0.773284 0.259306 0.178452
H11   H     H_    0.833267 0.313375 0.852564 0.231417
H12   H     H_    0.230219 0.621865 0.257068 0.182602
H13   H     H_    0.684287 0.828380 0.851168 0.228909
H14   H     H_    0.374330 0.228935 0.265388 0.224638
H15   H     H_    0.179489 0.682050 0.838423 0.225694
H16   H     H_    0.773903 0.360634 0.256516 0.175225
H17   H     H_    0.187631 0.667036 0.648489 0.229282
H18   H     H_    0.878230 0.270041 0.242979 0.182415
H19   H     H_    0.679989 0.817245 0.660894 0.228225
H20   H     H_    0.273523 0.134710 0.244602 0.222576
H21   H     H_    0.818494 0.319153 0.662473 0.226054
H22   H     H_    0.139175 0.725931 0.240629 0.175430
H23   H     H_    0.324103 0.180914 0.649305 0.228511
H24   H     H_    0.728342 0.872570 0.234975 0.180773
H25   H     H_    0.814215 0.676062 0.341170 0.229238
H26   H     H_    0.133845 0.274341 0.766480 0.177535
H27   H     H_    0.331524 0.815142 0.353278 0.231636
H28   H     H_    0.730386 0.122373 0.752211 0.181384
H29   H     H_    0.181744 0.324535 0.349820 0.228637
H30   H     H_    0.874937 0.729613 0.760716 0.224929
H31   H     H_    0.683348 0.179570 0.336951 0.224360
H32   H     H_    0.273235 0.863161 0.755168 0.175956
O1    O     O_3   0.000000 0.500000 0.250000 -0.561229
O2    O     O_3   0.000000 0.500000 0.750000 -0.566650
O3    O     O_3   0.500000 0.000000 0.250000 -0.566110
O4    O     O_3   0.500000 0.000000 0.750000 -0.564190
O5    O     O_R   0.000000 0.463680 0.381910 -0.598798
O6    O     O_R   0.000000 0.536320 0.618090 -0.589103
O7    O     O_R   0.463680 0.000000 0.381910 -0.595454
O8    O     O_R   0.536320 0.000000 0.618090 -0.598567
O9    O     O_R   0.000000 0.536320 0.381910 -0.596368
O10   O     O_R   0.000000 0.463680 0.618090 -0.600444
O11   O     O_R   0.536320 0.000000 0.381910 -0.594741
O12   O     O_R   0.463680 0.000000 0.618090 -0.588838
O13   O     O_R   0.500000 0.963680 0.881910 -0.587587
O14   O     O_R   0.500000 0.036320 0.118090 -0.602700
O15   O     O_R   0.963680 0.500000 0.881910 -0.596630
O16   O     O_R   0.036320 0.500000 0.118090 -0.596618
O17   O     O_R   0.500000 0.036320 0.881910 -0.601507
O18   O     O_R   0.500000 0.963680 0.118090 -0.590525
O19   O     O_R   0.036320 0.500000 0.881910 -0.594003
O20   O     O_R   0.963680 0.500000 0.118090 -0.596134
O21   O     O_R   0.948950 0.587490 0.284490 -0.592646
O22   O     O_R   0.051050 0.412510 0.715510 -0.592659
O23   O     O_R   0.587490 0.051050 0.284490 -0.569517
O24   O     O_R   0.412510 0.948950 0.715510 -0.600005
O25   O     O_R   0.051050 0.412510 0.284490 -0.564108
O26   O     O_R   0.948950 0.587490 0.715510 -0.580597
O27   O     O_R   0.412510 0.948950 0.284490 -0.587901
O28   O     O_R   0.587490 0.051050 0.715510 -0.583407
O29   O     O_R   0.051050 0.587490 0.715510 -0.571486
O30   O     O_R   0.948950 0.412510 0.284490 -0.581942
O31   O     O_R   0.412510 0.051050 0.715510 -0.584734
O32   O     O_R   0.587490 0.948950 0.284490 -0.583861
O33   O     O_R   0.948950 0.412510 0.715510 -0.564299
O34   O     O_R   0.051050 0.587490 0.284490 -0.606697
O35   O     O_R   0.587490 0.948950 0.715510 -0.572023
O36   O     O_R   0.412510 0.051050 0.284490 -0.589923
O37   O     O_R   0.448950 0.087490 0.784490 -0.587715
O38   O     O_R   0.551050 0.912510 0.215510 -0.586284
O39   O     O_R   0.087490 0.551050 0.784490 -0.562517
O40   O     O_R   0.912510 0.448950 0.215510 -0.610669
O41   O     O_R   0.551050 0.912510 0.784490 -0.571642
O42   O     O_R   0.448950 0.087490 0.215510 -0.582099
O43   O     O_R   0.912510 0.448950 0.784490 -0.591871
O44   O     O_R   0.087490 0.551050 0.215510 -0.580556
O45   O     O_R   0.551050 0.087490 0.215510 -0.565262
O46   O     O_R   0.448950 0.912510 0.784490 -0.583987
O47   O     O_R   0.912510 0.551050 0.215510 -0.587410
O48   O     O_R   0.087490 0.448950 0.784490 -0.587536
O49   O     O_R   0.448950 0.912510 0.215510 -0.561785
O50   O     O_R   0.551050 0.087490 0.784490 -0.606519
O51   O     O_R   0.087490 0.448950 0.215510 -0.577491
O52   O     O_R   0.912510 0.551050 0.784490 -0.589392
Zn1   Zn    Zn3+2 0.948160 0.500000 0.200440 1.093144
Zn2   Zn    Zn3+2 0.051840 0.500000 0.799560 1.115894
Zn3   Zn    Zn3+2 0.500000 0.051840 0.200440 1.109514
Zn4   Zn    Zn3+2 0.500000 0.948160 0.799560 1.117701
Zn5   Zn    Zn3+2 0.051840 0.500000 0.200440 1.111666
Zn6   Zn    Zn3+2 0.948160 0.500000 0.799560 1.099468
Zn7   Zn    Zn3+2 0.500000 0.948160 0.200440 1.113571
Zn8   Zn    Zn3+2 0.500000 0.051840 0.799560 1.087540
Zn9   Zn    Zn3+2 0.448160 0.000000 0.700440 1.103941
Zn10  Zn    Zn3+2 0.551840 0.000000 0.299560 1.110645
Zn11  Zn    Zn3+2 0.000000 0.551840 0.700440 1.120634
Zn12  Zn    Zn3+2 0.000000 0.448160 0.299560 1.112400
Zn13  Zn    Zn3+2 0.551840 0.000000 0.700440 1.111767
Zn14  Zn    Zn3+2 0.448160 0.000000 0.299560 1.099451
Zn15  Zn    Zn3+2 0.000000 0.448160 0.700440 1.104888
Zn16  Zn    Zn3+2 1.000000 0.551840 0.299560 1.098054
S1    S     S_3+6 0.771026 0.155533 0.318717 0.117915
O53   O     O_2   0.750712 0.117922 0.286689 -0.229086
O54   O     O_2   0.818995 0.146640 0.323306 -0.210358
O55   O     O_3   0.750076 0.158384 0.388323 -0.463286
H33   H     H_    0.766266 0.136667 0.412434 0.437304
S2    S     S_3+6 0.271041 0.811611 0.633315 0.149846
O56   O     O_2   0.319043 0.819929 0.626594 -0.242904
O57   O     O_2   0.255791 0.791305 0.576162 -0.149672
O58   O     O_3   0.245759 0.859933 0.641944 -0.410652
H34   H     H_    0.226495 0.856670 0.677369 0.358342
S3    S     S_3+6 0.170389 0.234748 0.337559 0.129549
O59   O     O_2   0.130439 0.252126 0.307207 -0.226561
O60   O     O_2   0.164991 0.186313 0.343321 -0.187844
O61   O     O_3   0.174035 0.256182 0.406596 -0.467654
H35   H     H_    0.157987 0.236084 0.433582 0.432967
S4    S     S_3+6 0.823370 0.748059 0.647701 0.125842
O62   O     O_2   0.831192 0.701145 0.632674 -0.239517
O63   O     O_2   0.804853 0.769550 0.592855 -0.188622
O64   O     O_3   0.871541 0.771329 0.664540 -0.482037
H36   H     H_    0.878558 0.791217 0.630736 0.424357
S5    S     S_3+6 0.241988 0.818381 0.352427 0.118747
O65   O     O_2   0.256103 0.861150 0.326118 -0.213137
O66   O     O_2   0.194315 0.822478 0.366471 -0.208829
O67   O     O_3   0.268971 0.809030 0.416867 -0.477916
H37   H     H_    0.249400 0.818663 0.449521 0.442033
S6    S     S_3+6 0.754487 0.176239 0.644316 0.155703
O68   O     O_2   0.707975 0.167738 0.627423 -0.231147
O69   O     O_2   0.776366 0.196265 0.590699 -0.130635
O70   O     O_3   0.778699 0.128167 0.659355 -0.412291
H38   H     H_    0.792649 0.131333 0.698997 0.356861
S7    S     S_3+6 0.835685 0.765801 0.328066 0.115143
O71   O     O_2   0.875000 0.746582 0.298124 -0.229831
O72   O     O_2   0.844123 0.813607 0.335295 -0.210614
O73   O     O_3   0.829689 0.742998 0.396407 -0.469023
H39   H     H_    0.847159 0.761008 0.423961 0.431468
S8    S     S_3+6 0.176284 0.256913 0.642396 0.149977
O74   O     O_2   0.166579 0.303592 0.627318 -0.236386
O75   O     O_2   0.192103 0.235670 0.586070 -0.153426
O76   O     O_3   0.129437 0.232847 0.664213 -0.413258
H40   H     H_    0.135966 0.217597 0.702313 0.357493
S9    S     S_3+6 0.233584 0.168276 0.664861 0.114661
O77   O     O_2   0.252352 0.128783 0.694997 -0.225705
O78   O     O_2   0.185347 0.161035 0.660024 -0.212867
O79   O     O_3   0.254762 0.172924 0.595392 -0.471627
H41   H     H_    0.234180 0.157866 0.568538 0.430145
S10   S     S_3+6 0.747461 0.823436 0.352197 0.152029
O80   O     O_2   0.700708 0.833038 0.367038 -0.235266
O81   O     O_2   0.768021 0.805073 0.407670 -0.141599
O82   O     O_3   0.772374 0.870668 0.334444 -0.414723
H42   H     H_    0.787431 0.865642 0.295821 0.356743
S11   S     S_3+6 0.842829 0.231214 0.676321 0.117269
O83   O     O_2   0.881131 0.250721 0.707911 -0.230945
O84   O     O_2   0.851641 0.183449 0.669456 -0.209665
O85   O     O_3   0.838662 0.253777 0.607690 -0.463108
H43   H     H_    0.860112 0.238366 0.582309 0.436871
S12   S     S_3+6 0.188432 0.726535 0.365527 0.146462
O86   O     O_2   0.180908 0.678467 0.372108 -0.240551
O87   O     O_2   0.207783 0.742119 0.423130 -0.162665
O88   O     O_3   0.139670 0.750767 0.355644 -0.407543
H44   H     H_    0.143011 0.770327 0.320558 0.360029
S13   S     S_3+6 0.769158 0.837864 0.675391 0.123300
O89   O     O_2   0.750074 0.876924 0.705771 -0.232288
O90   O     O_2   0.817405 0.845136 0.669591 -0.210272
O91   O     O_3   0.747732 0.833601 0.606324 -0.464627
H45   H     H_    0.764035 0.854513 0.580844 0.431923
S14   S     S_3+6 0.261337 0.182410 0.363864 0.117499
O92   O     O_2   0.308510 0.174078 0.377350 -0.255291
O93   O     O_2   0.240632 0.200241 0.419520 -0.198930
O94   O     O_3   0.237533 0.134828 0.346376 -0.480512
H46   H     H_    0.229289 0.121199 0.385045 0.423490
S15   S     S_3+6 0.180058 0.756637 0.646923 0.114500
O95   O     O_2   0.137374 0.741188 0.672174 -0.230798
O96   O     O_2   0.174733 0.804048 0.632065 -0.201299
O97   O     O_3   0.191172 0.729852 0.583033 -0.475452
H47   H     H_    0.171284 0.742202 0.552565 0.440503
S16   S     S_3+6 0.826874 0.243063 0.351571 0.154522
O98   O     O_2   0.835584 0.289135 0.369981 -0.232859
O99   O     O_2   0.808279 0.219840 0.405073 -0.130825
O100  O     O_3   0.874716 0.219546 0.333454 -0.414274
H48   H     H_    0.870501 0.206315 0.293587 0.356988
S17   S     S_3+6 0.268224 0.659380 0.826107 0.118080
O101  O     O_2   0.249058 0.620603 0.795346 -0.229323
O102  O     O_2   0.316074 0.650921 0.833672 -0.207659
O103  O     O_3   0.245414 0.664293 0.894449 -0.464949
H49   H     H_    0.260659 0.643033 0.920450 0.437336
S18   S     S_3+6 0.774065 0.310384 0.132633 0.147764
O104  O     O_2   0.822201 0.318001 0.126604 -0.241695
O105  O     O_2   0.758838 0.290244 0.075425 -0.161255
O106  O     O_3   0.749602 0.359092 0.140785 -0.405196
H50   H     H_    0.730241 0.356257 0.176105 0.359417
S19   S     S_3+6 0.673510 0.738149 0.845104 0.131165
O107  O     O_2   0.632608 0.754495 0.816119 -0.227065
O108  O     O_2   0.668326 0.689957 0.854336 -0.181850
O109  O     O_3   0.679308 0.761937 0.912339 -0.469389
H51   H     H_    0.663045 0.743442 0.941183 0.435143
S20   S     S_3+6 0.326376 0.249862 0.150124 0.125967
O110  O     O_2   0.335149 0.203368 0.133712 -0.243551
O111  O     O_2   0.309462 0.272329 0.095068 -0.183796
O112  O     O_3   0.373687 0.273049 0.170840 -0.483398
H52   H     H_    0.382569 0.292292 0.137275 0.424854
S21   S     S_3+6 0.743883 0.316828 0.855077 0.117201
O113  O     O_2   0.757590 0.360069 0.829875 -0.215437
O114  O     O_2   0.696469 0.320586 0.870880 -0.208943
O115  O     O_3   0.771909 0.306154 0.918246 -0.478233
H53   H     H_    0.755019 0.319463 0.951217 0.441940
S22   S     S_3+6 0.258159 0.672657 0.148300 0.154737
O116  O     O_2   0.212269 0.663300 0.129204 -0.232462
O117  O     O_2   0.281539 0.691100 0.094790 -0.131422
O118  O     O_3   0.282183 0.625262 0.167644 -0.414258
H54   H     H_    0.294856 0.629750 0.207863 0.356320
S23   S     S_3+6 0.340576 0.269884 0.815527 0.116767
O119  O     O_2   0.377917 0.248292 0.783797 -0.231850
O120  O     O_2   0.350018 0.317877 0.816600 -0.209574
O121  O     O_3   0.337953 0.251326 0.886808 -0.465035
H55   H     H_    0.358779 0.269155 0.909887 0.430663
S24   S     S_3+6 0.681252 0.760371 0.138260 0.148729
O122  O     O_2   0.672137 0.807561 0.125840 -0.235787
O123  O     O_2   0.699797 0.741340 0.081998 -0.154211
O124  O     O_3   0.633605 0.735504 0.154004 -0.413600
H56   H     H_    0.638323 0.719024 0.191652 0.357859
S25   S     S_3+6 0.737735 0.670968 0.159160 0.115425
O125  O     O_2   0.755426 0.630486 0.188022 -0.223919
O126  O     O_2   0.689854 0.663810 0.149840 -0.212462
O127  O     O_3   0.761845 0.678203 0.091917 -0.469345
H57   H     H_    0.742944 0.663444 0.062537 0.430000
S26   S     S_3+6 0.254294 0.329572 0.843486 0.155782
O128  O     O_2   0.208565 0.340453 0.862420 -0.231788
O129  O     O_2   0.277799 0.313852 0.898391 -0.136769
O130  O     O_3   0.278759 0.375492 0.818515 -0.413575
H58   H     H_    0.291353 0.368501 0.778740 0.355571
S27   S     S_3+6 0.345062 0.729464 0.181425 0.117549
O131  O     O_2   0.382447 0.750000 0.213848 -0.233641
O132  O     O_2   0.354409 0.681629 0.177007 -0.208382
O133  O     O_3   0.342303 0.750437 0.111689 -0.461355
H59   H     H_    0.364086 0.734316 0.087699 0.436939
S28   S     S_3+6 0.691202 0.224459 0.867529 0.143710
O134  O     O_2   0.684211 0.176223 0.872676 -0.245812
O135  O     O_2   0.711969 0.239110 0.924650 -0.158992
O136  O     O_3   0.642031 0.248439 0.861009 -0.413356
H60   H     H_    0.644297 0.268703 0.826531 0.360967
S29   S     S_3+6 0.271053 0.338711 0.178407 0.123699
O137  O     O_2   0.250860 0.377181 0.208833 -0.229988
O138  O     O_2   0.319402 0.346137 0.175910 -0.205602
O139  O     O_3   0.252038 0.335586 0.107966 -0.468726
H61   H     H_    0.268008 0.358097 0.084814 0.432061
S30   S     S_3+6 0.765000 0.685939 0.868010 0.116533
O140  O     O_2   0.812509 0.677668 0.879169 -0.256901
O141  O     O_2   0.745985 0.705105 0.923958 -0.196786
O142  O     O_3   0.740398 0.637906 0.854161 -0.476726
H62   H     H_    0.735354 0.624459 0.894561 0.420727
S31   S     S_3+6 0.681941 0.257340 0.145994 0.116476
O143  O     O_2   0.639044 0.243309 0.171991 -0.218412
O144  O     O_2   0.677939 0.304892 0.131298 -0.208036
O145  O     O_3   0.691753 0.230244 0.081978 -0.475960
H63   H     H_    0.677538 0.247294 0.049779 0.440996
S32   S     S_3+6 0.323437 0.747894 0.855498 0.155819
O146  O     O_2   0.331879 0.794523 0.871506 -0.233578
O147  O     O_2   0.303911 0.726345 0.909756 -0.130254
O148  O     O_3   0.371561 0.723788 0.840227 -0.411323
H64   H     H_    0.367984 0.709270 0.801068 0.356670
S33   S     S_3+6 0.593588 0.149598 0.133508 0.130954
O149  O     O_2   0.558725 0.178938 0.158083 -0.169212
O150  O     O_2   0.616257 0.173325 0.083238 -0.214133
O151  O     O_3   0.570264 0.104549 0.105625 -0.513399
H65   H     H_    0.573305 0.106923 0.061411 0.386685
S34   S     S_3+6 0.449390 0.818952 0.780345 0.136728
O152  O     O_2   0.456558 0.834037 0.843601 -0.174574
O153  O     O_2   0.453467 0.770186 0.779253 -0.201131
O154  O     O_3   0.487758 0.840406 0.734988 -0.549998
H66   H     H_    0.515103 0.837254 0.757967 0.406055
S35   S     S_3+6 0.150423 0.406106 0.135651 0.138445
O155  O     O_2   0.178064 0.443629 0.155522 -0.150874
O156  O     O_2   0.174046 0.383267 0.085917 -0.202710
O157  O     O_3   0.102984 0.424672 0.107556 -0.481901
H67   H     H_    0.085586 0.398577 0.098776 0.340164
S36   S     S_3+6 0.817657 0.556549 0.775568 0.130101
O158  O     O_2   0.827680 0.547476 0.840297 -0.189724
O159  O     O_2   0.769143 0.554784 0.767194 -0.196184
O160  O     O_3   0.840770 0.518092 0.732863 -0.545641
H68   H     H_    0.841219 0.491768 0.758601 0.409698
S37   S     S_3+6 0.402922 0.854190 0.134932 0.124747
O161  O     O_2   0.442659 0.827937 0.150536 -0.152619
O162  O     O_2   0.379048 0.831203 0.085813 -0.229252
O163  O     O_3   0.418660 0.903461 0.109850 -0.522212
H69   H     H_    0.404906 0.906869 0.069618 0.378969
S38   S     S_3+6 0.558423 0.184168 0.773368 0.135603
O164  O     O_2   0.551190 0.175684 0.839244 -0.184418
O165  O     O_2   0.557689 0.232562 0.762950 -0.201674
O166  O     O_3   0.517658 0.162118 0.733269 -0.538078
H70   H     H_    0.495543 0.153081 0.763251 0.406530
S39   S     S_3+6 0.862279 0.601713 0.127841 0.117880
O167  O     O_2   0.835394 0.561729 0.139826 -0.185559
O168  O     O_2   0.841489 0.626636 0.077356 -0.225602
O169  O     O_3   0.912981 0.586996 0.107543 -0.541778
H71   H     H_    0.915685 0.595451 0.064363 0.383286
S40   S     S_3+6 0.180936 0.450857 0.748475 0.120761
O170  O     O_2   0.178288 0.463679 0.813318 -0.167209
O171  O     O_2   0.227384 0.455134 0.727635 -0.216115
O172  O     O_3   0.149462 0.484429 0.707360 -0.578224
H72   H     H_    0.154080 0.513514 0.725124 0.386033
S41   S     S_3+6 0.400797 0.145856 0.867312 0.117192
O173  O     O_2   0.438798 0.174995 0.852864 -0.167811
O174  O     O_2   0.374916 0.166679 0.916694 -0.235700
O175  O     O_3   0.419305 0.097467 0.892165 -0.528576
H73   H     H_    0.411738 0.096097 0.935269 0.385078
S42   S     S_3+6 0.553629 0.818155 0.238542 0.125521
O176  O     O_2   0.541764 0.824960 0.173943 -0.167004
O177  O     O_2   0.551183 0.770390 0.252787 -0.215023
O178  O     O_3   0.517769 0.844725 0.282017 -0.570294
H74   H     H_    0.489237 0.840192 0.262466 0.395343
S43   S     S_3+6 0.852913 0.403873 0.868722 0.142541
O179  O     O_2   0.822094 0.438541 0.846965 -0.160728
O180  O     O_2   0.831424 0.380176 0.919925 -0.184474
O181  O     O_3   0.898267 0.427681 0.894834 -0.479235
H75   H     H_    0.917675 0.403524 0.906884 0.339382
S44   S     S_3+6 0.180223 0.548444 0.227523 0.135386
O182  O     O_2   0.167734 0.539035 0.163886 -0.168485
O183  O     O_2   0.228700 0.543126 0.233359 -0.204430
O184  O     O_3   0.155542 0.512757 0.273695 -0.555173
H76   H     H_    0.159826 0.484224 0.254308 0.402217
S45   S     S_3+6 0.597491 0.858204 0.871767 0.129241
O185  O     O_2   0.559346 0.829830 0.856184 -0.159692
O186  O     O_2   0.621095 0.837325 0.923477 -0.215004
O187  O     O_3   0.579043 0.907225 0.893578 -0.520794
H77   H     H_    0.597509 0.915726 0.927776 0.369481
S46   S     S_3+6 0.450367 0.181210 0.236935 0.126105
O188  O     O_2   0.459649 0.174723 0.171492 -0.174000
O189  O     O_2   0.455223 0.228688 0.251098 -0.207382
O190  O     O_3   0.486666 0.152851 0.277485 -0.571362
H78   H     H_    0.514989 0.158951 0.257812 0.399537
S47   S     S_3+6 0.143866 0.598305 0.866260 0.124507
O191  O     O_2   0.170056 0.558342 0.851856 -0.145518
O192  O     O_2   0.166460 0.622407 0.915500 -0.234721
O193  O     O_3   0.094030 0.583253 0.890094 -0.530112
H79   H     H_    0.092113 0.593133 0.932645 0.381445
S48   S     S_3+6 0.813938 0.439894 0.226355 0.127992
O194  O     O_2   0.813405 0.441704 0.159008 -0.175947
O195  O     O_2   0.767689 0.442072 0.248540 -0.210889
O196  O     O_3   0.840558 0.483524 0.252599 -0.527338
H80   H     H_    0.846958 0.501363 0.216514 0.418594
S49   S     S_3+6 0.098938 0.641361 0.627940 0.133018
O197  O     O_2   0.061364 0.670424 0.644487 -0.154730
O198  O     O_2   0.123169 0.662419 0.576822 -0.213013
O199  O     O_3   0.079419 0.593251 0.604410 -0.508148
H81   H     H_    0.103052 0.580226 0.580145 0.359166
S50   S     S_3+6 0.951204 0.319891 0.274552 0.133136
O200  O     O_2   0.959862 0.332975 0.338139 -0.173520
O201  O     O_2   0.956316 0.271403 0.269986 -0.203813
O202  O     O_3   0.987595 0.343889 0.228798 -0.564999
H82   H     H_    0.015818 0.340202 0.249416 0.401417
S51   S     S_3+6 0.643819 0.899999 0.631844 0.118010
O203  O     O_2   0.672367 0.938774 0.643246 -0.172789
O204  O     O_2   0.663977 0.873899 0.582240 -0.229281
O205  O     O_3   0.594392 0.917046 0.609543 -0.532684
H83   H     H_    0.594280 0.913857 0.565471 0.389328
S52   S     S_3+6 0.317493 0.055529 0.268845 0.128730
O206  O     O_2   0.324854 0.045517 0.333994 -0.184225
O207  O     O_2   0.269455 0.053462 0.256522 -0.197740
O208  O     O_3   0.342851 0.017982 0.226991 -0.553679
H84   H     H_    0.342713 0.991353 0.252148 0.406802
S53   S     S_3+6 0.901191 0.356531 0.633708 0.120847
O209  O     O_2   0.941390 0.330376 0.647238 -0.154934
O210  O     O_2   0.876637 0.334354 0.584510 -0.234417
O211  O     O_3   0.915746 0.406564 0.610106 -0.534917
H85   H     H_    0.908784 0.407456 0.566684 0.384634
S54   S     S_3+6 0.059123 0.685622 0.271832 0.131228
O212  O     O_2   0.055340 0.682876 0.339110 -0.175856
O213  O     O_2   0.057774 0.732798 0.253636 -0.208211
O214  O     O_3   0.015973 0.660853 0.240380 -0.534976
H86   H     H_    0.996104 0.654285 0.274370 0.411258
S55   S     S_3+6 0.356118 0.094923 0.631090 0.128870
O215  O     O_2   0.332750 0.054143 0.650369 -0.170504
O216  O     O_2   0.330493 0.115862 0.581224 -0.217611
O217  O     O_3   0.406187 0.082089 0.605142 -0.529105
H87   H     H_    0.409300 0.097648 0.566305 0.377172
S56   S     S_3+6 0.681236 0.949526 0.259565 0.127096
O218  O     O_2   0.674385 0.960478 0.324384 -0.165388
O219  O     O_2   0.728889 0.953619 0.245069 -0.215466
O220  O     O_3   0.653263 0.984890 0.216821 -0.565258
H88   H     H_    0.659334 0.013695 0.234556 0.396393
S57   S     S_3+6 0.895508 0.637201 0.371164 0.116367
O221  O     O_2   0.936024 0.664222 0.363691 -0.182861
O222  O     O_2   0.868458 0.656596 0.420484 -0.228048
O223  O     O_3   0.909164 0.585981 0.390669 -0.543851
H89   H     H_    0.905509 0.584435 0.435111 0.387184
S58   S     S_3+6 0.053447 0.318141 0.748388 0.121404
O224  O     O_2   0.039742 0.320691 0.683806 -0.172845
O225  O     O_2   0.051295 0.271521 0.768865 -0.214101
O226  O     O_3   0.018934 0.347807 0.790297 -0.575669
H90   H     H_    0.990452 0.345390 0.769885 0.387817
S59   S     S_3+6 0.351541 0.905682 0.367233 0.142767
O227  O     O_2   0.322492 0.941188 0.343575 -0.159898
O228  O     O_2   0.328097 0.883255 0.417899 -0.181057
O229  O     O_3   0.397070 0.928232 0.394645 -0.483583
H91   H     H_    0.413563 0.903834 0.412549 0.344829
S60   S     S_3+6 0.680456 0.050183 0.717639 0.136297
O230  O     O_2   0.664386 0.042915 0.654976 -0.177204
O231  O     O_2   0.729240 0.045983 0.717444 -0.198915
O232  O     O_3   0.659634 0.011964 0.763526 -0.553699
H92   H     H_    0.661765 0.984713 0.740377 0.405796
S61   S     S_3+6 0.094342 0.353127 0.367825 0.125935
O233  O     O_2   0.056722 0.325530 0.348014 -0.167597
O234  O     O_2   0.116912 0.329760 0.418258 -0.221177
O235  O     O_3   0.075495 0.400927 0.393511 -0.523113
H93   H     H_    0.079411 0.399908 0.437500 0.386147
S62   S     S_3+6 0.949661 0.681432 0.728336 0.129658
O236  O     O_2   0.956770 0.671890 0.663101 -0.174883
O237  O     O_2   0.954355 0.729583 0.737721 -0.206613
O238  O     O_3   0.987790 0.655625 0.768933 -0.555965
H94   H     H_    0.015484 0.662216 0.747860 0.403622
S63   S     S_3+6 0.648162 0.095765 0.364225 0.135532
O239  O     O_2   0.675373 0.057185 0.346772 -0.141339
O240  O     O_2   0.671204 0.119448 0.413376 -0.205751
O241  O     O_3   0.600190 0.078070 0.391467 -0.490835
H95   H     H_    0.584508 0.104591 0.403887 0.345639
S64   S     S_3+6 0.316091 0.942750 0.729000 0.135147
O242  O     O_2   0.323882 0.951108 0.663025 -0.172359
O243  O     O_2   0.267745 0.944571 0.740878 -0.204384
O244  O     O_3   0.340206 0.981707 0.770306 -0.546996
H96   H     H_    0.346198 0.005508 0.741221 0.406685

loop_
_geom_bond_atom_site_label_1
_geom_bond_atom_site_label_2
_ccdc_geom_bond_type
O2    Zn2   S    
O9    Zn16  S    
C113  H1    S    
S31   O143  D    
S17   O101  D    
C62   O26   A    
O48   Zn2   S    
O22   Zn15  S    
C149  C172  S    
C90   C122  A    
O142  H62   S    
C103  S55   S    
O184  H76   S    
S59   O227  D    
S23   O121  S    
O175  H73   S    
O14   Zn3   S    
C25   S9    S    
S57   O221  D    
O67   H37   S    
S53   O211  S    
C159  C162  S    
C94   S46   S    
S2    O56   D    
C151  C170  S    
O139  H61   S    
O118  H54   S    
C31   S15   S    
S25   O126  D    
C135  H23   S    
S54   O212  D    
S38   O165  D    
S47   O192  D    
S10   O82   S    
C53   O13   A    
C28   S12   S    
C49   O5    A    
C43   S27   S    
S20   O110  D    
S60   O231  D    
O205  H83   S    
O238  H94   S    
S27   O133  S    
S21   O115  S    
C53   O17   A    
S46   O188  D    
C55   C74   S    
C87   S39   S    
S56   O220  S    
O235  H93   S    
S3    O60   D    
C58   O48   A    
S62   O236  D    
O17   Zn8   S    
C47   C176  A    
C48   C175  A    
C34   C161  A    
C126  C158  A    
O2    Zn6   S    
C50   C79   S    
C15   C97   A    
C99   S51   S    
S13   O89   D    
C118  H6    S    
S46   O189  D    
C52   O12   A    
O85   H43   S    
O31   Zn9   S    
O91   H45   S    
S24   O123  D    
C68   O32   A    
S49   O198  D    
S14   O92   D    
C66   O40   A    
C68   O38   A    
S33   O149  D    
C49   O9    A    
C48   S32   S    
S9    O79   S    
C75   C76   T    
S35   O156  D    
C142  C148  A    
O100  H48   S    
C4    C84   A    
C9    C103  A    
S61   O235  S    
S16   O98   D    
C86   S38   S    
S62   O238  S    
C60   O46   A    
S58   O224  D    
C11   C101  A    
O55   H33   S    
C85   C117  A    
C40   S24   S    
C114  C146  A    
C82   S34   S    
S40   O172  S    
C83   S35   S    
O223  H89   S    
S39   O168  D    
C21   C28   A    
S17   O103  S    
S42   O177  D    
C22   C27   A    
C116  H4    S    
C153  C168  S    
C3    C83   A    
S37   O163  S    
C154  C167  S    
O181  H75   S    
O52   Zn6   S    
C52   C77   S    
C21   C172  A    
O172  H72   S    
S13   O91   S    
O20   Zn1   S    
S11   O84   D    
C5    C107  A    
S33   O151  S    
O127  H57   S    
C133  H21   S    
C56   C73   S    
C131  H19   S    
C35   C164  A    
S14   O94   S    
O112  H52   S    
S20   O112  S    
C14   C100  A    
C101  C133  A    
S42   O178  S    
C49   C80   S    
C37   C44   A    
S4    O63   D    
C51   C78   S    
C38   C43   A    
S41   O174  D    
O106  H50   S    
C138  H26   S    
C16   C98   A    
S64   O244  S    
S19   O109  S    
S14   O93   D    
C142  H30   S    
O154  H66   S    
C136  H24   S    
C141  C147  A    
C71   O35   A    
O88   H44   S    
C11   C91   A    
S52   O206  D    
O4    Zn8   S    
S59   O229  S    
C17   C32   A    
O24   Zn9   S    
C117  C149  A    
C18   C31   A    
C128  H16   S    
O130  H58   S    
C19   C30   A    
C71   O41   A    
O19   Zn2   S    
O115  H53   S    
C42   S26   S    
S51   O205  S    
O21   Zn16  S    
C109  S61   S    
O10   Zn15  S    
O7    Zn14  S    
C4    C62   S    
C59   O45   A    
C61   O25   A    
O49   Zn7   S    
O13   Zn4   S    
C59   O23   A    
O109  H51   S    
C147  C174  S    
C105  S57   S    
C29   S13   S    
S44   O182  D    
S31   O144  D    
C96   C128  A    
C89   C121  A    
C21   S5    S    
S28   O134  D    
C22   S6    S    
O28   Zn13  S    
C140  H28   S    
O217  H87   S    
C122  H10   S    
S18   O104  D    
C6    C64   S    
S16   O100  S    
C35   S19   S    
S8    O74   D    
C131  C157  A    
C55   O19   A    
C126  H14   S    
C46   S30   S    
S32   O148  S    
O136  H60   S    
O15   Zn6   S    
O166  H70   S    
C36   C163  A    
S45   O186  D    
C104  S56   S    
C101  S53   S    
O18   Zn7   S    
C5    C85   A    
O45   Zn3   S    
S56   O219  D    
O46   Zn4   S    
C84   C116  A    
C91   C123  A    
O202  H82   S    
C66   O30   A    
O36   Zn14  S    
S5    O66   D    
C1    C59   S    
O97   H47   S    
O103  H49   S    
S29   O138  D    
O214  H86   S    
C93   C125  A    
C25   C168  A    
S6    O69   D    
C26   C167  A    
C16   C96   A    
C20   S4    S    
C83   C115  A    
S55   O217  S    
S40   O170  D    
C124  H12   S    
C69   O43   A    
O169  H71   S    
C51   O11   A    
C127  H15   S    
S16   O99   D    
C8    C88   A    
C26   S10   S    
C13   C99   A    
C9    C67   S    
C87   C119  A    
O178  H74   S    
C58   O22   A    
O244  H96   S    
S52   O208  S    
C81   S33   S    
C10   C68   S    
O3    Zn7   S    
C119  H7    S    
C120  H8    S    
C157  C164  S    
O133  H59   S    
C140  C150  A    
C158  C163  S    
C100  S52   S    
O70   H38   S    
S30   O140  D    
C24   S8    S    
O196  H80   S    
C70   O44   A    
S26   O128  D    
O27   Zn14  S    
S37   O161  D    
C45   S29   S    
C40   C41   A    
C104  C136  A    
S54   O214  S    
C14   C72   S    
C12   C92   A    
S28   O136  S    
C107  S59   S    
S36   O158  D    
S23   O120  D    
O1    Zn1   S    
S53   O210  D    
S2    O57   D    
C6    C86   A    
S8    O76   S    
S7    O73   S    
S1    O54   D    
S25   O125  D    
S15   O97   S    
S54   O213  D    
C67   O37   A    
S38   O166  S    
C69   O33   A    
C137  H25   S    
C67   O31   A    
S20   O111  D    
S27   O132  D    
C107  C139  A    
S63   O241  S    
C141  H29   S    
S21   O114  D    
S50   O200  D    
C105  C137  A    
C54   C75   S    
C34   S18   S    
O76   H40   S    
S30   O142  S    
S1    O55   S    
S43   O179  D    
C109  C141  A    
S34   O152  D    
C92   S44   S    
C17   S1    S    
C41   S25   S    
S22   O116  D    
C127  C159  A    
C38   C165  A    
O3    Zn14  S    
C73   C74   T    
C72   O36   A    
C23   S7    S    
S55   O215  D    
S12   O88   S    
O25   Zn12  S    
S10   O81   D    
O26   Zn11  S    
C123  C155  A    
C77   C78   T    
O1    Zn5   S    
C2    C112  A    
C121  C153  A    
O211  H85   S    
C32   S16   S    
C64   O28   A    
C63   O49   A    
C15   C95   A    
S49   O197  D    
C125  C157  A    
C94   C126  A    
C1    C81   A    
C15   C65   S    
O23   Zn10  S    
C115  C147  A    
C52   O8    A    
C27   S11   S    
O151  H65   S    
C5    C63   S    
C130  C160  A    
O61   H35   S    
C23   C26   A    
C113  C145  A    
C39   C168  A    
C118  C150  A    
C40   C167  A    
C12   C70   S    
C88   S40   S    
C8    C58   S    
O1    Zn12  S    
C134  C156  A    
S61   O234  D    
S48   O195  D    
S58   O225  D    
O8    Zn13  S    
C7    C105  A    
C88   C120  A    
O35   Zn13  S    
C22   C171  A    
S32   O147  D    
S10   O80   D    
C31   C162  A    
O50   Zn8   S    
O160  H68   S    
S17   O102  D    
S37   O162  D    
C29   C164  A    
C2    C60   S    
C30   C163  A    
C98   S50   S    
S36   O160  S    
S13   O90   D    
S9    O78   D    
C39   C42   A    
S33   O150  D    
S58   O226  S    
S7    O71   D    
C144  C146  A    
S25   O127  S    
C9    C89   A    
O64   H36   S    
C116  C148  A    
C56   O20   A    
S38   O164  D    
S64   O242  D    
S47   O193  S    
C13   C71   S    
S22   O118  S    
C138  C152  A    
O229  H91   S    
O226  H90   S    
C139  C149  A    
C132  C158  A    
S35   O155  D    
C13   C93   A    
S60   O230  D    
C57   O47   A    
S63   O239  D    
O58   H34   S    
C42   C169  A    
C136  C154  A    
C129  H17   S    
S3    O59   D    
C145  C176  S    
O1    Zn16  S    
C146  C175  S    
C98   C130  A    
C46   C173  A    
S19   O108  D    
S3    O61   S    
O12   Zn9   S    
C28   C165  A    
S52   O207  D    
S59   O228  D    
O4    Zn13  S    
S57   O223  S    
C53   C76   S    
C30   S14   S    
C61   O51   A    
S15   O95   D    
O148  H64   S    
C55   O15   A    
O40   Zn1   S    
C111  S63   S    
S51   O204  D    
C4    C110  A    
O73   H39   S    
C60   O24   A    
S12   O87   D    
S24   O122  D    
C130  H18   S    
C8    C106  A    
S49   O199  S    
O124  H56   S    
C11   C69   S    
O121  H55   S    
C99   C131  A    
C41   C170  A    
O3    Zn3   S    
C148  C173  S    
S44   O184  S    
C97   S49   S    
O33   Zn15  S    
S28   O135  D    
C33   C162  A    
S35   O157  S    
O34   Zn16  S    
S11   O83   D    
C139  H27   S    
C45   C174  A    
C1    C111  A    
C152  C169  S    
S18   O105  D    
C156  C165  S    
C3    C109  A    
O5    Zn12  S    
S8    O75   D    
O6    Zn11  S    
S43   O181  S    
C117  H5    S    
O41   Zn4   S    
O82   H42   S    
C7    C57   S    
O42   Zn3   S    
O11   Zn10  S    
C54   O14   A    
C27   C166  A    
C63   O27   A    
C44   S28   S    
C95   C127  A    
S39   O169  S    
C7    C87   A    
O163  H69   S    
C10   C90   A    
S42   O176  D    
C81   C113  A    
C19   C174  A    
C33   C48   A    
C34   C47   A    
C72   O42   A    
C35   C46   A    
C14   C94   A    
C144  H32   S    
S46   O190  S    
S48   O196  S    
S5    O65   D    
S19   O107  D    
C143  H31   S    
O220  H88   S    
S64   O243  D    
S29   O137  D    
S47   O191  D    
O187  H77   S    
S6    O70   S    
O190  H78   S    
S41   O173  D    
S60   O232  S    
C37   S21   S    
S18   O106  S    
S4    O62   D    
S55   O216  D    
S40   O171  D    
S41   O175  S    
C108  S60   S    
C106  C138  A    
C50   O6    A    
C155  C166  S    
S51   O203  D    
C36   S20   S    
C143  C145  A    
C57   O21   A    
C112  S64   S    
S45   O185  D    
O32   Zn10  S    
S12   O86   D    
C110  C142  A    
C103  C135  A    
O145  H63   S    
C54   O18   A    
C90   S42   S    
C150  C171  S    
O199  H81   S    
O3    Zn10  S    
C47   S31   S    
S27   O131  D    
C100  C132  A    
C17   C176  A    
C18   C175  A    
C102  S54   S    
O4    Zn4   S    
O157  H67   S    
C65   O39   A    
C93   S45   S    
S48   O194  D    
S30   O141  D    
C122  C154  A    
C65   O29   A    
C39   S23   S    
C84   S36   S    
S24   O124  S    
C64   O50   A    
S57   O222  D    
S26   O129  D    
C20   C29   A    
C3    C61   S    
C119  C151  A    
S31   O145  S    
C120  C152  A    
S39   O167  D    
O47   Zn1   S    
C24   C25   A    
C82   C114  A    
S43   O180  D    
S36   O159  D    
O16   Zn5   S    
C108  C140  A    
O241  H95   S    
O2    Zn11  S    
C114  H2    S    
S53   O209  D    
C50   O10   A    
O232  H92   S    
S7    O72   D    
C86   C118  A    
C102  C134  A    
C12   C102  A    
O193  H79   S    
O51   Zn5   S    
S15   O96   D    
S26   O130  S    
C20   C173  A    
C18   S2    S    
O208  H84   S    
C19   S3    S    
C32   C161  A    
C51   O7    A    
O2    Zn15  S    
C36   C45   A    
O29   Zn11  S    
O30   Zn12  S    
C24   C169  A    
S63   O240  D    
O43   Zn6   S    
S21   O113  D    
S50   O201  D    
S2    O58   S    
C33   S17   S    
S56   O218  D    
C92   C124  A    
C124  C156  A    
C89   S41   S    
S5    O67   S    
C44   C171  A    
O37   Zn8   S    
S34   O153  D    
O38   Zn7   S    
C62   O52   A    
C129  C159  A    
S29   O139  S    
C128  C160  A    
C134  H22   S    
S6    O68   D    
S32   O146  D    
C56   O16   A    
S22   O117  D    
C133  C155  A    
C106  S58   S    
S4    O64   S    
S50   O202  S    
S11   O85   S    
S62   O237  D    
C43   C172  A    
C37   C166  A    
C111  C143  A    
C110  S62   S    
C135  C153  A    
C85   S37   S    
S45   O187  S    
O79   H41   S    
C112  C144  A    
S34   O154  S    
C10   C104  A    
C97   C129  A    
C70   O34   A    
C23   C170  A    
O4    Zn9   S    
C38   S22   S    
S44   O183  D    
C123  H11   S    
S9    O77   D    
C160  C161  S    
O39   Zn2   S    
C2    C82   A    
C121  H9    S    
C79   C80   T    
O44   Zn5   S    
C16   C66   S    
C96   S48   S    
S61   O233  D    
C95   S47   S    
C132  H20   S    
C6    C108  A    
C137  C151  A    
C125  H13   S    
O94   H46   S    
S1    O53   D    
C115  H3    S    
S23   O119  D    
C91   S43   S    
