data_mof_unit_33932.cif
_audit_creation_date              2012-12-11T15:52:26-0500
_audit_creation_method            fapswitch 2.2
_symmetry_space_group_name_H-M    P1
_symmetry_Int_Tables_number       1
_space_group_crystal_system       triclinic
_cell_length_a                    11.19979
_cell_length_b                    11.206408
_cell_length_c                    18.8029
_cell_angle_alpha                 89.694628
_cell_angle_beta                  90.061275
_cell_angle_gamma                 119.92768
_cell_volume                      2045.22412711

loop_
_atom_site_label
_atom_site_type_symbol
_atom_type_description
_atom_site_fract_x
_atom_site_fract_y
_atom_site_fract_z
_atom_type_partial_charge
C1    C     C_R   0.522804 0.455297 0.146511 0.541853
C2    C     C_3   0.814742 0.573486 0.475567 -0.230455
C3    C     C_3   0.748042 0.205266 0.477579 -0.234210
C4    C     C_3   0.418192 0.243653 0.477459 -0.246899
C5    C     C_R   0.517940 0.456367 0.352578 0.532895
C6    C     C_R   0.543988 0.062640 0.352965 0.541241
C7    C     C_R   0.939568 0.481868 0.352818 0.539699
C8    C     C_R   0.455141 0.524778 0.644493 0.565758
C9    C     C_R   0.063936 0.541108 0.645889 0.561375
C10   C     C_R   0.477096 0.934342 0.645523 0.568089
C11   C     C_R   0.504680 0.975534 0.927955 0.029069
C12   C     C_R   0.545725 0.068205 0.146776 0.541056
C13   C     C_R   0.081543 0.555556 0.935238 0.018816
C14   C     C_R   0.469967 0.482755 0.926940 -0.016677
C15   C     C_R   0.010159 0.510577 0.080526 0.000716
C16   C     C_R   0.508741 0.014395 0.076079 -0.000126
C17   C     C_R   0.504597 0.496894 0.076205 0.003630
C18   C     C_R   0.455055 0.054768 0.956567 -0.047257
C19   C     C_R   0.025785 0.425297 0.964954 0.038996
C20   C     C_R   0.598525 0.551951 0.957574 -0.036706
C21   C     C_R   0.988497 0.402602 0.035731 0.005621
C22   C     C_R   0.456199 0.072820 0.028869 -0.033252
C23   C     C_R   0.935658 0.480125 0.147373 0.527666
C24   C     C_R   0.615834 0.558039 0.029250 -0.033665
C25   C     C_R   0.549172 0.923814 0.049970 0.109625
C26   C     C_R   0.083544 0.647009 0.053903 0.106818
C27   C     C_R   0.370852 0.440745 0.048049 0.134820
C28   C     C_R   0.109695 0.667928 0.980106 0.114054
C29   C     C_R   0.552118 0.908930 0.975717 0.132626
C30   C     C_R   0.351375 0.410060 0.973968 0.150390
C31   C     C_3   0.485822 0.196081 0.940196 -0.279095
C32   C     C_3   0.899467 0.298137 0.941760 -0.267573
C33   C     C_3   0.735673 0.568588 0.942117 -0.268286
C34   C     C_R   0.452659 0.517015 0.853417 0.545177
C35   C     C_3   0.858524 0.272180 0.019398 -0.263266
C36   C     C_3   0.483394 0.214949 0.020283 -0.234052
C37   C     C_3   0.757042 0.577383 0.022634 -0.233338
C38   C     C_R   0.483439 0.983359 0.573172 0.014223
C39   C     C_R   0.008970 0.491496 0.574551 -0.021723
C40   C     C_R   0.493353 0.519708 0.571172 0.016392
C41   C     C_R   0.992445 0.503258 0.424981 0.009588
C42   C     C_R   0.515316 0.013611 0.424909 0.015386
C43   C     C_R   0.493069 0.487917 0.423220 -0.001651
C44   C     C_R   0.611404 0.050185 0.542650 -0.043669
C45   C     C_R   0.118371 0.575880 0.860007 0.585211
C46   C     C_R   0.951274 0.559760 0.542311 -0.037030
C47   C     C_R   0.420453 0.393242 0.540270 0.019375
C48   C     C_R   0.944469 0.567402 0.470817 -0.015942
C49   C     C_R   0.626136 0.066585 0.471225 -0.020447
C50   C     C_R   0.420327 0.377036 0.469071 0.002640
C51   C     C_R   0.382380 0.932214 0.451918 0.108704
C52   C     C_R   0.063702 0.440064 0.454541 0.128642
C53   C     C_R   0.554159 0.622118 0.450190 0.104933
C54   C     C_R   0.058562 0.419454 0.530176 0.157093
C55   C     C_R   0.365178 0.922212 0.527210 0.138946
C56   C     C_R   0.480806 0.934182 0.853445 0.562522
C57   C     C_R   0.560598 0.639093 0.525693 0.137706
C58   C     C_3   0.720717 0.883740 0.112151 -0.266909
C59   C     C_3   0.204382 0.789078 0.158713 -0.285689
C60   C     C_3   0.272187 0.512961 0.141826 -0.303844
C61   C     C_3   0.084125 0.857332 0.932653 -0.283554
C62   C     C_3   0.741303 0.882077 0.934066 -0.254465
C63   C     C_3   0.127174 0.186049 0.993153 -0.327005
C64   C     C_3   0.175223 0.892997 0.386739 -0.310965
C65   C     C_3   0.109078 0.316301 0.358986 -0.297629
C66   C     C_3   0.732547 0.827228 0.386753 -0.310920
C67   C     C_3   0.733471 0.185052 0.557814 -0.280187
C68   C     C_3   0.075205 0.203633 0.523172 -0.307431
C69   C     C_3   0.165286 0.916009 0.579994 -0.269552
C70   C     C_3   0.756995 0.833993 0.582796 -0.274942
C71   C     C_3   0.821844 0.560466 0.555647 -0.283034
C72   C     C_3   0.419925 0.264012 0.557090 -0.285334
Cr1   Cr    Cr6+3 0.769160 0.541570 0.250690 0.963330
Cr2   Cr    Cr6+3 0.458430 0.227590 0.250690 0.963261
Cr3   Cr    Cr6+3 0.772410 0.230840 0.250690 0.962413
Cr4   Cr    Cr6+3 0.541570 0.769160 0.749310 0.999887
Cr5   Cr    Cr6+3 0.227590 0.458430 0.749310 1.003444
Cr6   Cr    Cr6+3 0.230840 0.772410 0.749310 1.005898
H1    H     H_    0.399864 0.195871 0.911080 0.140866
H2    H     H_    0.857538 0.180449 0.041665 0.138198
H3    H     H_    0.394337 0.220699 0.039869 0.162787
H4    H     H_    0.836436 0.680716 0.040618 0.128213
H5    H     H_    0.815419 0.172042 0.583203 0.140212
H6    H     H_    0.842362 0.652045 0.586037 0.132151
H7    H     H_    0.323845 0.192439 0.584947 0.142872
H8    H     H_    0.726120 0.483826 0.450830 0.141849
H9    H     H_    0.728151 0.286132 0.457371 0.129104
H10   H     H_    0.512993 0.249583 0.456587 0.141190
H11   H     H_    0.706436 0.254124 0.586312 0.119345
H12   H     H_    0.925157 0.223591 0.918001 0.150921
H13   H     H_    0.738630 0.462874 0.577734 0.118758
H14   H     H_    0.515296 0.281046 0.583708 0.113071
H15   H     H_    0.832082 0.675643 0.458790 0.145554
H16   H     H_    0.837322 0.205180 0.453695 0.157815
H17   H     H_    0.320422 0.156168 0.458248 0.138749
H18   H     H_    0.516876 0.807574 0.142689 0.232741
H19   H     H_    0.746641 0.917703 0.168203 0.146563
H20   H     H_    0.792238 0.968564 0.076838 0.133720
H21   H     H_    0.737238 0.795283 0.104977 0.147403
H22   H     H_    0.039025 0.787118 0.104213 0.257504
H23   H     H_    0.800676 0.665552 0.913251 0.126700
H24   H     H_    0.157682 0.704353 0.198244 0.151887
H25   H     H_    0.223525 0.885343 0.185125 0.152559
H26   H     H_    0.303985 0.801643 0.141701 0.127479
H27   H     H_    0.221237 0.311914 0.120469 0.261688
H28   H     H_    0.356244 0.541175 0.180776 0.134799
H29   H     H_    0.176381 0.477164 0.172986 0.137128
H30   H     H_    0.293791 0.604728 0.109915 0.162193
H31   H     H_    0.240118 0.867760 0.990034 0.280912
H32   H     H_    0.022301 0.857046 0.978733 0.105482
H33   H     H_    0.016183 0.798941 0.888227 0.171715
H34   H     H_    0.765775 0.278218 0.031685 0.131527
H35   H     H_    0.148243 0.965175 0.913776 0.131082
H36   H     H_    0.554179 0.732659 0.979884 0.275173
H37   H     H_    0.793268 0.851956 0.974534 0.101512
H38   H     H_    0.792154 0.995757 0.932479 0.125194
H39   H     H_    0.755572 0.847138 0.881357 0.166865
H40   H     H_    0.232738 0.253582 0.902290 0.263490
H41   H     H_    0.178521 0.137757 0.021735 0.129134
H42   H     H_    0.044365 0.104691 0.960358 0.093471
H43   H     H_    0.074441 0.218811 0.030621 0.184235
H44   H     H_    0.303427 0.816068 0.360480 0.240336
H45   H     H_    0.581575 0.290478 0.044168 0.125008
H46   H     H_    0.228790 0.000995 0.367607 0.155787
H47   H     H_    0.108428 0.880880 0.432535 0.141340
H48   H     H_    0.106902 0.828145 0.343318 0.153187
H49   H     H_    0.241266 0.515389 0.394448 0.247013
H50   H     H_    0.110098 0.360158 0.305736 0.147747
H51   H     H_    0.004353 0.231020 0.372186 0.149430
H52   H     H_    0.177813 0.271897 0.356330 0.152459
H53   H     H_    0.528157 0.707561 0.357296 0.241231
H54   H     H_    0.780897 0.771176 0.363258 0.160434
H55   H     H_    0.789395 0.883154 0.434659 0.135965
H56   H     H_    0.766109 0.491275 0.045048 0.137448
H57   H     H_    0.741998 0.905630 0.347429 0.153903
H58   H     H_    0.050276 0.288028 0.610991 0.261233
H59   H     H_    0.969753 0.142217 0.502173 0.109856
H60   H     H_    0.090471 0.135175 0.560197 0.098666
H61   H     H_    0.151886 0.231629 0.480856 0.199492
H62   H     H_    0.170661 0.762990 0.522111 0.281668
H63   H     H_    0.162438 0.982098 0.537064 0.090950
H64   H     H_    0.218991 0.979095 0.627017 0.158212
H65   H     H_    0.057936 0.843466 0.596248 0.138776
H66   H     H_    0.611099 0.838985 0.518811 0.282001
H67   H     H_    0.588378 0.256302 0.915114 0.120685
H68   H     H_    0.830358 0.836079 0.542772 0.088246
H69   H     H_    0.759203 0.777823 0.630861 0.159382
H70   H     H_    0.793275 0.941830 0.598826 0.141943
H71   H     H_    0.830322 0.320292 0.908834 0.121733
H72   H     H_    0.732164 0.477257 0.918001 0.126559
N1    N     N_2   0.577769 0.841154 0.097756 -0.519424
N2    N     N_2   0.093927 0.323318 0.561852 -0.453442
N3    N     N_2   0.231346 0.840781 0.555652 -0.448979
N4    N     N_2   0.618823 0.773838 0.554015 -0.452955
N5    N     N_2   0.116381 0.763834 0.097553 -0.522429
N6    N     N_2   0.257160 0.404860 0.094564 -0.500487
N7    N     N_2   0.173497 0.804154 0.952821 -0.469682
N8    N     N_2   0.595210 0.819437 0.949544 -0.452335
N9    N     N_2   0.222130 0.298561 0.947425 -0.469769
N10   N     N_2   0.272147 0.847657 0.404646 -0.524049
N11   N     N_2   0.160216 0.423394 0.412371 -0.510671
N12   N     N_2   0.588319 0.734827 0.402472 -0.521992
O1    O     O_R   0.911480 0.572650 0.170990 -0.526903
O2    O     O_R   0.528970 0.640340 0.824320 -0.491840
O3    O     O_R   0.111370 0.471030 0.824320 -0.502798
O4    O     O_R   0.359660 0.888630 0.824320 -0.498589
O5    O     O_R   0.909980 0.572450 0.331530 -0.534760
O6    O     O_R   0.427550 0.337530 0.331530 -0.535768
O7    O     O_R   0.662470 0.090020 0.331530 -0.533955
O8    O     O_R   0.572450 0.909980 0.668470 -0.507897
O9    O     O_R   0.337530 0.427550 0.668470 -0.508363
O10   O     O_R   0.090020 0.662470 0.668470 -0.499061
O11   O     O_R   0.638950 0.528780 0.324500 -0.508326
O12   O     O_R   0.427350 0.338830 0.170990 -0.535299
O13   O     O_R   0.471220 0.110170 0.324500 -0.511801
O14   O     O_R   0.889830 0.361050 0.324500 -0.516116
O15   O     O_R   0.528780 0.638950 0.675500 -0.492676
O16   O     O_R   0.110170 0.471220 0.675500 -0.514188
O17   O     O_R   0.361050 0.889830 0.675500 -0.489513
O18   O     O_3   0.666667 0.333333 0.250560 -0.251501
O19   O     O_3   0.333333 0.666667 0.749440 -0.274290
O20   O     O_R   0.661170 0.088520 0.170990 -0.519527
O21   O     O_R   0.572650 0.911480 0.829010 -0.507848
O22   O     O_R   0.338830 0.427350 0.829010 -0.539048
O23   O     O_R   0.088520 0.661170 0.829010 -0.518064
O24   O     O_R   0.640340 0.528970 0.175680 -0.508921
O25   O     O_R   0.471030 0.111370 0.175680 -0.514033
O26   O     O_R   0.888630 0.359660 0.175680 -0.510008

loop_
_geom_bond_atom_site_label_1
_geom_bond_atom_site_label_2
_ccdc_geom_bond_type
C44   C49   A    
C40   C47   A    
C13   C45   S    
C11   C18   A    
C67   H5    S    
C16   C25   A    
C51   N10   S    
C68   H60   S    
Cr3   O26   S    
C58   H20   S    
C63   N9    S    
Cr1   O5    S    
H31   N7    S    
C70   H69   S    
Cr2   O6    S    
C65   H52   S    
C3    C49   S    
C1    O24   A    
C62   H38   S    
C68   H61   S    
C33   H23   S    
C59   H26   S    
C19   C21   A    
Cr2   O12   S    
C34   O2    A    
C33   H72   S    
C23   O26   A    
C72   H14   S    
C53   N12   S    
C39   C54   A    
C6    O13   A    
C19   C32   S    
Cr5   O3    S    
C4    H17   S    
C35   H2    S    
C9    C39   S    
Cr5   O22   S    
C66   N12   S    
C5    O6    A    
C20   C24   A    
H36   N8    S    
C62   H39   S    
H58   N2    S    
Cr1   O18   S    
C8    O15   A    
C43   C53   A    
C32   H12   S    
C38   C55   A    
C12   C16   S    
Cr3   O7    S    
Cr5   O19   S    
C62   N8    S    
C13   C28   A    
C34   O22   A    
C70   H68   S    
H40   N9    S    
Cr4   O21   S    
C41   C52   A    
C23   O1    A    
C60   H30   S    
C8    O9    A    
C42   C51   A    
C15   C23   S    
C5    C43   S    
C9    O16   A    
H49   N11   S    
C70   N4    S    
C27   C30   A    
H66   N4    S    
C26   N5    S    
C58   H19   S    
C14   C30   A    
C61   H32   S    
C26   C28   A    
C63   H43   S    
C52   C54   A    
C72   H7    S    
C47   C50   A    
C66   H54   S    
C25   C29   A    
C30   N9    S    
C68   H59   S    
C1    O12   A    
Cr6   O4    S    
C17   C24   A    
C32   H71   S    
C3    H9    S    
Cr6   O17   S    
C17   C27   A    
C32   C35   S    
C14   C20   A    
C36   H45   S    
Cr4   O15   S    
C59   N5    S    
C15   C26   A    
C54   N2    S    
H53   N12   S    
C2    C48   S    
C69   H64   S    
C64   H46   S    
C12   O25   A    
C33   C37   S    
C4    C50   S    
C65   H50   S    
C38   C44   A    
C68   N2    S    
C61   N7    S    
C66   H55   S    
C63   H41   S    
C15   C21   A    
C36   H3    S    
Cr5   O9    S    
C7    O14   A    
C64   N10   S    
Cr6   O10   S    
C24   C37   S    
C71   H13   S    
Cr6   O23   S    
C12   O20   A    
Cr4   O8    S    
Cr3   O18   S    
C46   C71   S    
C60   H29   S    
C35   H34   S    
C39   C46   A    
C21   C35   S    
C20   C33   S    
H22   N5    S    
C64   H48   S    
Cr1   O24   S    
C37   H4    S    
Cr4   O2    S    
C70   H70   S    
C10   O17   A    
C65   N11   S    
Cr4   O19   S    
C61   H33   S    
C4    C72   S    
C60   H28   S    
C58   N1    S    
C71   H6    S    
C27   N6    S    
C55   N3    S    
C7    O5    A    
C16   C22   A    
C40   C57   A    
Cr3   O14   S    
C18   C22   A    
C59   H24   S    
C5    O11   A    
C2    H15   S    
C3    C67   S    
C58   H21   S    
C9    O10   A    
C53   C57   A    
C14   C34   S    
C65   H51   S    
C43   C50   A    
C31   H1    S    
C29   N8    S    
C4    H10   S    
C56   O21   A    
C69   H65   S    
C22   C36   S    
C57   N4    S    
C52   N11   S    
C1    C17   S    
Cr5   O16   S    
C10   C38   S    
C25   N1    S    
Cr6   O19   S    
C59   H25   S    
Cr2   O13   S    
Cr1   O1    S    
C61   H35   S    
C63   H42   S    
H18   N1    S    
C45   O23   A    
C45   O3    A    
C10   O8    A    
C28   N7    S    
C41   C48   A    
C2    H8    S    
C3    H16   S    
C51   C55   A    
C60   N6    S    
C7    C41   S    
Cr1   O11   S    
C13   C19   A    
C69   N3    S    
C47   C72   S    
Cr2   O25   S    
C42   C49   A    
C66   H57   S    
C31   H67   S    
C46   C48   A    
C62   H37   S    
H27   N6    S    
Cr2   O18   S    
C11   C29   A    
C64   H47   S    
C6    C42   S    
C37   H56   S    
C56   O4    A    
C67   H11   S    
H44   N10   S    
C31   C36   S    
C44   C67   S    
C18   C31   S    
C8    C40   S    
H62   N3    S    
Cr3   O20   S    
C69   H63   S    
C11   C56   S    
C2    C71   S    
C6    O7    A    
