data_mof_unit_46151.cif
_audit_creation_date              2012-12-10T18:57:03-0500
_audit_creation_method            fapswitch 2.2
_symmetry_space_group_name_H-M    P1
_symmetry_Int_Tables_number       1
_space_group_crystal_system       triclinic
_cell_length_a                    10.644505
_cell_length_b                    9.846545
_cell_length_c                    10.669258
_cell_angle_alpha                 89.976398
_cell_angle_beta                  89.953561
_cell_angle_gamma                 89.938302
_cell_volume                      1118.26086482

loop_
_atom_site_label
_atom_site_type_symbol
_atom_type_description
_atom_site_fract_x
_atom_site_fract_y
_atom_site_fract_z
_atom_type_partial_charge
C1    C     C_R   0.260199 0.500068 0.502897 0.947154
C2    C     C_R   0.739761 0.499909 0.502993 0.940896
C3    C     C_R   0.568293 0.071806 0.586453 -0.061518
C4    C     C_R   0.431599 0.072037 0.413634 -0.063494
C5    C     C_R   0.568242 0.927958 0.586488 -0.040573
C6    C     C_R   0.431589 0.928185 0.413645 -0.050951
C7    C     C_R   0.504528 0.500024 0.259840 0.868543
C8    C     C_R   0.504620 0.500012 0.740144 0.925400
C9    C     C_R   0.534108 0.622638 0.063882 0.147847
C10   C     C_R   0.534316 0.622678 0.935981 0.171394
C11   C     C_R   0.526894 0.500073 0.128616 -0.102263
C12   C     C_R   0.527121 0.500102 0.871300 -0.090272
C13   C     C_R   0.545986 0.377218 0.064773 -0.215276
C14   C     C_R   0.546124 0.377237 0.935188 -0.202253
C15   C     C_3   0.453302 0.746615 0.928888 -0.437500
C16   C     C_3   0.452960 0.746450 0.071012 -0.500661
C17   C     C_R   0.064381 0.416820 0.424180 -0.226028
C18   C     C_R   0.935825 0.416704 0.424226 -0.219650
C19   C     C_R   0.872047 0.499644 0.508654 -0.171577
C20   C     C_R   0.127818 0.500126 0.508358 -0.174887
C21   C     C_R   0.934643 0.580573 0.596994 0.337407
C22   C     C_R   0.064767 0.581140 0.596594 0.344029
H1    H     H_    0.551034 0.280912 0.113673 0.173833
H2    H     H_    0.551266 0.280950 0.886329 0.171007
H3    H     H_    0.504068 0.834759 0.887916 0.207366
H4    H     H_    0.358879 0.725527 0.112191 0.213492
H5    H     H_    0.359423 0.725948 0.887627 0.255855
H6    H     H_    0.503505 0.834550 0.112189 0.209741
H7    H     H_    0.114497 0.354252 0.357068 0.170908
H8    H     H_    0.885966 0.354173 0.357056 0.175258
H9    H     H_    0.622963 0.126151 0.655565 0.136707
H10   H     H_    0.376829 0.126571 0.344602 0.129718
H11   H     H_    0.622762 0.873437 0.655692 0.170211
H12   H     H_    0.376778 0.873825 0.344666 0.128751
N1    N     N_R   0.500000 0.857200 0.500000 -0.082112
N2    N     N_R   0.500000 0.142810 0.500000 -0.084622
O1    O     O_R   0.316770 0.614620 0.499990 -0.583437
O2    O     O_R   0.683230 0.614620 0.500010 -0.586145
O3    O     O_R   0.316800 0.385290 0.500000 -0.618690
O4    O     O_R   0.683200 0.385290 0.500000 -0.626590
O5    O     O_R   0.500000 0.614690 0.316780 -0.628007
O6    O     O_R   0.500000 0.614690 0.683220 -0.598403
O7    O     O_R   0.500020 0.385360 0.316780 -0.635293
O8    O     O_R   0.499980 0.385360 0.683220 -0.632875
Zn1   Zn    Zn3+2 0.500000 0.653120 0.500000 1.001910
Zn2   Zn    Zn3+2 0.500000 0.346880 0.500000 0.960950
Cl1   Cl    Cl    0.851452 0.674835 0.711646 -0.581207
Cl2   Cl    Cl    0.147308 0.677413 0.709867 -0.574092

loop_
_geom_bond_atom_site_label_1
_geom_bond_atom_site_label_2
_ccdc_geom_bond_type
C16   H6    S    
C22   Cl2   S    
C4    N2    A    
N2    Zn2   S    
C18   H8    S    
C7    O7    A    
C11   C13   A    
C9    C10   A    
C2    O2    A    
C15   H5    S    
C1    O1    A    
C8    C12   S    
C3    C5    A    
C17   C18   A    
C12   C14   A    
C21   C22   A    
C3    H9    S    
C9    C11   A    
C8    O8    A    
C4    H10   S    
C10   C12   A    
C3    N2    A    
O3    Zn2   S    
C5    N1    A    
C19   C21   A    
C9    C16   S    
C20   C22   A    
C7    C11   S    
C10   C15   S    
C7    O5    A    
C16   H4    S    
O7    Zn2   S    
C15   H3    S    
O4    Zn2   S    
O1    Zn1   S    
C15   C16   S    
N1    Zn1   S    
C2    O4    A    
C17   C20   A    
C17   H7    S    
C6    N1    A    
C13   H1    S    
C4    C6    A    
C18   C19   A    
C14   H2    S    
C1    O3    A    
C1    C20   S    
O5    Zn1   S    
O8    Zn2   S    
C21   Cl1   S    
C2    C19   S    
C13   C14   A    
C6    H12   S    
C8    O6    A    
O2    Zn1   S    
O6    Zn1   S    
C5    H11   S    
