data_mof_unit_54137.cif
_audit_creation_date              2012-12-10T20:51:47-0500
_audit_creation_method            fapswitch 2.2
_symmetry_space_group_name_H-M    P1
_symmetry_Int_Tables_number       1
_space_group_crystal_system       triclinic
_cell_length_a                    8.190284
_cell_length_b                    8.900717
_cell_length_c                    16.8837
_cell_angle_alpha                 89.677898
_cell_angle_beta                  93.582499
_cell_angle_gamma                 89.950709
_cell_volume                      1228.38610735

loop_
_atom_site_label
_atom_site_type_symbol
_atom_type_description
_atom_site_fract_x
_atom_site_fract_y
_atom_site_fract_z
_atom_type_partial_charge
C1    C     C_R   0.500022 0.218396 0.500444 0.926797
C2    C     C_R   0.581176 0.373281 0.143443 -0.310059
C3    C     C_R   0.563174 0.390214 0.901725 0.109191
C4    C     C_R   0.457634 0.445557 0.096155 0.117525
C5    C     C_R   0.693239 0.465304 0.868260 0.430902
C6    C     C_R   0.341009 0.535403 0.131303 0.448193
C7    C     C_R   0.672622 0.521221 0.790563 0.426124
C8    C     C_R   0.347685 0.551383 0.213747 0.375903
C9    C     C_1   0.499888 0.065329 0.500604 -0.223922
C10   C     C_1   0.499829 0.934649 0.500455 -0.233972
C11   C     C_R   0.721238 0.304897 0.270838 0.176630
C12   C     C_R   0.499971 0.781601 0.500124 0.923207
C13   C     C_R   0.885402 0.347711 0.265871 -0.112403
C14   C     C_R   0.010151 0.266858 0.307347 -0.119031
C15   C     C_R   0.971986 0.142377 0.353480 -0.134020
C16   C     C_R   0.809030 0.098171 0.357933 -0.112119
C17   C     C_R   0.683730 0.179076 0.316784 -0.135985
C18   C     C_R   0.235450 0.493518 0.755627 0.224243
C19   C     C_R   0.218298 0.650577 0.749471 -0.125495
C20   C     C_R   0.095528 0.712021 0.699042 -0.124900
C21   C     C_R   0.987241 0.616871 0.657274 0.045690
C22   C     C_R   0.994605 0.460328 0.670343 -0.059949
C23   C     C_R   0.520382 0.500855 0.654649 0.902793
C24   C     C_R   0.118972 0.398590 0.719487 -0.148807
C25   C     C_3   0.819050 0.618362 0.962418 -0.158180
C26   C     C_3   0.276636 0.724525 0.041563 -0.311303
C27   C     C_3   0.695082 0.771503 0.761948 -0.347651
C28   C     C_3   0.285039 0.783259 0.259108 -0.246587
C29   C     C_R   0.480373 0.496167 0.346716 0.920708
C30   C     C_R   0.531064 0.484199 0.742915 -0.299818
C31   C     C_R   0.472151 0.478075 0.260909 -0.286683
C32   C     C_R   0.394814 0.434025 0.781927 -0.103133
C33   C     C_R   0.589757 0.388455 0.225167 -0.095393
C34   C     C_R   0.413466 0.375040 0.857853 -0.299410
H1    H     H_    0.671668 0.303789 0.116986 0.196961
H2    H     H_    0.892800 0.666698 0.618040 0.155530
H3    H     H_    0.910381 0.384264 0.639677 0.149091
H4    H     H_    0.132558 0.277656 0.723674 0.113475
H5    H     H_    0.791183 0.579263 0.022630 0.177828
H6    H     H_    0.936667 0.679987 0.968090 0.197901
H7    H     H_    0.723700 0.700106 0.939909 0.105928
H8    H     H_    0.295743 0.686917 0.980242 0.191747
H9    H     H_    0.391976 0.774653 0.068363 0.124482
H10   H     H_    0.183726 0.815424 0.037245 0.178638
H11   H     H_    0.787384 0.862616 0.762135 0.190016
H12   H     H_    0.306405 0.336516 0.886782 0.204627
H13   H     H_    0.616971 0.792412 0.812454 0.139347
H14   H     H_    0.620573 0.779379 0.704818 0.155347
H15   H     H_    0.304272 0.839413 0.201505 0.155697
H16   H     H_    0.399398 0.787406 0.298252 0.125255
H17   H     H_    0.190673 0.848317 0.288576 0.184055
H18   H     H_    0.916446 0.443621 0.230018 0.174113
H19   H     H_    0.136418 0.300174 0.303400 0.158513
H20   H     H_    0.068733 0.079752 0.385432 0.134885
H21   H     H_    0.779924 0.000996 0.393159 0.144657
H22   H     H_    0.557934 0.143481 0.320327 0.098199
H23   H     H_    0.308792 0.724386 0.778070 0.100153
H24   H     H_    0.086423 0.832529 0.690950 0.110916
N1    N     N_1   0.073640 0.500030 0.499990 -0.041789
N2    N     N_1   0.926360 0.499970 0.500010 -0.070850
N3    N     N_2   0.568990 0.372269 0.984548 -0.154654
N4    N     N_2   0.451944 0.438670 0.012715 -0.150732
O1    O     O_R   0.636850 0.285340 0.500000 -0.614379
O2    O     O_3   0.214908 0.604599 0.086187 -0.576632
O3    O     O_3   0.778068 0.632147 0.768760 -0.576579
O4    O     O_3   0.228127 0.634799 0.247942 -0.571208
O5    O     O_R   0.363150 0.714660 0.500000 -0.611308
O6    O     O_R   0.363100 0.285350 0.500000 -0.623926
O7    O     O_R   0.636900 0.714650 0.500000 -0.634257
O8    O     O_R   0.652140 0.498630 0.616140 -0.636082
O9    O     O_R   0.347860 0.501370 0.383860 -0.581078
O10   O     O_R   0.378390 0.498650 0.616130 -0.608616
O11   O     O_R   0.621610 0.501350 0.383870 -0.606538
O12   O     O_3   0.838180 0.493526 0.912396 -0.582911
Zn1   Zn    Zn3+2 0.682780 0.499990 0.500010 0.954893
Zn2   Zn    Zn3+2 0.317220 0.500010 0.499990 0.980202

loop_
_geom_bond_atom_site_label_1
_geom_bond_atom_site_label_2
_ccdc_geom_bond_type
C2    H1    S    
C27   H14   S    
C28   O4    S    
C12   O7    A    
C31   C33   A    
C8    O4    S    
C34   H12   S    
C5    C7    A    
O6    Zn2   S    
C13   H18   S    
C11   C13   A    
C9    C10   T    
N2    Zn1   S    
C2    C4    A    
C19   C20   A    
C23   O8    A    
O10   Zn2   S    
C27   H11   S    
C16   H21   S    
C26   H10   S    
N1    N2    T    
C29   C31   S    
C7    C30   A    
C21   C22   A    
C25   H5    S    
C30   C32   A    
O11   Zn1   S    
C17   H22   S    
N3    N4    D    
C18   C32   S    
O1    Zn1   S    
C18   C24   A    
C1    O1    A    
C2    C33   A    
C27   H13   S    
C27   O3    S    
C12   O5    A    
C26   H9    S    
O7    Zn1   S    
C10   C12   S    
C3    N3    S    
C25   H6    S    
O9    Zn2   S    
C25   O12   S    
C28   H17   S    
C22   C24   A    
C29   O11   A    
C1    O6    A    
N1    Zn2   S    
C20   H24   S    
C24   H4    S    
C23   C30   S    
C4    N4    S    
C11   C33   S    
C14   H19   S    
C1    C9    S    
C20   C21   A    
C26   H8    S    
C4    C6    A    
C15   H20   S    
C28   H15   S    
C25   H7    S    
O8    Zn1   S    
C21   H2    S    
C18   C19   A    
C26   O2    S    
C5    O12   S    
C23   O10   A    
C6    C8    A    
O5    Zn2   S    
C3    C34   A    
C3    C5    A    
C14   C15   A    
C22   H3    S    
C28   H16   S    
C7    O3    S    
C19   H23   S    
C11   C17   A    
C8    C31   A    
C15   C16   A    
C16   C17   A    
C6    O2    S    
C13   C14   A    
C29   O9    A    
C32   C34   A    
