data_mof_unit_44028.cif
_audit_creation_date              2013-03-05T15:51:42-0500
_audit_creation_method            fapswitch 2.2
_symmetry_space_group_name_H-M    P1
_symmetry_Int_Tables_number       1
_space_group_crystal_system       triclinic
_cell_length_a                    30.29494
_cell_length_b                    22.604189
_cell_length_c                    18.015634
_cell_angle_alpha                 90.07065
_cell_angle_beta                  122.905545
_cell_angle_gamma                 90.651296
_cell_volume                      10356.645689

loop_
_atom_site_label
_atom_site_type_symbol
_atom_site_description
_atom_site_fract_x
_atom_site_fract_y
_atom_site_fract_z
_atom_type_partial_charge
C1    C     C_R   0.531910 0.607951 0.705635 -0.116925
C2    C     C_R   0.462532 0.398324 0.279607 -0.120306
C3    C     C_R   0.467726 0.606892 0.291938 -0.113467
C4    C     C_R   0.541276 0.415911 0.738332 -0.121353
C5    C     C_R   0.043898 0.081783 0.742188 -0.108891
C6    C     C_R   0.956792 0.917274 0.259103 -0.137578
C7    C     C_R   0.961133 0.094228 0.271013 -0.132071
C8    C     C_R   0.043493 0.917904 0.741418 -0.141539
H1    H     H_    0.500578 0.620038 0.714107 0.101502
H2    H     H_    0.488965 0.391561 0.258162 0.092507
H3    H     H_    0.498750 0.618781 0.282072 0.100123
H4    H     H_    0.513754 0.416289 0.758897 0.094988
H5    H     H_    0.017314 0.079376 0.764610 0.089595
H6    H     H_    0.982983 0.920360 0.235927 0.093625
H7    H     H_    0.987525 0.097552 0.248435 0.093981
H8    H     H_    0.017602 0.920672 0.765161 0.092328
N1    N     N_R   0.532910 0.558440 0.665240 -0.042923
N2    N     N_R   0.467090 0.441560 0.334760 -0.042046
N3    N     N_R   0.467090 0.558440 0.334760 -0.042969
N4    N     N_R   0.532910 0.441560 0.665240 -0.041026
N5    N     N_R   0.032910 0.058440 0.665240 -0.040411
N6    N     N_R   0.967090 0.941560 0.334760 -0.040147
N7    N     N_R   0.967090 0.058440 0.334760 -0.039858
N8    N     N_R   0.032910 0.941560 0.665240 -0.040163
C9    C     C_R   0.644500 0.581056 0.570447 -0.119403
C10   C     C_R   0.356146 0.417004 0.427329 -0.149620
C11   C     C_R   0.355723 0.580134 0.429527 -0.117444
C12   C     C_R   0.628630 0.394340 0.572959 -0.117307
C13   C     C_R   0.128491 0.106655 0.575173 -0.107763
C14   C     C_R   0.875234 0.890068 0.427195 -0.104609
C15   C     C_R   0.856389 0.081792 0.429590 -0.102899
C16   C     C_R   0.125294 0.891414 0.571929 -0.097661
H9    H     H_    0.679187 0.578106 0.636574 0.105437
H10   H     H_    0.321927 0.420816 0.360853 0.101013
H11   H     H_    0.321280 0.577271 0.362994 0.102253
H12   H     H_    0.656655 0.382608 0.640875 0.120746
H13   H     H_    0.155669 0.118055 0.643878 0.104125
H14   H     H_    0.847541 0.877024 0.359354 0.113625
H15   H     H_    0.821961 0.079569 0.362982 0.104919
H16   H     H_    0.153278 0.879056 0.639538 0.114493
N9    N     N_R   0.597030 0.558910 0.545540 -0.043405
N10   N     N_R   0.402970 0.441090 0.454460 -0.039792
N11   N     N_R   0.402970 0.558910 0.454460 -0.042360
N12   N     N_R   0.597030 0.441090 0.545540 -0.045208
N13   N     N_R   0.097030 0.058910 0.545540 -0.043031
N14   N     N_R   0.902970 0.941090 0.454460 -0.046807
N15   N     N_R   0.902970 0.058910 0.454460 -0.045026
N16   N     N_R   0.097030 0.941090 0.545540 -0.045314
C17   C     C_R   0.593781 0.582501 0.423770 -0.146277
C18   C     C_R   0.405175 0.416417 0.574343 -0.119698
C19   C     C_R   0.406029 0.581337 0.576259 -0.150285
C20   C     C_R   0.581569 0.396327 0.425224 -0.130245
C21   C     C_R   0.079519 0.107971 0.427664 -0.119134
C22   C     C_R   0.925305 0.890660 0.574917 -0.129941
C23   C     C_R   0.907309 0.083519 0.576900 -0.124657
C24   C     C_R   0.075437 0.891811 0.424017 -0.126721
H17   H     H_    0.582462 0.579110 0.355693 0.104622
H18   H     H_    0.416146 0.418020 0.642319 0.099128
H19   H     H_    0.417123 0.577866 0.644163 0.104329
H20   H     H_    0.568611 0.387566 0.357672 0.099644
H21   H     H_    0.064174 0.120274 0.360353 0.104094
H22   H     H_    0.944673 0.878259 0.643348 0.106860
H23   H     H_    0.919302 0.081512 0.645391 0.100632
H24   H     H_    0.056822 0.879733 0.355279 0.106533
N17   N     N_R   0.566200 0.559270 0.454460 -0.040593
N18   N     N_R   0.433800 0.440730 0.545540 -0.042060
N19   N     N_R   0.433800 0.559270 0.545540 -0.040170
N20   N     N_R   0.566200 0.440730 0.454460 -0.042102
N21   N     N_R   0.066200 0.059270 0.454460 -0.043783
N22   N     N_R   0.933800 0.940730 0.545540 -0.045074
N23   N     N_R   0.933800 0.059270 0.545540 -0.042522
N24   N     N_R   0.066200 0.940730 0.454460 -0.044126
C25   C     C_R   0.393477 0.607186 0.291666 -0.113508
C26   C     C_R   0.615935 0.415608 0.740840 -0.138503
C27   C     C_R   0.606183 0.608882 0.706108 -0.119021
C28   C     C_R   0.390382 0.395179 0.284785 -0.113752
C29   C     C_R   0.888064 0.097711 0.274010 -0.122743
C30   C     C_R   0.116894 0.916489 0.741122 -0.144048
C31   C     C_R   0.117609 0.081808 0.742724 -0.130985
C32   C     C_R   0.883000 0.915660 0.258290 -0.144513
H25   H     H_    0.355692 0.617369 0.280759 0.102191
H26   H     H_    0.657065 0.415213 0.763625 0.098969
H27   H     H_    0.643750 0.620267 0.716134 0.103057
H28   H     H_    0.352385 0.384827 0.273627 0.095884
H29   H     H_    0.848336 0.105100 0.256587 0.102792
H30   H     H_    0.157860 0.917429 0.762942 0.104716
H31   H     H_    0.158512 0.077435 0.765516 0.097917
H32   H     H_    0.841888 0.916161 0.235574 0.104690
N25   N     N_R   0.421050 0.559750 0.334770 -0.043281
N26   N     N_R   0.578950 0.440250 0.665230 -0.042075
N27   N     N_R   0.578950 0.559750 0.665230 -0.042413
N28   N     N_R   0.421050 0.440250 0.334770 -0.042137
N29   N     N_R   0.921050 0.059750 0.334770 -0.039620
N30   N     N_R   0.078950 0.940250 0.665230 -0.041117
N31   N     N_R   0.078950 0.059750 0.665230 -0.040594
N32   N     N_R   0.921050 0.940250 0.334770 -0.041673
C33   C     C_R   0.576746 0.641421 0.730032 0.057626
C34   C     C_R   0.416529 0.365965 0.251698 0.057530
C35   C     C_R   0.422546 0.639230 0.265780 0.057594
C36   C     C_R   0.593138 0.399348 0.787758 0.066302
C37   C     C_R   0.097110 0.096843 0.793071 0.061935
C38   C     C_R   0.904546 0.899589 0.209819 0.070398
C39   C     C_R   0.913471 0.121943 0.235381 0.063277
C40   C     C_R   0.095605 0.900644 0.790117 0.071948
C41   C     C_R   0.643175 0.596445 0.494869 0.087503
C42   C     C_R   0.356035 0.401163 0.501050 0.083931
C43   C     C_R   0.356868 0.594830 0.505159 0.090565
C44   C     C_R   0.618355 0.364724 0.497873 0.073097
C45   C     C_R   0.117276 0.139483 0.502456 0.073156
C46   C     C_R   0.889606 0.857218 0.502018 0.072868
C47   C     C_R   0.858181 0.097340 0.505678 0.082964
C48   C     C_R   0.111572 0.859345 0.496359 0.068410
Ni1   Ni    Ni4+2 0.483090 0.500000 0.604440 0.217459
Ni2   Ni    Ni4+2 0.516910 0.500000 0.395560 0.224717
Ni3   Ni    Ni4+2 0.983090 1.000000 0.604440 0.215897
Ni4   Ni    Ni4+2 0.016910 0.000000 0.395560 0.223103
Ni5   Ni    Ni4+2 0.586780 0.500000 0.604440 0.220934
Ni6   Ni    Ni4+2 0.413220 0.500000 0.395560 0.222152
Ni7   Ni    Ni4+2 0.086780 1.000000 0.604440 0.229095
Ni8   Ni    Ni4+2 0.913220 0.000000 0.395560 0.223106
C49   C     C_R   0.219893 0.623387 0.446124 -0.095731
C50   C     C_R   0.677105 0.214420 0.555906 -0.112384
C51   C     C_R   0.780092 0.617078 0.546441 -0.119157
C52   C     C_R   0.224429 0.334693 0.424639 -0.132836
C53   C     C_R   0.721372 0.125278 0.446451 -0.125101
C54   C     C_R   0.176273 0.711653 0.558705 -0.099300
C55   C     C_R   0.211271 0.268191 0.580020 -0.133758
C56   C     C_R   0.824752 0.707509 0.434670 -0.112765
H33   H     H_    0.179883 0.614774 0.391463 0.144340
H34   H     H_    0.688656 0.181854 0.607189 0.141472
H35   H     H_    0.819847 0.605676 0.598222 0.143541
H36   H     H_    0.196436 0.305797 0.371100 0.147316
H37   H     H_    0.681437 0.117769 0.390826 0.142465
H38   H     H_    0.191090 0.680643 0.612720 0.149016
H39   H     H_    0.251455 0.277072 0.633889 0.144930
H40   H     H_    0.807450 0.678204 0.377663 0.143220
C57   C     C_R   0.261145 0.597892 0.445318 -0.103335
C58   C     C_R   0.652037 0.265261 0.556312 -0.103281
C59   C     C_R   0.738230 0.594641 0.549557 -0.102375
C60   C     C_R   0.268464 0.353483 0.426088 -0.149796
C61   C     C_R   0.762599 0.100114 0.445499 -0.098138
C62   C     C_R   0.149067 0.760973 0.558076 -0.120317
C63   C     C_R   0.188285 0.214775 0.579162 -0.154930
C64   C     C_R   0.851631 0.758270 0.436109 -0.112456
H41   H     H_    0.252473 0.568677 0.391198 0.120614
H42   H     H_    0.643004 0.270910 0.606378 0.124345
H43   H     H_    0.745964 0.564668 0.602030 0.120287
H44   H     H_    0.272525 0.340269 0.372281 0.135188
H45   H     H_    0.753916 0.071843 0.390477 0.120666
H46   H     H_    0.142286 0.767180 0.610713 0.124616
H47   H     H_    0.210688 0.184900 0.633773 0.132763
H48   H     H_    0.855857 0.767040 0.381173 0.121978
C65   C     C_R   0.313047 0.612829 0.511568 0.077503
C66   C     C_R   0.640490 0.309346 0.494122 0.084060
C67   C     C_R   0.687139 0.613224 0.487521 0.085174
C68   C     C_R   0.308467 0.385149 0.498950 0.074301
C69   C     C_R   0.814463 0.114662 0.512430 0.087612
C70   C     C_R   0.133020 0.803286 0.491894 0.082765
C71   C     C_R   0.139103 0.198262 0.505666 0.082755
C72   C     C_R   0.869914 0.799039 0.505700 0.085055
C73   C     C_R   0.323512 0.648663 0.582891 -0.247128
C74   C     C_R   0.650542 0.300958 0.427954 -0.261983
C75   C     C_R   0.677556 0.649944 0.418013 -0.256600
C76   C     C_R   0.301864 0.402379 0.567096 -0.295637
C77   C     C_R   0.824917 0.148889 0.585137 -0.255680
C78   C     C_R   0.140747 0.794126 0.423110 -0.251097
C79   C     C_R   0.110961 0.238298 0.436393 -0.280272
C80   C     C_R   0.865772 0.786222 0.577528 -0.252076
H49   H     H_    0.363677 0.660003 0.634533 0.157622
H50   H     H_    0.641544 0.335259 0.379951 0.160365
H51   H     H_    0.637922 0.663946 0.369496 0.158622
H52   H     H_    0.331545 0.429739 0.621012 0.169956
H53   H     H_    0.865025 0.159674 0.637571 0.160104
H54   H     H_    0.128669 0.827115 0.372239 0.160170
H55   H     H_    0.071718 0.226731 0.381700 0.173274
H56   H     H_    0.879652 0.817604 0.631487 0.155684
C81   C     C_R   0.282742 0.676191 0.582904 0.391318
C82   C     C_R   0.677414 0.251530 0.428708 0.387763
C83   C     C_R   0.719120 0.674585 0.416130 0.390848
C84   C     C_R   0.257060 0.384224 0.565998 0.344259
C85   C     C_R   0.784168 0.175854 0.585573 0.392416
C86   C     C_R   0.169958 0.746658 0.425033 0.383365
C87   C     C_R   0.133456 0.293025 0.436964 0.339609
C88   C     C_R   0.837065 0.737317 0.575087 0.388941
C89   C     C_R   0.230509 0.665238 0.511541 -0.040627
C90   C     C_R   0.692169 0.208765 0.495263 -0.039906
C91   C     C_R   0.771081 0.659831 0.483469 -0.045225
C92   C     C_R   0.219546 0.346992 0.496130 0.022253
C93   C     C_R   0.732148 0.166220 0.512859 -0.044574
C94   C     C_R   0.189223 0.705924 0.495216 -0.041974
C95   C     C_R   0.185557 0.306247 0.507511 0.026313
C96   C     C_R   0.814404 0.698911 0.500961 -0.044198
C97   C     C_R   0.407221 0.696698 0.219923 0.118009
C98   C     C_R   0.619933 0.372090 0.875053 0.120413
C99   C     C_R   0.590955 0.700672 0.771659 0.118255
C100  C     C_R   0.400881 0.308660 0.203639 0.124888
C101  C     C_R   0.893304 0.168976 0.170200 0.117055
C102  C     C_R   0.123964 0.875297 0.879813 0.117831
C103  C     C_R   0.128448 0.114243 0.887764 0.122728
C104  C     C_R   0.876470 0.874891 0.119322 0.118425
C105  C     C_R   0.413522 0.773467 0.132382 -0.114688
C106  C     C_R   0.619075 0.307814 0.981136 -0.131589
C107  C     C_R   0.585030 0.779015 0.857393 -0.115949
C108  C     C_R   0.411834 0.232365 0.120427 -0.136648
C109  C     C_R   0.887294 0.222314 0.049107 -0.103971
C110  C     C_R   0.122591 0.819004 0.992556 -0.122741
C111  C     C_R   0.135535 0.143366 0.023707 -0.144360
C112  C     C_R   0.877767 0.819143 0.005991 -0.126209
C113  C     C_R   0.432468 0.721514 0.181220 -0.157873
C114  C     C_R   0.592465 0.344469 0.907883 -0.171268
C115  C     C_R   0.565983 0.725816 0.810212 -0.160543
C116  C     C_R   0.427980 0.285582 0.167462 -0.165353
C117  C     C_R   0.910357 0.178341 0.112897 -0.159068
C118  C     C_R   0.096519 0.852081 0.915582 -0.172100
C119  C     C_R   0.105490 0.122001 0.936792 -0.161728
C120  C     C_R   0.904200 0.850908 0.084987 -0.172368
C121  C     C_R   0.364027 0.725429 0.210649 -0.226152
C122  C     C_R   0.674014 0.367373 0.920990 -0.233909
C123  C     C_R   0.633266 0.730663 0.778023 -0.228335
C124  C     C_R   0.358852 0.276113 0.195438 -0.224615
C125  C     C_R   0.854744 0.204344 0.164785 -0.230453
C126  C     C_R   0.178706 0.870804 0.927816 -0.234758
C127  C     C_R   0.182504 0.124109 0.929426 -0.234551
C128  C     C_R   0.821614 0.872586 0.068436 -0.235403
C129  C     C_R   0.338919 0.771018 0.149514 0.101333
C130  C     C_R   0.699282 0.322192 0.981776 0.105553
C131  C     C_R   0.659095 0.776991 0.838928 0.099948
C132  C     C_R   0.341207 0.222792 0.147152 0.101947
C133  C     C_R   0.825307 0.241113 0.092827 0.102271
C134  C     C_R   0.206203 0.837898 0.006311 0.102486
C135  C     C_R   0.213698 0.144053 0.017175 0.100915
C136  C     C_R   0.793793 0.840989 0.987888 0.102472
C137  C     C_R   0.366461 0.798869 0.115401 0.076772
C138  C     C_R   0.671851 0.292675 0.015214 0.078646
C139  C     C_R   0.632224 0.804961 0.873637 0.077008
C140  C     C_R   0.367775 0.200864 0.107738 0.081273
C141  C     C_R   0.844451 0.254568 0.038117 0.078746
C142  C     C_R   0.176538 0.806855 0.034121 0.076739
C143  C     C_R   0.189209 0.158389 0.063165 0.072115
C144  C     C_R   0.823103 0.808913 0.961044 0.078055
C145  C     C_R   0.285845 0.786145 0.116741 0.070065
C146  C     C_R   0.749500 0.303291 0.004417 0.074530
C147  C     C_R   0.712648 0.791671 0.872681 0.069737
C148  C     C_R   0.293963 0.194916 0.128434 0.073044
C149  C     C_R   0.775851 0.261417 0.071763 0.066897
C150  C     C_R   0.261577 0.830344 0.051628 0.068146
C151  C     C_R   0.267877 0.155936 0.055827 0.065883
C152  C     C_R   0.738077 0.835283 0.939748 0.067970
C153  C     C_R   0.771687 0.320849 0.955667 -0.255821
C154  C     C_R   0.254847 0.753819 0.139930 -0.231300
C155  C     C_R   0.270597 0.206843 0.176500 -0.253902
C156  C     C_R   0.742971 0.758776 0.849517 -0.236911
C157  C     C_R   0.293205 0.864831 0.032109 -0.249935
C158  C     C_R   0.749503 0.235241 0.108991 -0.238172
C159  C     C_R   0.707214 0.870580 0.958978 -0.253465
C160  C     C_R   0.296430 0.130690 0.023042 -0.261453
C161  C     C_R   0.818300 0.297011 0.971244 -0.129967
C162  C     C_R   0.201116 0.763191 0.100020 -0.139639
C163  C     C_R   0.219210 0.187799 0.146161 -0.098981
C164  C     C_R   0.797363 0.766036 0.892822 -0.146962
C165  C     C_R   0.344971 0.849628 0.062528 -0.125327
C166  C     C_R   0.697610 0.248376 0.079490 -0.130005
C167  C     C_R   0.654870 0.855893 0.927351 -0.124464
C168  C     C_R   0.347232 0.150445 0.051785 -0.121053
H57   H     H_    0.695459 0.397203 0.904903 0.117937
H58   H     H_    0.349862 0.710837 0.250722 0.124859
H59   H     H_    0.337811 0.294678 0.222180 0.113185
H60   H     H_    0.646739 0.715655 0.737253 0.124742
H61   H     H_    0.199042 0.889574 0.899677 0.123969
H62   H     H_    0.847345 0.201926 0.216912 0.134519
H63   H     H_    0.801216 0.892090 0.095681 0.124823
H64   H     H_    0.199876 0.120861 0.891091 0.125004
H65   H     H_    0.550516 0.349761 0.876133 0.126822
H66   H     H_    0.466456 0.700825 0.187869 0.130044
H67   H     H_    0.460909 0.309177 0.173053 0.126164
H68   H     H_    0.532400 0.704269 0.805258 0.130441
H69   H     H_    0.054404 0.856709 0.882117 0.127528
H70   H     H_    0.940897 0.151635 0.116584 0.125892
H71   H     H_    0.946630 0.853952 0.120899 0.127792
H72   H     H_    0.064070 0.113167 0.907761 0.122980
H73   H     H_    0.434042 0.790837 0.103172 0.166685
H74   H     H_    0.596960 0.289479 0.006755 0.175176
H75   H     H_    0.564906 0.796575 0.886871 0.166590
H76   H     H_    0.432366 0.218434 0.089809 0.165036
H77   H     H_    0.901233 0.227873 0.005609 0.171882
H78   H     H_    0.099521 0.801876 0.017167 0.174328
H79   H     H_    0.115747 0.149083 0.058090 0.167465
H80   H     H_    0.901021 0.801524 0.982429 0.175148
H81   H     H_    0.751888 0.350728 0.900769 0.158119
H82   H     H_    0.270611 0.717459 0.185123 0.163682
H83   H     H_    0.292141 0.230828 0.238620 0.157217
H84   H     H_    0.725940 0.723345 0.801819 0.166826
H85   H     H_    0.278414 0.904780 0.993911 0.165515
H86   H     H_    0.766474 0.198966 0.154548 0.157054
H87   H     H_    0.723274 0.910393 0.998518 0.167051
H88   H     H_    0.280073 0.093636 0.977296 0.171291
N33   N     N_R   0.796931 0.217884 0.654615 0.233068
O1    O     O_R   0.782182 0.272556 0.635186 -0.376269
O2    O     O_R   0.831746 0.204666 0.736417 -0.399643
N34   N     N_R   0.183989 0.744446 0.360653 0.232695
O3    O     O_R   0.233116 0.740741 0.386128 -0.357099
O4    O     O_R   0.149606 0.759436 0.279449 -0.403141
N35   N     N_R   0.104302 0.333384 0.364769 0.241443
O5    O     O_R   0.115843 0.389665 0.375343 -0.351413
O6    O     O_R   0.063412 0.314919 0.290118 -0.364456
N36   N     N_R   0.825688 0.732221 0.642419 0.228347
O7    O     O_R   0.777175 0.734063 0.620829 -0.357355
O8    O     O_R   0.863363 0.740439 0.724776 -0.403903
N37   N     N_R   0.295607 0.719507 0.650483 0.231411
O9    O     O_R   0.278791 0.773384 0.629030 -0.367932
O10   O     O_R   0.332027 0.708411 0.732298 -0.384038
N38   N     N_R   0.693449 0.248682 0.366936 0.232962
O11   O     O_R   0.742730 0.241742 0.395129 -0.357691
O12   O     O_R   0.661264 0.265757 0.285929 -0.399993
N39   N     N_R   0.707904 0.719215 0.351693 0.230253
O13   O     O_R   0.726903 0.772587 0.377179 -0.371649
O14   O     O_R   0.670469 0.710059 0.269443 -0.391630
N40   N     N_R   0.250925 0.401848 0.636771 0.236209
O15   O     O_R   0.204565 0.402485 0.624962 -0.353194
O16   O     O_R   0.291009 0.421987 0.711098 -0.390541
C169  C     C_2   0.837813 0.317922 0.915708 1.050235
O17   O     O_2   0.884752 0.327282 0.948598 -0.606593
O18   O     O_R   0.801951 0.329454 0.826092 -0.773391
H89   H     H_    0.819723 0.344339 0.795426 0.364644
C170  C     C_2   0.171865 0.720184 0.121452 1.078912
O19   O     O_2   0.126940 0.704505 0.065191 -0.634507
O20   O     O_R   0.197604 0.693811 0.204764 -0.743618
H90   H     H_    0.174751 0.663454 0.210523 0.344600
C171  C     C_2   0.198099 0.203666 0.200989 0.993935
O21   O     O_2   0.154686 0.225682 0.167419 -0.630386
O22   O     O_R   0.229498 0.196068 0.292558 -0.795593
H91   H     H_    0.211246 0.208474 0.323314 0.320135
C172  C     C_2   0.825527 0.721218 0.872820 1.076719
O23   O     O_2   0.869662 0.705215 0.930029 -0.632054
O24   O     O_R   0.799403 0.693391 0.789848 -0.744844
H92   H     H_    0.821088 0.661324 0.785583 0.350491
C173  C     C_2   0.375010 0.888557 0.038120 1.032764
O25   O     O_2   0.422176 0.897180 0.090052 -0.620953
O26   O     O_R   0.348666 0.917595 0.956788 -0.782944
H93   H     H_    0.372998 0.943654 0.948201 0.343249
C174  C     C_2   0.671634 0.210914 0.113480 1.065210
O27   O     O_2   0.625972 0.194295 0.064533 -0.640866
O28   O     O_R   0.701064 0.190925 0.200711 -0.744663
H94   H     H_    0.680013 0.163912 0.215576 0.343920
C175  C     C_2   0.625720 0.894887 0.952433 1.029980
O29   O     O_2   0.578733 0.903226 0.900692 -0.623481
O30   O     O_R   0.652685 0.924145 0.034310 -0.791176
H95   H     H_    0.628889 0.950036 0.043468 0.342892
C176  C     C_2   0.376219 0.118334 0.019336 1.023349
O31   O     O_2   0.423849 0.112527 0.067153 -0.622828
O32   O     O_R   0.348524 0.092172 0.935180 -0.797550
H96   H     H_    0.372332 0.070625 0.921112 0.337620

loop_
_geom_bond_atom_site_label_1
_geom_bond_atom_site_label_2
_geom_bond_distance
_ccdc_geom_bond_type
N21   Ni4   1.838504 S    
C155  H83   1.081303 S    
C21   N21   1.345564 A    
C31   H31   1.078844 S    
C173  O25   1.223005 D    
C9    C41   1.385142 A    
C89   C94   1.457326 S    
N35   O6    1.301609 A    
C172  O23   1.222914 D    
C2    C34   1.394532 A    
C156  C164  1.395569 A    
C48   C70   1.452458 S    
C92   C95   1.469296 S    
C143  C163  1.418082 A    
C28   C34   1.393838 A    
C167  C175  1.487035 S    
C114  H65   1.081827 S    
C14   H14   1.078861 S    
C39   C101  1.456305 S    
C24   N24   1.331953 A    
C3    N3    1.346411 A    
N29   Ni8   1.832597 S    
C4    H4    1.080907 S    
C5    H5    1.080408 S    
C134  C150  1.424308 A    
C49   H33   1.083585 S    
C110  C118  1.389921 A    
C63   H47   1.082219 S    
C8    H8    1.080602 S    
C32   H32   1.079511 S    
C28   H28   1.078215 S    
C40   C102  1.477386 S    
C62   C70   1.398698 A    
C25   H25   1.078724 S    
C5    C37   1.391445 A    
C78   H54   1.083247 S    
C146  C149  1.404606 A    
C168  C176  1.486964 S    
N13   N21   1.378374 A    
C123  H60   1.072124 S    
N26   Ni5   1.832597 S    
C9    N9    1.342386 A    
C26   C36   1.398493 A    
C11   H11   1.081232 S    
C12   N12   1.337044 A    
C13   N13   1.334352 A    
C106  C138  1.413068 A    
N35   O5    1.301503 A    
C22   N22   1.330464 A    
C153  H81   1.077222 S    
C108  C116  1.392165 A    
N36   O7    1.301290 A    
C57   C65   1.399561 A    
C110  C142  1.410002 A    
C55   C63   1.382831 A    
C8    C40   1.387167 A    
N15   N23   1.378225 A    
C60   C68   1.397721 A    
C61   C69   1.399851 A    
C159  C167  1.398342 A    
C160  C168  1.397873 A    
C29   C39   1.396474 A    
C133  C141  1.420626 A    
C102  C118  1.398219 A    
C66   C74   1.394595 A    
N34   O3    1.301334 A    
C106  H74   1.078795 S    
C137  C165  1.411925 A    
C21   C45   1.391362 A    
C117  H70   1.082032 S    
C23   C47   1.376857 A    
C146  C153  1.420173 A    
N6    N32   1.394855 A    
C135  C151  1.413784 A    
C150  C157  1.413926 A    
N22   Ni3   1.838504 S    
C35   C97   1.478218 S    
C148  C151  1.403601 A    
C85   N33   1.437153 S    
C33   C99   1.474835 S    
C129  C137  1.420017 A    
C108  C140  1.409712 A    
C26   N26   1.333772 A    
C12   C44   1.382178 A    
C65   C73   1.398798 A    
C71   C79   1.402730 A    
C72   C80   1.396662 A    
N14   N22   1.378374 A    
C3    H3    1.078424 S    
N11   Ni6   1.832896 S    
O24   H92   1.014095 S    
C100  C116  1.400419 A    
O20   H90   1.014102 S    
C5    N5    1.343045 A    
C54   H38   1.083512 S    
C19   C43   1.374910 A    
C147  C152  1.411976 A    
C157  C165  1.398846 A    
C86   C94   1.414374 A    
C136  C152  1.422005 A    
C122  C130  1.392117 A    
C23   N23   1.328767 A    
C176  O31   1.222862 D    
N18   Ni1   1.838504 S    
O32   H96   1.013913 S    
C78   C86   1.387060 A    
C99   C123  1.391443 A    
N1    Ni1   1.837839 S    
C84   N40   1.441113 S    
C97   C121  1.394294 A    
C166  C174  1.490312 S    
C103  C119  1.401606 A    
C30   N30   1.336947 A    
C101  C125  1.382342 A    
N4    Ni1   1.864255 S    
C130  C146  1.415751 A    
C6    H6    1.080535 S    
C51   C59   1.389783 A    
C17   H17   1.081601 S    
N38   O11   1.301198 A    
C52   H36   1.083175 S    
C49   C57   1.389292 A    
C54   C94   1.402608 A    
N28   Ni6   1.834581 S    
N40   O16   1.301562 A    
C20   H20   1.073752 S    
C21   H21   1.074831 S    
C53   C61   1.386786 A    
C23   H23   1.081659 S    
C24   H24   1.078427 S    
C27   N27   1.331708 A    
C133  C149  1.413424 A    
C151  C160  1.410064 A    
N6    Ni4   1.837840 S    
C29   H29   1.081311 S    
C7    C39   1.379828 A    
N33   O2    1.301146 A    
C107  C115  1.396530 A    
C24   C48   1.380576 A    
N16   N24   1.378225 A    
C105  C113  1.397099 A    
C174  O28   1.399041 S    
C30   C40   1.391929 A    
C115  H68   1.081780 S    
C86   N34   1.436802 S    
C112  C144  1.409081 A    
C69   C77   1.398514 A    
C52   C92   1.401828 A    
N5    N31   1.394858 A    
C67   C75   1.397987 A    
C55   C95   1.402003 A    
N7    N29   1.395528 A    
C32   C38   1.394441 A    
C56   C96   1.402965 A    
C82   C90   1.415016 A    
C98   C114  1.398557 A    
C59   C67   1.399152 A    
C87   N35   1.441223 S    
N27   Ni5   1.834580 S    
N14   Ni8   1.829667 S    
C19   N19   1.333302 A    
C91   C96   1.458028 S    
C43   C65   1.456037 S    
N15   Ni8   1.832896 S    
C41   C67   1.454487 S    
C169  O17   1.222836 D    
C42   C68   1.462212 S    
C119  H72   1.081185 S    
C75   C83   1.388320 A    
C120  H71   1.081602 S    
C76   H52   1.082330 S    
C64   C72   1.399626 A    
C13   H13   1.078657 S    
C45   C71   1.464305 S    
C46   C72   1.454362 S    
C10   N10   1.332672 A    
C79   H55   1.082683 S    
C88   N36   1.434293 S    
C116  H67   1.080917 S    
C80   H56   1.082786 S    
C139  C167  1.410863 A    
C14   N14   1.343721 A    
C82   N38   1.437526 S    
C37   C103  1.482024 S    
C1    N1    1.343791 A    
C154  H82   1.074515 S    
N2    N28   1.394855 A    
C64   H48   1.082947 S    
C58   C66   1.398407 A    
C58   H42   1.083244 S    
C7    N7    1.336530 A    
C7    H7    1.078166 S    
C8    N8    1.341572 A    
C74   C82   1.385629 A    
C134  C142  1.423670 A    
C107  H75   1.080740 S    
C138  C166  1.411159 A    
C44   C66   1.445434 S    
C126  C134  1.408449 A    
N11   N19   1.378225 A    
C113  H66   1.081820 S    
C118  H69   1.081542 S    
C15   C47   1.386729 A    
C31   C37   1.392813 A    
N9    Ni5   1.829667 S    
C124  H59   1.074138 S    
C125  H62   1.078760 S    
C121  C129  1.401407 A    
C148  C155  1.411883 A    
N5    Ni3   1.837839 S    
C10   C42   1.377723 A    
C152  C159  1.413865 A    
C14   C46   1.389286 A    
C57   H41   1.082560 S    
C55   H39   1.083713 S    
C165  C173  1.487728 S    
C56   H40   1.083444 S    
C111  H79   1.079263 S    
C112  H80   1.079782 S    
C83   C91   1.413859 A    
C129  C145  1.425574 A    
C6    N6    1.337435 A    
C27   C33   1.397783 A    
C81   C89   1.413520 A    
C124  C132  1.404531 A    
C171  O21   1.222534 D    
C84   C92   1.416204 A    
C155  C163  1.402578 A    
N7    Ni4   1.864253 S    
C126  H61   1.072597 S    
C85   C93   1.412618 A    
C127  C135  1.400274 A    
N1    N27   1.394858 A    
N36   O8    1.301205 A    
C88   C96   1.412724 A    
C175  O30   1.398786 S    
C75   H51   1.083919 S    
C76   C84   1.403304 A    
C111  C143  1.412659 A    
N13   Ni7   1.829667 S    
C109  C117  1.393944 A    
N39   O13   1.301260 A    
C15   N15   1.337847 A    
C16   N16   1.341999 A    
N2    Ni2   1.837840 S    
C26   H26   1.079662 S    
C173  O26   1.399446 S    
N34   O4    1.301370 A    
N16   Ni7   1.832899 S    
C172  O24   1.399082 S    
C145  C150  1.413263 A    
C18   H18   1.081154 S    
C1    H1    1.078014 S    
C50   C58   1.386843 A    
C159  H87   1.079786 S    
O30   H95   1.013912 S    
C160  H88   1.082331 S    
N10   Ni6   1.829667 S    
C17   C41   1.372946 A    
C22   H22   1.077670 S    
N3    Ni2   1.864253 S    
N37   O9    1.301286 A    
C54   C62   1.390362 A    
O18   H89   1.013834 S    
C109  H77   1.080196 S    
C156  H84   1.073869 S    
C157  H85   1.079590 S    
O22   H91   1.013621 S    
C31   N31   1.333365 A    
C38   C104  1.474263 S    
C105  C137  1.414587 A    
O26   H93   1.014145 S    
C74   H50   1.083354 S    
N17   Ni2   1.838504 S    
C11   C43   1.383972 A    
C59   H43   1.082650 S    
C111  C119  1.397551 A    
C144  C164  1.413005 A    
C109  C141  1.413500 A    
C140  C168  1.414810 A    
C141  C161  1.408065 A    
C81   N37   1.437241 S    
C103  C127  1.396694 A    
C101  C117  1.398201 A    
C70   C78   1.396033 A    
C16   C48   1.388371 A    
C51   H35   1.083560 S    
C52   C60   1.382020 A    
C145  C154  1.414811 A    
C153  C161  1.396534 A    
C130  C138  1.425134 A    
C63   C71   1.398251 A    
C149  C158  1.417353 A    
N24   Ni4   1.864960 S    
N31   Ni7   1.834580 S    
C62   H46   1.083106 S    
C90   C93   1.449954 S    
C47   C69   1.452234 S    
C25   N25   1.329720 A    
C127  H64   1.074696 S    
C128  H63   1.073487 S    
C27   H27   1.078868 S    
C29   N29   1.329074 A    
N38   O12   1.301301 A    
C170  O19   1.222537 D    
C50   C90   1.400326 A    
C121  H58   1.071509 S    
C11   N11   1.340986 A    
C12   H12   1.079565 S    
C125  C133  1.389277 A    
C18   C42   1.389270 A    
C123  C131  1.399484 A    
O28   H94   1.014068 S    
N8    N30   1.395531 A    
C2    N2    1.344222 A    
N33   O1    1.301207 A    
C60   H44   1.083374 S    
C61   H45   1.082343 S    
C98   C122  1.382578 A    
C174  O27   1.222419 D    
C107  C139  1.414094 A    
C22   C46   1.378982 A    
C17   N17   1.331281 A    
C135  C143  1.419369 A    
C102  C126  1.397948 A    
C128  C136  1.407529 A    
C131  C147  1.423855 A    
C77   H53   1.083388 S    
C122  H57   1.075098 S    
C170  O20   1.399053 S    
C104  C120  1.398720 A    
C10   H10   1.081532 S    
C79   C87   1.402837 A    
C15   H15   1.081270 S    
C169  O18   1.398760 S    
C132  C148  1.419097 A    
C161  C169  1.487056 S    
C32   N32   1.339421 A    
C162  C170  1.494155 S    
C20   N20   1.333183 A    
C30   H30   1.079122 S    
C112  C120  1.388662 A    
C6    C38   1.382468 A    
C13   C45   1.380878 A    
C106  C114  1.392815 A    
C110  H78   1.079760 S    
C100  C124  1.399383 A    
N39   O14   1.301056 A    
C104  C128  1.395525 A    
C1    C33   1.392018 A    
N9    N17   1.378374 A    
C80   C88   1.384485 A    
N4    N26   1.395531 A    
C108  H76   1.080347 S    
C34   C100  1.479712 S    
C99   C115  1.399112 A    
N40   O15   1.301483 A    
N3    N25   1.395528 A    
C3    C35   1.397372 A    
C56   C64   1.391413 A    
N30   Ni7   1.832598 S    
C97   C113  1.398736 A    
C105  H73   1.080697 S    
C171  O22   1.398286 S    
N23   Ni3   1.864957 S    
C18   N18   1.342416 A    
C158  C166  1.394745 A    
C28   N28   1.333881 A    
C4    C36   1.376851 A    
N12   N20   1.378225 A    
C19   H19   1.081561 S    
C2    H2    1.073635 S    
N10   N18   1.378374 A    
C53   H37   1.083679 S    
C25   C35   1.396500 A    
C147  C156  1.414998 A    
N32   Ni8   1.834581 S    
C158  H86   1.078466 S    
C87   C95   1.415881 A    
C4    N4    1.333009 A    
C36   C98   1.462386 S    
C131  C139  1.420282 A    
C77   C85   1.386795 A    
C68   C76   1.402272 A    
N19   Ni1   1.864957 S    
C73   H49   1.083605 S    
C164  C172  1.495647 S    
N37   O10   1.301170 A    
N12   Ni5   1.832899 S    
C50   H34   1.083604 S    
C142  C162  1.413212 A    
C16   H16   1.079170 S    
C51   C91   1.402743 A    
C163  C171  1.484615 S    
C132  C140  1.423693 A    
C83   N39   1.436278 S    
C49   C89   1.402083 A    
N25   Ni6   1.832595 S    
C20   C44   1.378731 A    
N8    Ni3   1.864255 S    
C176  O32   1.398817 S    
C9    H9    1.081469 S    
C136  C144  1.424213 A    
C53   C93   1.400146 A    
C175  O29   1.222926 D    
C73   C81   1.389427 A    
C154  C162  1.395751 A    
N20   Ni2   1.864960 S    
