data_mof_unit_36203.cif
_audit_creation_date              2012-12-11T15:12:20-0500
_audit_creation_method            fapswitch 2.2
_symmetry_space_group_name_H-M    P1
_symmetry_Int_Tables_number       1
_space_group_crystal_system       triclinic
_cell_length_a                    30.489081
_cell_length_b                    22.33743
_cell_length_c                    17.983439
_cell_angle_alpha                 90.258182
_cell_angle_beta                  123.858734
_cell_angle_gamma                 89.810062
_cell_volume                      10170.4510868

loop_
_atom_site_label
_atom_site_type_symbol
_atom_type_description
_atom_site_fract_x
_atom_site_fract_y
_atom_site_fract_z
_atom_type_partial_charge
C1    C     C_R   0.544518 0.584441 0.742352 -0.140693
C2    C     C_R   0.264632 0.741927 0.415163 -0.082516
C3    C     C_R   0.374287 0.187540 0.134350 0.172807
C4    C     C_R   0.809796 0.159352 0.934234 0.175254
C5    C     C_R   0.126279 0.688462 0.865641 0.165392
C6    C     C_R   0.190388 0.159192 0.067118 0.162940
C7    C     C_R   0.873835 0.687945 0.133518 0.162929
C8    C     C_R   0.229523 0.649481 0.930943 0.065120
C9    C     C_R   0.703146 0.188981 0.858631 0.067642
C10   C     C_R   0.770761 0.649216 0.069092 0.060965
C11   C     C_R   0.297329 0.187746 0.144482 0.067259
C12   C     C_R   0.729103 0.149315 0.932304 0.060472
C13   C     C_R   0.259615 0.370191 0.563587 -0.091062
C14   C     C_R   0.203600 0.688613 0.856573 0.066475
C15   C     C_R   0.271465 0.148072 0.070372 0.070803
C16   C     C_R   0.796873 0.688482 0.143641 0.068650
C17   C     C_R   0.728531 0.204512 0.815390 -0.183108
C18   C     C_R   0.199799 0.622821 0.960372 -0.185541
C19   C     C_R   0.271597 0.203893 0.187083 -0.205947
C20   C     C_R   0.800287 0.622223 0.039156 -0.183958
C21   C     C_R   0.229474 0.704445 0.814321 -0.187499
C22   C     C_R   0.699751 0.123129 0.962804 -0.187035
C23   C     C_R   0.771196 0.704713 0.186291 -0.186245
C24   C     C_R   0.728551 0.750120 0.585865 -0.050447
C25   C     C_R   0.301127 0.121194 0.040641 -0.199453
C26   C     C_R   0.780797 0.188292 0.851643 -0.200636
C27   C     C_R   0.148195 0.640943 0.925915 -0.193913
C28   C     C_R   0.219195 0.188138 0.150023 -0.165342
C29   C     C_R   0.851805 0.640254 0.073139 -0.190116
C30   C     C_R   0.282028 0.688973 0.851947 -0.184607
C31   C     C_R   0.648797 0.142514 0.930728 -0.193183
C32   C     C_R   0.718625 0.689589 0.148820 -0.201736
C33   C     C_R   0.352531 0.139576 0.074440 -0.207760
C34   C     C_R   0.583306 0.603530 0.424246 -0.128059
C35   C     C_R   0.280773 0.871187 0.560030 -0.085280
C36   C     C_R   0.400749 0.426478 0.572642 -0.095634
C37   C     C_R   0.414396 0.600870 0.575709 -0.063399
C38   C     C_R   0.598375 0.422808 0.427260 -0.151890
C39   C     C_R   0.082771 0.103408 0.424240 0.002288
C40   C     C_R   0.903242 0.927866 0.576439 -0.149340
C41   C     C_R   0.927962 0.113408 0.574208 -0.143931
C42   C     C_R   0.096757 0.928597 0.423297 -0.129382
C43   C     C_R   0.382485 0.584132 0.257927 -0.141742
C44   C     C_R   0.606384 0.391041 0.708390 -0.124668
C45   C     C_R   0.617491 0.584159 0.742181 -0.135598
C46   C     C_R   0.807607 0.284621 0.420166 -0.070819
C47   C     C_R   0.394721 0.389679 0.295921 -0.121605
C48   C     C_R   0.882273 0.082666 0.256846 -0.043255
C49   C     C_R   0.105318 0.889651 0.703603 -0.120096
C50   C     C_R   0.117784 0.083574 0.742555 -0.128079
C51   C     C_R   0.894731 0.889686 0.295987 -0.124557
C52   C     C_R   0.597637 0.600107 0.793042 0.062228
C53   C     C_R   0.423774 0.355566 0.272406 0.055317
C54   C     C_R   0.402342 0.599869 0.207156 0.064029
C55   C     C_R   0.577356 0.357488 0.732097 0.057425
C56   C     C_R   0.098419 0.098255 0.794503 0.063564
C57   C     C_R   0.716822 0.875247 0.440490 -0.052361
C58   C     C_R   0.923802 0.855557 0.272505 0.058219
C59   C     C_R   0.902045 0.098310 0.206030 0.075953
C60   C     C_R   0.076335 0.855668 0.727026 0.056331
C61   C     C_R   0.624758 0.632641 0.498707 0.059415
C62   C     C_R   0.349086 0.422166 0.497718 0.160230
C63   C     C_R   0.371347 0.627762 0.501051 0.168732
C64   C     C_R   0.648636 0.409416 0.502186 0.117759
C65   C     C_R   0.126535 0.129693 0.498264 0.125260
C66   C     C_R   0.851648 0.921151 0.505096 0.130422
C67   C     C_R   0.893469 0.148312 0.499651 0.096420
C68   C     C_R   0.175442 0.245779 0.412495 -0.044424
C69   C     C_R   0.148432 0.922966 0.494383 0.155535
C70   C     C_R   0.691389 0.382708 0.423661 -0.277007
C71   C     C_R   0.364819 0.719148 0.569598 -0.315474
C72   C     C_R   0.256704 0.391468 0.407705 -0.319539
C73   C     C_R   0.628753 0.727232 0.431465 -0.273020
C74   C     C_R   0.180924 0.891402 0.403741 -0.251999
C75   C     C_R   0.888651 0.233797 0.582058 -0.287683
C76   C     C_R   0.818738 0.889784 0.595303 -0.285382
C77   C     C_R   0.177744 0.220941 0.567115 -0.281015
C78   C     C_R   0.697491 0.397452 0.504994 -0.064790
C79   C     C_R   0.778611 0.339524 0.503662 0.030402
C80   C     C_R   0.339791 0.676681 0.500513 -0.066794
C81   C     C_R   0.298777 0.413466 0.490273 -0.025232
C82   C     C_R   0.654503 0.683960 0.499307 -0.059866
C83   C     C_R   0.193424 0.915145 0.485584 -0.030442
C84   C     C_R   0.876911 0.210503 0.500394 -0.053961
C85   C     C_R   0.806487 0.912855 0.513495 -0.085801
C86   C     C_R   0.156235 0.179579 0.496359 -0.088396
C87   C     C_R   0.748982 0.393987 0.586119 0.451838
C88   C     C_R   0.287125 0.685115 0.427194 0.459306
C89   C     C_R   0.294827 0.412012 0.564920 0.481120
C90   C     C_R   0.288769 0.783206 0.487214 0.032044
C91   C     C_R   0.707429 0.692675 0.571193 0.366426
C92   C     C_R   0.246570 0.914153 0.559953 0.457976
C93   C     C_R   0.842880 0.243259 0.420712 0.465452
C94   C     C_R   0.752929 0.914888 0.440041 0.401521
C95   C     C_R   0.159727 0.189110 0.422173 0.404594
C96   C     C_R   0.226873 0.335779 0.484921 0.021068
C97   C     C_R   0.468450 0.389075 0.296457 -0.125378
C98   C     C_R   0.705337 0.790952 0.514100 0.029435
C99   C     C_R   0.261376 0.834762 0.483080 0.021335
C100  C     C_R   0.815296 0.301988 0.502413 0.023609
C101  C     C_R   0.734651 0.840342 0.517864 0.020145
C102  C     C_R   0.200517 0.285293 0.486778 0.026871
C103  C     C_R   0.732146 0.355872 0.422418 0.153916
C104  C     C_R   0.338336 0.770896 0.565569 0.166529
C105  C     C_R   0.223120 0.349552 0.405514 0.169552
C106  C     C_R   0.655704 0.778894 0.435587 0.149684
C107  C     C_R   0.212718 0.847744 0.403306 0.132670
C108  C     C_R   0.455439 0.584114 0.257722 -0.133510
C109  C     C_R   0.858722 0.279987 0.583562 0.154514
C110  C     C_R   0.784187 0.851395 0.597226 0.151332
C111  C     C_R   0.202667 0.272051 0.564968 0.159507
C112  C     C_R   0.833671 0.339416 0.666481 -0.067853
C113  C     C_R   0.218038 0.758155 0.333965 -0.070199
C114  C     C_R   0.259183 0.357748 0.639918 -0.063473
C115  C     C_R   0.774640 0.766023 0.667897 -0.078010
C116  C     C_R   0.331632 0.859576 0.636444 -0.066419
C117  C     C_R   0.763165 0.306357 0.339778 -0.053576
C118  C     C_R   0.665429 0.865036 0.364235 -0.077904
C119  C     C_R   0.531984 0.390287 0.705516 -0.125597
C120  C     C_R   0.168408 0.263351 0.331637 -0.080862
C121  C     C_R   0.360523 0.810443 0.638340 -0.225599
C122  C     C_R   0.725272 0.340586 0.340944 -0.213201
C123  C     C_R   0.634801 0.817895 0.362616 -0.228796
C124  C     C_R   0.191169 0.315716 0.327721 -0.213306
C125  C     C_R   0.868464 0.299999 0.665071 -0.219716
C126  C     C_R   0.192979 0.811583 0.327468 -0.199052
C127  C     C_R   0.230041 0.309746 0.639794 -0.212367
C128  C     C_R   0.801893 0.817270 0.674018 -0.199047
C129  C     C_R   0.370937 0.617528 0.111584 0.125446
C130  C     C_R   0.045413 0.082467 0.744052 -0.140542
C131  C     C_R   0.591302 0.297411 0.773471 0.123951
C132  C     C_R   0.629160 0.617824 0.888755 0.127026
C133  C     C_R   0.410243 0.294749 0.232625 0.126931
C134  C     C_R   0.870475 0.115606 0.110358 0.118646
C135  C     C_R   0.089995 0.795034 0.766816 0.124727
C136  C     C_R   0.130043 0.115492 0.890448 0.126140
C137  C     C_R   0.910228 0.794791 0.232601 0.125053
C138  C     C_R   0.365685 0.654526 0.980047 -0.178240
C139  C     C_R   0.580406 0.217422 0.852655 -0.185289
C140  C     C_R   0.634749 0.655407 0.020706 -0.194649
C141  C     C_R   0.968474 0.889042 0.296544 -0.132267
C142  C     C_R   0.421699 0.213360 0.155050 -0.190297
C143  C     C_R   0.864578 0.152610 0.978289 -0.192607
C144  C     C_R   0.078571 0.714121 0.844186 -0.180193
C145  C     C_R   0.135562 0.152952 0.022454 -0.168578
C146  C     C_R   0.921346 0.713578 0.154370 -0.181258
C147  C     C_R   0.395581 0.633716 0.067943 -0.164946
C148  C     C_R   0.562998 0.270965 0.805081 -0.158094
C149  C     C_R   0.604672 0.634486 0.932664 -0.164402
C150  C     C_R   0.439202 0.267027 0.202836 -0.159976
C151  C     C_R   0.894774 0.131447 0.066024 -0.143318
C152  C     C_R   0.955267 0.083349 0.257137 -0.134774
C153  C     C_R   0.060887 0.767471 0.796100 -0.156987
C154  C     C_R   0.105555 0.131878 0.934491 -0.171137
C155  C     C_R   0.939059 0.767099 0.202533 -0.159970
C156  C     C_R   0.315674 0.619496 0.063889 -0.243784
C157  C     C_R   0.634768 0.267018 0.784214 -0.236378
C158  C     C_R   0.684431 0.619379 0.936315 -0.242693
C159  C     C_R   0.366062 0.265282 0.220220 -0.244939
C160  C     C_R   0.815294 0.118108 0.063494 -0.257274
C161  C     C_R   0.134495 0.765667 0.779949 -0.238777
C162  C     C_R   0.185292 0.117327 0.937902 -0.245988
C163  C     C_R   0.031610 0.889183 0.703183 -0.127553
C164  C     C_R   0.866027 0.765416 0.220175 -0.238688
C165  C     C_R   0.284820 0.640832 0.975615 0.083543
C166  C     C_R   0.654115 0.214229 0.834608 0.083424
C167  C     C_R   0.715459 0.640852 0.024673 0.084504
C168  C     C_R   0.346780 0.212233 0.169878 0.085591
C169  C     C_R   0.784183 0.139831 0.975572 0.088840
C170  C     C_R   0.153914 0.712922 0.830520 0.085261
C171  C     C_R   0.216249 0.139146 0.026154 0.082226
C172  C     C_R   0.846480 0.712612 0.169337 0.084744
C173  C     C_R   0.632617 0.604606 0.574033 -0.080763
C174  C     C_R   0.787451 0.358575 0.586083 -0.069260
C175  C     C_R   0.352540 0.428553 0.425327 -0.143654
C176  C     C_R   0.365383 0.602001 0.425811 -0.064930
C177  C     C_R   0.644701 0.416075 0.574239 -0.086307
C178  C     C_R   0.134960 0.101875 0.574007 -0.059031
C179  C     C_R   0.852723 0.925796 0.429117 -0.084974
C180  C     C_R   0.875591 0.111570 0.425724 0.009566
C181  C     C_R   0.147460 0.926932 0.570541 -0.101549
C182  C     C_R   0.310804 0.660578 0.934992 0.174382
C183  C     C_R   0.627152 0.190567 0.871473 0.167371
C184  C     C_R   0.689649 0.661086 0.065610 0.176104
H1    H     H_    0.518801 0.581801 0.765873 0.097816
H2    H     H_    0.297075 0.608441 0.098080 0.123627
H3    H     H_    0.699962 0.558777 0.534390 0.361618
H4    H     H_    0.245558 0.055530 0.662474 0.368924
H5    H     H_    0.807486 0.204530 0.195675 0.374424
H6    H     H_    0.782120 0.041388 0.441016 0.340315
H7    H     H_    0.202697 0.060859 0.452710 0.384847
H8    H     H_    0.344243 0.286603 0.243527 0.114444
H9    H     H_    0.702933 0.607900 0.901986 0.121009
H10   H     H_    0.156462 0.786923 0.757147 0.117276
H11   H     H_    0.796971 0.107443 0.098220 0.124718
H12   H     H_    0.844357 0.786704 0.243783 0.117520
H13   H     H_    0.203737 0.105863 0.903434 0.116402
H14   H     H_    0.528597 0.292490 0.796293 0.125692
H15   H     H_    0.438069 0.632396 0.102263 0.115273
H16   H     H_    0.474150 0.287719 0.212945 0.119635
H17   H     H_    0.500372 0.376205 0.290072 0.098353
H18   H     H_    0.562183 0.633450 0.898434 0.117196
H19   H     H_    0.025680 0.788069 0.785417 0.120764
H20   H     H_    0.937212 0.129667 0.099727 0.131747
H21   H     H_    0.974039 0.787727 0.212675 0.120164
H22   H     H_    0.063077 0.130643 0.900347 0.117365
H23   H     H_    0.385788 0.668738 0.948928 0.127762
H24   H     H_    0.559088 0.199010 0.879395 0.135888
H25   H     H_    0.614780 0.670005 0.052067 0.127461
H26   H     H_    0.443489 0.194085 0.129488 0.135159
H27   H     H_    0.884405 0.166646 0.946616 0.128618
H28   H     H_    0.481108 0.581147 0.234108 0.089609
H29   H     H_    0.056669 0.695013 0.869399 0.138715
H30   H     H_    0.115563 0.167360 0.053854 0.143810
H31   H     H_    0.943021 0.694330 0.128576 0.138210
H32   H     H_    0.708576 0.228979 0.753146 0.137458
H33   H     H_    0.215694 0.587589 0.009742 0.143183
H34   H     H_    0.291448 0.228429 0.249519 0.141756
H35   H     H_    0.784286 0.586847 0.989670 0.149107
H36   H     H_    0.209606 0.728501 0.751709 0.140061
H37   H     H_    0.715492 0.087416 0.011399 0.147472
H38   H     H_    0.791208 0.728866 0.249057 0.140432
H39   H     H_    0.499982 0.377850 0.711754 0.102185
H40   H     H_    0.285322 0.085604 0.991503 0.142903
H41   H     H_    0.660951 0.616054 0.643216 0.142087
H42   H     H_    0.320620 0.437542 0.357046 0.101015
H43   H     H_    0.336693 0.612462 0.356524 0.146136
H44   H     H_    0.675060 0.410402 0.643528 0.164162
H45   H     H_    0.166236 0.110126 0.643148 0.091341
H46   H     H_    0.819122 0.927878 0.360742 0.177762
H47   H     H_    0.846503 0.121606 0.356754 0.175744
H48   H     H_    0.181124 0.929618 0.638837 0.174438
H49   H     H_    0.567423 0.612435 0.354637 0.103762
H50   H     H_    0.020284 0.078363 0.768603 0.089147
H51   H     H_    0.412996 0.428855 0.641521 0.170234
H52   H     H_    0.429543 0.608828 0.645357 0.087086
H53   H     H_    0.587757 0.429526 0.359692 0.099153
H54   H     H_    0.064129 0.114605 0.354709 0.148056
H55   H     H_    0.916901 0.936236 0.645308 0.094394
H56   H     H_    0.949520 0.126736 0.643431 0.105081
H57   H     H_    0.082800 0.937010 0.354401 0.115653
H58   H     H_    0.341596 0.581681 0.235829 0.109433
H59   H     H_    0.644398 0.380379 0.721209 0.105649
H60   H     H_    0.658365 0.581543 0.764181 0.102676
H61   H     H_    0.000414 0.876109 0.290236 0.097856
H62   H     H_    0.358056 0.378376 0.288289 0.095003
H63   H     H_    0.841374 0.079118 0.234341 0.102063
H64   H     H_    0.141922 0.878258 0.710872 0.100202
H65   H     H_    0.158570 0.081401 0.763922 0.094601
H66   H     H_    0.858061 0.878448 0.288369 0.101350
H67   H     H_    0.653845 0.388639 0.360537 0.140364
H68   H     H_    0.404882 0.711934 0.626711 0.144261
H69   H     H_    0.254953 0.397835 0.346663 0.141255
H70   H     H_    0.588688 0.719809 0.374478 0.144112
H71   H     H_    0.142297 0.897355 0.342904 0.146209
H72   H     H_    0.980954 0.080210 0.233569 0.110473
H73   H     H_    0.918179 0.213278 0.644951 0.141382
H74   H     H_    0.858169 0.892681 0.655188 0.139796
H75   H     H_    0.175830 0.213003 0.624665 0.143923
H76   H     H_    0.841947 0.351108 0.731415 0.199255
H77   H     H_    0.200378 0.729593 0.275433 0.190281
H78   H     H_    0.283200 0.382526 0.701647 0.199517
H79   H     H_    0.790881 0.737516 0.726121 0.173054
H80   H     H_    0.348628 0.886067 0.696786 0.202962
H81   H     H_    0.755246 0.293628 0.275315 0.198665
H82   H     H_    0.649542 0.890630 0.303574 0.201112
H83   H     H_    0.999706 0.876383 0.709466 0.099343
H84   H     H_    0.146088 0.236493 0.271477 0.181842
H85   H     H_    0.399042 0.801599 0.698590 0.136560
H86   H     H_    0.689749 0.353536 0.277898 0.136598
H87   H     H_    0.596228 0.809634 0.302149 0.137868
H88   H     H_    0.187416 0.326916 0.265810 0.129873
H89   H     H_    0.901992 0.283361 0.727970 0.134209
H90   H     H_    0.155853 0.822008 0.265329 0.133584
H91   H     H_    0.231372 0.300112 0.700039 0.137294
H92   H     H_    0.839385 0.826664 0.736138 0.130680
H93   H     H_    0.799532 0.202123 0.818017 0.138574
H94   H     H_    0.655806 0.287303 0.758948 0.121788
H95   H     H_    0.126894 0.620681 0.951495 0.149734
H96   H     H_    0.200229 0.202341 0.183295 0.155771
H97   H     H_    0.872915 0.619792 0.047081 0.154667
H98   H     H_    0.301094 0.702919 0.818925 0.141982
H99   H     H_    0.627889 0.122738 0.957363 0.149268
H100  H     H_    0.699705 0.703896 0.182108 0.141521
H101  H     H_    0.373767 0.119124 0.048610 0.146130
H102  H     H_    0.731047 0.500906 0.721596 0.373721
H103  H     H_    0.250474 0.526668 0.370993 0.370068
H104  H     H_    0.365874 0.551312 0.671053 0.365691
N1    N     N_R   0.532970 0.559900 0.665210 -0.044360
N2    N     N_R   0.402100 0.440070 0.454470 -0.046812
N3    N     N_R   0.402100 0.559930 0.454470 -0.054618
N4    N     N_R   0.597900 0.440070 0.545530 -0.051118
N5    N     N_R   0.097900 0.059930 0.545530 -0.045317
N6    N     N_R   0.902100 0.940070 0.454470 -0.056142
N7    N     N_R   0.902100 0.059930 0.454470 -0.052019
N8    N     N_R   0.097900 0.940070 0.545530 -0.056147
N9    N     N_R   0.567170 0.559950 0.454460 -0.045404
N10   N     N_R   0.432830 0.440050 0.545540 -0.055990
N11   N     N_R   0.432830 0.559950 0.545540 -0.047389
N12   N     N_R   0.467030 0.440100 0.334790 -0.041661
N13   N     N_R   0.567170 0.440050 0.454460 -0.045831
N14   N     N_R   0.067170 0.059950 0.454460 -0.058417
N15   N     N_R   0.932830 0.940050 0.545540 -0.046889
N16   N     N_R   0.932830 0.059950 0.545540 -0.049195
N17   N     N_R   0.067170 0.940050 0.454460 -0.051432
N18   N     N_R   0.421470 0.559970 0.334770 -0.046053
N19   N     N_R   0.578530 0.440030 0.665230 -0.043961
N20   N     N_R   0.578530 0.559970 0.665230 -0.044761
N21   N     N_R   0.421470 0.440030 0.334770 -0.041871
N22   N     N_R   0.921470 0.059970 0.334770 -0.047828
N23   N     N_R   0.467030 0.559900 0.334790 -0.040967
N24   N     N_R   0.078530 0.940030 0.665230 -0.043215
N25   N     N_R   0.078530 0.059970 0.665230 -0.041901
N26   N     N_R   0.921470 0.940030 0.334770 -0.048120
N27   N     N_R   0.532970 0.440100 0.665210 -0.042594
N28   N     N_R   0.032970 0.059900 0.665210 -0.039430
N29   N     N_R   0.967030 0.940100 0.334790 -0.046530
N30   N     N_R   0.967030 0.059900 0.334790 -0.048316
N31   N     N_R   0.032970 0.940100 0.665210 -0.043025
N32   N     N_R   0.597900 0.559930 0.545530 -0.043913
Ni1   Ni    Ni4+2 0.483030 0.500000 0.604430 0.238317
Ni2   Ni    Ni4+2 0.516970 0.500000 0.395570 0.212293
Ni3   Ni    Ni4+2 0.983030 1.000000 0.604430 0.212028
Ni4   Ni    Ni4+2 0.016970 0.000000 0.395570 0.238418
Ni5   Ni    Ni4+2 0.587400 0.500000 0.604430 0.234980
Ni6   Ni    Ni4+2 0.412600 0.500000 0.395570 0.227336
Ni7   Ni    Ni4+2 0.087400 1.000000 0.604430 0.243508
Ni8   Ni    Ni4+2 0.912600 0.000000 0.395570 0.253388
O1    O     O_2   0.773424 0.397564 0.754468 -0.369144
O2    O     O_2   0.806248 0.650046 0.646309 -0.228623
O3    O     O_2   0.756128 0.610963 0.703258 -0.294834
O4    O     O_3   0.733622 0.574238 0.546507 -0.442606
O5    O     O_2   0.282216 0.940052 0.730638 -0.332615
O6    O     O_2   0.320708 0.995375 0.663000 -0.287207
O7    O     O_3   0.226424 0.024176 0.616138 -0.565491
O8    O     O_2   0.849229 0.304526 0.299218 -0.265226
O9    O     O_2   0.902711 0.213729 0.357581 -0.297736
O10   O     O_3   0.800879 0.202642 0.243663 -0.586816
O11   O     O_2   0.718739 0.940614 0.270341 -0.296431
O12   O     O_2   0.823016 0.463989 0.719366 -0.201542
O13   O     O_2   0.681292 0.998990 0.337362 -0.280417
O14   O     O_3   0.776594 0.023552 0.385872 -0.532608
O15   O     O_2   0.103412 0.129305 0.265410 -0.315517
O16   O     O_2   0.198485 0.135770 0.335352 -0.294519
O17   O     O_3   0.164906 0.061770 0.402863 -0.505458
O18   O     O_3   0.728270 0.494652 0.664527 -0.512181
O19   O     O_2   0.192939 0.630264 0.349272 -0.261830
O20   O     O_2   0.238546 0.622299 0.272879 -0.360741
O21   O     O_3   0.272418 0.557956 0.415675 -0.493103
O22   O     O_2   0.290500 0.491646 0.672551 -0.274690
O23   O     O_2   0.373194 0.436003 0.735049 -0.344049
O24   O     O_3   0.351637 0.521722 0.621672 -0.519241
S1    S     S_3+6 0.769449 0.437787 0.684058 -0.032729
S2    S     S_3+6 0.246013 0.623263 0.362869 -0.053719
S3    S     S_3+6 0.328354 0.465718 0.652331 -0.056646
S4    S     S_3+6 0.752139 0.631096 0.620165 0.014555
S5    S     S_3+6 0.270632 0.968888 0.646111 -0.080368
S6    S     S_3+6 0.850695 0.241519 0.329592 -0.065998
S7    S     S_3+6 0.730826 0.969978 0.355149 -0.059349
S8    S     S_3+6 0.156212 0.128534 0.353445 -0.059463

loop_
_geom_bond_atom_site_label_1
_geom_bond_atom_site_label_2
_ccdc_geom_bond_type
C71   C104  A    
C7    C29   A    
C96   C102  A    
C73   C82   A    
C181  N8    A    
C74   C83   A    
C14   C170  A    
C66   C85   S    
C41   C67   A    
C51   N26   A    
C55   C119  A    
C36   H51   S    
O1    S1    D    
C49   C60   A    
C92   S5    S    
C24   C98   A    
O12   S1    D    
C14   C21   A    
C94   S7    S    
C40   H55   S    
C61   C82   S    
C65   C178  A    
C30   H98   S    
C60   C163  A    
C2    C90   A    
C163  N31   A    
N20   Ni5   S    
C56   C136  S    
C11   C15   A    
C162  C171  A    
C10   C20   A    
C21   H36   S    
C93   S6    S    
N10   Ni1   S    
N7    Ni8   S    
N2    Ni6   S    
C47   C53   A    
C7    C146  A    
C143  C151  A    
C100  C109  A    
C7    C172  A    
H6    O14   S    
C102  C111  A    
C36   C62   A    
N21   Ni6   S    
N15   Ni3   S    
C37   C63   A    
C140  H25   S    
C28   H96   S    
C38   C64   A    
O9    S6    D    
C22   H37   S    
N31   Ni3   S    
C68   C95   A    
C116  C121  A    
C52   C132  S    
C65   C86   S    
C53   C133  S    
C4    C169  A    
C152  H72   S    
C70   C103  A    
C125  H89   S    
C42   N17   A    
C108  N23   A    
C101  C110  A    
H103  O21   S    
C34   C61   A    
C88   S2    S    
C82   C91   A    
C46   C117  A    
C31   H99   S    
C116  H80   S    
C43   C54   A    
C23   H38   S    
N11   Ni1   S    
C119  H39   S    
N24   N31   A    
C1    N1    A    
C90   C104  A    
N6    N15   A    
H104  O24   S    
C62   C81   S    
C33   H101  S    
O17   S8    S    
C87   C174  A    
C175  N2    A    
C159  H8    S    
C127  H91   S    
C155  H21   S    
C129  C156  A    
C143  H27   S    
C1    H1    S    
C66   C179  A    
C98   C106  A    
H7    O17   S    
C114  H78   S    
C80   C88   A    
C10   C16   A    
C177  H44   S    
C64   C177  A    
C44   C55   A    
C62   C175  A    
C140  C149  A    
C84   C93   A    
C138  C182  A    
C129  C147  A    
C49   H64   S    
C86   C95   A    
C145  H30   S    
C72   H69   S    
N22   Ni8   S    
C179  N6    A    
C173  H41   S    
C76   C85   A    
C69   C181  A    
C57   C118  A    
C153  H19   S    
C41   H56   S    
C78   C87   A    
C37   N11   A    
C134  C160  A    
N8    Ni7   S    
C173  N32   A    
N12   Ni2   S    
C58   C141  A    
O20   S2    D    
C175  H42   S    
C176  H43   S    
C44   N19   A    
C9    C166  A    
C67   C180  A    
C75   C84   A    
C15   C25   A    
C134  C151  A    
O24   S3    S    
C12   C22   A    
C136  C162  A    
C95   S8    S    
C137  C155  A    
C77   C111  A    
C74   C107  A    
C5    C27   A    
C6    C28   A    
N3    Ni6   S    
C141  H61   S    
C5    C170  A    
C126  H90   S    
C135  C161  A    
C79   C103  A    
C97   N12   A    
O14   S7    S    
N12   N21   A    
C108  H28   S    
C63   C80   S    
C43   H58   S    
C130  N28   A    
C139  C148  A    
C13   C96   A    
O2    S4    D    
C113  C126  A    
C45   C52   A    
C50   C56   A    
C115  C128  A    
C73   H70   S    
C40   N15   A    
C117  C122  A    
C36   N10   A    
C167  C184  A    
C178  N5    A    
N4    N13   A    
N25   Ni7   S    
C48   N22   A    
C19   C28   A    
C145  C154  A    
C76   C110  A    
C74   H71   S    
C57   C94   A    
N5    Ni7   S    
C20   H35   S    
C164  C172  A    
N19   N27   A    
C49   N24   A    
C121  H85   S    
C90   C99   A    
N4    Ni5   S    
C48   C59   A    
O5    S5    D    
C123  H87   S    
C124  H88   S    
C112  C174  A    
C64   C78   S    
C133  C150  A    
C13   C114  A    
C97   H17   S    
C164  H12   S    
C12   C169  A    
C156  H2    S    
C16   C23   A    
C57   C101  A    
C59   C134  S    
N18   N23   A    
C54   C108  A    
C112  H76   S    
N29   Ni4   S    
N26   Ni8   S    
O22   S3    D    
O3    S4    D    
C26   H93   S    
O19   S2    D    
C9    C12   A    
C8    C165  A    
C77   H75   S    
C110  C128  A    
N13   Ni2   S    
C152  N30   A    
C34   H49   S    
C149  H18   S    
C117  H81   S    
C25   C33   A    
C96   C105  A    
C180  H47   S    
C120  H84   S    
C39   C65   A    
C147  H15   S    
N2    N10   A    
C151  H20   S    
C63   C176  A    
C59   C152  A    
C11   C19   A    
C140  C184  A    
O11   S7    D    
C39   N14   A    
C165  C182  A    
C68   C102  A    
C146  H31   S    
O23   S3    D    
C3    C33   A    
C181  H48   S    
N8    N17   A    
C25   H40   S    
C131  C157  A    
C51   H66   S    
C50   N25   A    
H3    O4    S    
C146  C155  A    
C75   H73   S    
C158  C167  A    
C160  C169  A    
C17   H32   S    
C72   C81   A    
O13   S7    D    
C81   C89   A    
C35   C92   A    
N26   N29   A    
C40   C66   A    
O6    S5    D    
C132  C149  A    
C79   C174  A    
C150  H16   S    
O16   S8    D    
C41   N16   A    
N6    Ni8   S    
N1    Ni1   S    
C158  H9    S    
C79   C100  A    
C6    C145  A    
C5    C144  A    
C130  H50   S    
C132  C158  A    
C105  C124  A    
O8    S6    D    
C87   S1    S    
N14   Ni4   S    
C136  C154  A    
O10   S6    S    
C15   C171  A    
C35   C116  A    
C176  N3    A    
N32   Ni5   S    
C9    C17   A    
C45   H60   S    
C89   S3    S    
C160  H11   S    
C55   C131  S    
C11   C168  A    
C119  N27   A    
C71   H68   S    
C38   N13   A    
C163  H83   S    
H5    O10   S    
C166  C183  A    
C4    C26   A    
N9    Ni2   S    
N30   Ni4   S    
C91   S4    S    
O4    S4    S    
C98   C101  A    
C99   C107  A    
C21   C30   A    
C42   H57   S    
C47   N21   A    
C23   C32   A    
C142  C150  A    
N18   Ni6   S    
C114  C127  A    
C156  C165  A    
C118  C123  A    
C1    C52   A    
C8    C18   A    
C122  H86   S    
C72   C105  A    
C29   H97   S    
O7    S5    S    
N19   Ni5   S    
C45   N20   A    
C133  C159  A    
C32   H100  S    
C103  C122  A    
C47   H62   S    
C68   C120  A    
N17   Ni4   S    
C70   C78   A    
C30   C182  A    
H102  O18   S    
C4    C143  A    
N1    N20   A    
C83   C92   A    
C46   C93   A    
C162  H13   S    
C20   C29   A    
C17   C26   A    
C48   H63   S    
C144  H29   S    
C2    C113  A    
C141  N29   A    
C159  C168  A    
C144  C153  A    
C128  H92   S    
C157  H94   S    
C118  H82   S    
N28   Ni3   S    
C10   C167  A    
C106  C123  A    
C43   N18   A    
C2    C88   A    
N3    N11   A    
O18   S1    S    
C67   C84   S    
N16   Ni3   S    
C3    C142  A    
C35   C99   A    
C71   C80   A    
C3    C168  A    
C13   C89   A    
C6    C171  A    
C75   C109  A    
C22   C31   A    
C61   C173  A    
C178  H45   S    
C51   C58   A    
N25   N28   A    
C27   H95   S    
C104  C121  A    
N22   N30   A    
C53   C97   A    
C76   H74   S    
C42   C69   A    
C69   C83   S    
C85   C94   A    
C16   C172  A    
C138  C147  A    
N24   Ni7   S    
C112  C125  A    
C131  C148  A    
H4    O7    S    
C113  H77   S    
C179  H46   S    
C60   C135  S    
C154  H22   S    
C50   H65   S    
C115  H79   S    
C161  C170  A    
C58   C137  S    
C109  C125  A    
C77   C86   A    
C111  C127  A    
C142  H26   S    
C24   C91   A    
N23   Ni2   S    
C139  C183  A    
C37   H52   S    
C54   C129  S    
C46   C100  A    
C177  N4    A    
C8    C14   A    
C31   C183  A    
C32   C184  A    
C18   C27   A    
C107  C126  A    
C157  C166  A    
C137  C164  A    
C138  H23   S    
C135  C153  A    
C19   H34   S    
C180  N7    A    
N27   Ni1   S    
C38   H53   S    
C148  H14   S    
C73   C106  A    
C34   N9    A    
O21   S2    S    
C161  H10   S    
C56   C130  A    
C139  H24   S    
O15   S8    D    
C24   C115  A    
N9    N32   A    
N5    N14   A    
C18   H33   S    
C70   H67   S    
C39   H54   S    
C120  C124  A    
C44   H59   S    
N7    N16   A    
