data_mof_unit_17491.cif
_audit_creation_date              2012-12-11T15:59:29-0500
_audit_creation_method            fapswitch 2.2
_symmetry_space_group_name_H-M    P1
_symmetry_Int_Tables_number       1
_space_group_crystal_system       triclinic
_cell_length_a                    10.687037
_cell_length_b                    10.792161
_cell_length_c                    17.067183
_cell_angle_alpha                 100.127055
_cell_angle_beta                  99.761049
_cell_angle_gamma                 60.720759
_cell_volume                      1682.21628144

loop_
_atom_site_label
_atom_site_type_symbol
_atom_type_description
_atom_site_fract_x
_atom_site_fract_y
_atom_site_fract_z
_atom_type_partial_charge
C1    C     C_R   0.355421 0.770999 0.399137 0.542827
C2    C     C_R   0.848857 0.209035 0.199466 0.027836
C3    C     C_R   0.874112 0.203950 0.283508 -0.008579
C4    C     C_R   0.881482 0.427647 0.304096 0.041818
C5    C     C_R   0.840548 0.444589 0.222550 -0.042452
C6    C     C_R   0.836304 0.091966 0.151397 0.043385
C7    C     C_R   0.889828 0.962485 0.183776 -0.110446
C8    C     C_R   0.933218 0.953936 0.265066 -0.145274
C9    C     C_R   0.917264 0.075806 0.315379 -0.092788
C10   C     C_R   0.864789 0.324457 0.334477 -0.030921
C11   C     C_R   0.348707 0.832554 0.161790 0.000862
C12   C     C_R   0.369331 0.346207 0.357534 0.592226
C13   C     C_R   0.433534 0.876672 0.222439 0.012374
C14   C     C_R   0.424819 0.870792 0.303333 0.013853
C15   C     C_R   0.279238 0.749405 0.258773 -0.143402
C16   C     C_R   0.281138 0.761140 0.180658 -0.151697
C17   C     C_R   0.526389 0.926471 0.206249 -0.115763
C18   C     C_R   0.602590 0.971912 0.267782 -0.122998
C19   C     C_R   0.594538 0.964079 0.346566 -0.068726
C20   C     C_R   0.500208 0.922387 0.364690 -0.082295
C21   C     C_R   0.344325 0.809263 0.320566 0.013675
C22   C     C_R   0.287860 0.260569 0.795926 -0.019911
C23   C     C_R   0.783031 0.373309 0.405580 0.557675
C24   C     C_R   0.417650 0.167803 0.760620 0.029388
C25   C     C_R   0.463074 0.223652 0.710674 0.006552
C26   C     C_R   0.216577 0.423490 0.696461 -0.026517
C27   C     C_R   0.186105 0.383553 0.761200 -0.127874
C28   C     C_R   0.509354 0.025855 0.779013 -0.087409
C29   C     C_R   0.651553 0.951709 0.760171 -0.097290
C30   C     C_R   0.706094 0.019623 0.724737 0.006326
C31   C     C_R   0.612292 0.155624 0.701216 -0.070633
C32   C     C_R   0.358229 0.343964 0.671150 0.008968
C33   C     C_1   0.819538 0.342295 0.708863 -0.069077
C34   C     C_R   0.381570 0.714139 0.631228 0.541562
C35   C     C_1   0.846706 0.312956 0.776323 -0.058795
C36   C     C_1   0.358956 0.763416 0.713586 -0.060315
C37   C     C_1   0.326342 0.810373 0.780673 -0.066027
C38   C     C_R   0.892961 0.309286 0.089360 0.546846
C39   C     C_R   0.319368 0.300209 0.120052 0.559662
C40   C     C_R   0.296720 0.891519 0.085548 0.554543
C41   C     C_R   0.887148 0.296739 0.858799 0.545287
C42   C     C_R   0.275677 0.247283 0.877745 0.556936
C43   C     C_R   0.281400 0.880322 0.857832 0.540736
C44   C     C_R   0.397087 0.369811 0.599264 0.527513
C45   C     C_R   0.773548 0.381067 0.629709 0.536756
C46   C     C_1   0.342993 0.336196 0.274192 -0.028248
C47   C     C_1   0.331389 0.326968 0.203395 -0.038668
C48   C     C_R   0.840318 0.328651 0.168336 -0.025234
Cr1   Cr    Cr6+3 0.608100 0.610860 0.522250 1.031057
Cr2   Cr    Cr6+3 0.288890 0.599990 0.488420 1.022665
Cr3   Cr    Cr6+3 0.603040 0.289190 0.489390 0.988586
Cr4   Cr    Cr6+3 0.053960 0.052250 0.967380 1.002979
Cr5   Cr    Cr6+3 0.059890 0.373160 0.992710 1.007221
Cr6   Cr    Cr6+3 0.373370 0.061690 0.991710 0.975424
H1    H     H_    0.667217 0.014602 0.254087 0.143367
H2    H     H_    0.657882 0.995422 0.394102 0.141350
H3    H     H_    0.487799 0.931621 0.427272 0.140102
H4    H     H_    0.472808 0.972478 0.809227 0.152249
H5    H     H_    0.083883 0.450629 0.786222 0.144003
H6    H     H_    0.720393 0.844107 0.776322 0.112192
H7    H     H_    0.656315 0.207027 0.674898 0.148743
H8    H     H_    0.888122 0.870464 0.147048 0.100101
H9    H     H_    0.969410 0.855035 0.289927 0.142664
H10   H     H_    0.945720 0.067919 0.378997 0.131801
H11   H     H_    0.226802 0.691227 0.270510 0.145833
H12   H     H_    0.553764 0.920574 0.147490 0.155695
H13   H     H_    0.221683 0.721455 0.134947 0.137361
O1    O     O_R   0.749810 0.499790 0.438040 -0.479816
O2    O     O_R   0.298970 0.468800 0.557390 -0.492848
O3    O     O_R   0.489400 0.255930 0.561910 -0.516678
O4    O     O_R   0.723890 0.306050 0.584610 -0.533910
O5    O     O_3   0.500010 0.500010 0.500020 -0.282659
O6    O     O_R   0.171100 0.914680 0.053100 -0.508568
O7    O     O_R   0.941680 0.184840 0.050710 -0.494625
O8    O     O_R   0.922080 0.403420 0.072610 -0.517066
O9    O     O_R   0.196880 0.369150 0.083850 -0.490124
O10   O     O_R   0.411730 0.181020 0.091530 -0.534787
O11   O     O_R   0.365010 0.944360 0.063320 -0.521207
O12   O     O_R   0.477660 0.726260 0.439290 -0.501576
O13   O     O_R   0.159380 0.906670 0.876210 -0.512447
O14   O     O_R   0.930820 0.177420 0.886730 -0.498348
O15   O     O_R   0.910360 0.395420 0.895720 -0.526589
O16   O     O_R   0.186010 0.361730 0.919870 -0.497895
O17   O     O_R   0.400000 0.173010 0.914630 -0.521695
O18   O     O_R   0.354140 0.936940 0.899340 -0.535349
O19   O     O_3   0.162410 0.162370 0.983930 -0.261678
O20   O     O_R   0.260150 0.743000 0.412270 -0.532575
O21   O     O_R   0.297740 0.466550 0.394720 -0.471945
O22   O     O_R   0.488080 0.253500 0.386430 -0.521990
O23   O     O_R   0.722670 0.303800 0.421940 -0.508390
O24   O     O_R   0.751130 0.502220 0.613520 -0.510019
O25   O     O_R   0.478890 0.728510 0.601960 -0.483914
O26   O     O_R   0.261470 0.745430 0.587750 -0.520129
C49   C     C_2   0.947287 0.510860 0.358142 0.595769
O27   O     O_2   0.012941 0.468392 0.422177 -0.510765
O28   O     O_R   0.941103 0.632374 0.335739 -0.746354
H14   H     H_    0.990980 0.676457 0.378024 0.333624
C50   C     C_3   0.097676 0.553559 0.659524 -0.356069
H15   H     H_    0.066151 0.523326 0.596709 0.202285
H16   H     H_    0.998988 0.603527 0.691396 0.110583
H17   H     H_    0.133334 0.635253 0.662595 0.150985
C51   C     C_3   0.861810 0.945000 0.709359 -0.390537
H18   H     H_    0.891296 0.016113 0.686018 0.141529
H19   H     H_    0.931224 0.908800 0.765628 0.161370
H20   H     H_    0.882396 0.851381 0.664272 0.125398
C52   C     C_3   0.749125 0.104653 0.070971 -0.345865
H21   H     H_    0.670166 0.066473 0.071508 0.137685
H22   H     H_    0.687571 0.216820 0.056363 0.137438
H23   H     H_    0.820068 0.035390 0.023427 0.145026
C53   C     C_3   0.786952 0.589043 0.194989 -0.338069
H24   H     H_    0.723818 0.672076 0.241122 0.173769
H25   H     H_    0.878276 0.604761 0.185466 0.186544
H26   H     H_    0.712393 0.603349 0.139376 0.122825

loop_
_geom_bond_atom_site_label_1
_geom_bond_atom_site_label_2
_ccdc_geom_bond_type
C19   H2    S    
C25   C31   A    
C1    C21   S    
Cr1   O1    S    
C45   O4    A    
C9    H10   S    
C33   C45   S    
C31   H7    S    
C19   C20   A    
C34   O26   A    
Cr6   O17   S    
C7    C8    A    
C2    C6    A    
C26   C32   A    
C17   H12   S    
C39   O10   A    
C14   C21   A    
C28   C29   A    
Cr2   O2    S    
Cr4   O7    S    
Cr3   O23   S    
C30   C31   A    
C52   H21   S    
C15   C16   A    
C15   H11   S    
C40   O6    A    
C51   H20   S    
C18   C19   A    
C1    O20   A    
Cr2   O5    S    
C53   H24   S    
C8    C9    A    
Cr1   O5    S    
C44   O3    A    
Cr5   O19   S    
Cr3   O3    S    
C38   C48   S    
Cr2   O21   S    
Cr6   O10   S    
C25   C32   A    
C13   C14   A    
Cr5   O8    S    
Cr3   O4    S    
Cr1   O24   S    
C45   O24   A    
C34   O25   A    
C38   O8    A    
C6    C52   S    
C5    C48   A    
C12   O21   A    
C51   H18   S    
C43   O18   A    
C14   C20   A    
C12   O22   A    
C42   O17   A    
C24   C25   A    
C12   C46   S    
Cr4   O6    S    
Cr6   O19   S    
C2    C48   A    
C43   O13   A    
Cr1   O12   S    
Cr5   O15   S    
C23   O1    A    
C37   C43   S    
C49   O28   S    
C7    H8    S    
C29   C30   A    
C3    C9    A    
C11   C16   A    
Cr4   O14   S    
C29   H6    S    
C41   O14   A    
O28   H14   S    
C30   C51   S    
C17   C18   A    
C32   C44   S    
C23   O23   A    
C44   O2    A    
C16   H13   S    
C39   O9    A    
C51   H19   S    
C53   H26   S    
Cr2   O20   S    
C26   C50   S    
C4    C49   S    
C18   H1    S    
C40   O11   A    
C50   H16   S    
C22   C27   A    
C26   C27   A    
C1    O12   A    
C22   C24   A    
Cr5   O9    S    
Cr3   O5    S    
Cr1   O25   S    
C4    C10   A    
C39   C47   S    
C38   O7    A    
C46   C47   T    
C36   C37   T    
C42   O16   A    
C24   C28   A    
C4    C5    A    
Cr6   O18   S    
Cr2   O26   S    
C6    C7    A    
C28   H4    S    
C10   C23   S    
C50   H17   S    
C13   C17   A    
Cr5   O16   S    
Cr4   O19   S    
C2    C3    A    
C3    C10   A    
C27   H5    S    
Cr3   O22   S    
C11   C13   A    
C11   C40   S    
C22   C42   S    
C52   H22   S    
C41   O15   A    
C33   C35   T    
C34   C36   S    
C49   O27   D    
C35   C41   S    
C53   H25   S    
C8    H9    S    
C15   C21   A    
C50   H15   S    
C5    C53   S    
C20   H3    S    
Cr4   O13   S    
Cr6   O11   S    
C52   H23   S    
