data_mof_unit_11571.cif
_audit_creation_date              2012-12-10T17:17:51-0500
_audit_creation_method            fapswitch 2.2
_symmetry_space_group_name_H-M    P1
_symmetry_Int_Tables_number       1
_space_group_crystal_system       triclinic
_cell_length_a                    14.638458
_cell_length_b                    16.032498
_cell_length_c                    9.637184
_cell_angle_alpha                 91.795385
_cell_angle_beta                  89.528308
_cell_angle_gamma                 90.001751
_cell_volume                      2260.57382493

loop_
_atom_site_label
_atom_site_type_symbol
_atom_type_description
_atom_site_fract_x
_atom_site_fract_y
_atom_site_fract_z
_atom_type_partial_charge
C1    C     C_R   0.378767 0.883827 0.498525 0.884181
C2    C     C_R   0.381344 0.119964 0.503219 0.870405
C3    C     C_R   0.878767 0.383827 0.498525 0.884177
C4    C     C_R   0.881344 0.619964 0.503219 0.870410
C5    C     C_R   0.295268 0.229731 0.386780 0.453070
C6    C     C_R   0.312977 0.754049 0.401112 0.449237
C7    C     C_R   0.795268 0.729731 0.386780 0.453070
C8    C     C_R   0.812979 0.254047 0.401115 0.449229
C9    C     C_R   0.723925 0.786094 0.380711 -0.313205
C10   C     C_R   0.746802 0.192543 0.402444 -0.257403
C11   C     C_R   0.223926 0.286095 0.380711 -0.313202
C12   C     C_R   0.246801 0.692545 0.402442 -0.257402
C13   C     C_R   0.666597 0.800542 0.493876 -0.166678
C14   C     C_R   0.679420 0.191907 0.505842 -0.129314
C15   C     C_R   0.166598 0.300542 0.493877 -0.166680
C16   C     C_R   0.179421 0.691907 0.505842 -0.129315
C17   C     C_R   0.673881 0.021691 0.132561 0.489547
C18   C     C_R   0.173881 0.521690 0.132561 0.489547
C19   C     C_R   0.744363 0.056349 0.051098 -0.325327
C20   C     C_R   0.244363 0.556348 0.051098 -0.325329
C21   C     C_R   0.740756 0.050807 0.909393 0.212153
C22   C     C_R   0.240757 0.550806 0.909393 0.212154
C23   C     C_R   0.663587 0.018955 0.847774 -0.152739
C24   C     C_R   0.163587 0.518955 0.847774 -0.152739
C25   C     C_R   0.581444 0.009459 0.922665 0.069007
C26   C     C_R   0.081444 0.509459 0.922665 0.069005
C27   C     C_R   0.583478 0.010309 0.072266 0.018553
C28   C     C_R   0.083478 0.510309 0.072266 0.018554
C29   C     C_R   0.421894 0.988068 0.075240 0.549476
C30   C     C_R   0.921894 0.488068 0.075240 0.549474
C31   C     C_R   0.615916 0.121288 0.501935 0.833776
C32   C     C_R   0.610970 0.875964 0.497979 0.823829
C33   C     C_R   0.115916 0.621287 0.501935 0.833778
C34   C     C_R   0.110970 0.375964 0.497979 0.823825
C35   C     C_R   0.422407 0.990033 0.926483 -0.094089
C36   C     C_R   0.922407 0.490033 0.926484 -0.094087
C37   C     C_R   0.259525 0.165027 0.760392 0.604134
C38   C     C_R   0.205757 0.907663 0.652381 0.506277
C39   C     C_R   0.759524 0.665027 0.760392 0.604132
C40   C     C_R   0.705756 0.407665 0.652374 0.506274
C41   C     C_R   0.183275 0.155259 0.846871 -0.242688
C42   C     C_R   0.140763 0.909860 0.759088 -0.207505
C43   C     C_R   0.683274 0.655260 0.846871 -0.242690
C44   C     C_R   0.640760 0.409862 0.759079 -0.207502
C45   C     C_R   0.600550 0.691721 0.814802 -0.199934
C46   C     C_R   0.592889 0.338198 0.790492 -0.236275
C47   C     C_R   0.100551 0.191721 0.814803 -0.199936
C48   C     C_R   0.092893 0.838195 0.790501 -0.236276
C49   C     C_R   0.594966 0.741402 0.699739 -0.143972
C50   C     C_R   0.604771 0.265296 0.709286 -0.167125
C51   C     C_R   0.094967 0.241402 0.699741 -0.143976
C52   C     C_R   0.104775 0.765293 0.709293 -0.167123
C53   C     C_R   0.669663 0.747536 0.606798 0.011702
C54   C     C_R   0.671483 0.260717 0.602275 0.059217
C55   C     C_R   0.169663 0.247537 0.606799 0.011702
C56   C     C_R   0.171485 0.760715 0.602278 0.059217
C57   C     C_R   0.248752 0.198702 0.625772 -0.052960
C58   C     C_R   0.229456 0.830404 0.585242 -0.064188
C59   C     C_R   0.748752 0.698702 0.625772 -0.052957
C60   C     C_R   0.729455 0.330405 0.585238 -0.064188
C61   C     C_R   0.311143 0.186744 0.510120 -0.228298
C62   C     C_R   0.305362 0.822721 0.494071 -0.193217
C63   C     C_R   0.811143 0.686744 0.510120 -0.228298
C64   C     C_R   0.805362 0.322721 0.494070 -0.193217
Cu1   Cu    Cu3+1 0.499990 0.000000 0.640660 0.980393
Cu2   Cu    Cu3+1 0.999990 0.500000 0.640660 0.980392
Cu3   Cu    Cu3+1 0.500010 0.000000 0.359340 1.058109
Cu4   Cu    Cu3+1 0.000010 0.500000 0.359340 1.058109
H1    H     H_    0.671306 0.004094 0.740484 0.232931
H2    H     H_    0.171305 0.504094 0.740484 0.232932
H3    H     H_    0.359071 0.984349 0.870140 0.171721
H4    H     H_    0.859071 0.484349 0.870140 0.171720
H5    H     H_    0.190092 0.124534 0.944609 0.137380
H6    H     H_    0.124476 0.968252 0.813207 0.162336
H7    H     H_    0.690091 0.624534 0.944608 0.137381
H8    H     H_    0.624472 0.468255 0.813196 0.162340
H9    H     H_    0.542417 0.685989 0.884011 0.193903
H10   H     H_    0.542408 0.341005 0.872942 0.159340
H11   H     H_    0.042419 0.185989 0.884013 0.193904
H12   H     H_    0.042414 0.841001 0.872953 0.159339
H13   H     H_    0.530765 0.772436 0.681341 0.163339
H14   H     H_    0.560386 0.214118 0.731738 0.184537
H15   H     H_    0.030766 0.272438 0.681345 0.163340
H16   H     H_    0.060390 0.714116 0.731746 0.184539
H17   H     H_    0.715155 0.820452 0.287205 0.192906
H18   H     H_    0.750252 0.143727 0.323729 0.192817
H19   H     H_    0.215155 0.320452 0.287206 0.192906
H20   H     H_    0.250249 0.643730 0.323723 0.192815
H21   H     H_    0.807245 0.079306 0.095916 0.190263
H22   H     H_    0.307246 0.579304 0.095916 0.190260
N1    N     N_R   0.501200 0.000000 0.147910 -0.212182
N2    N     N_R   0.001200 0.500000 0.147910 -0.212183
N3    N     N_R   0.501270 0.000000 0.852040 -0.195139
N4    N     N_R   0.001270 0.500000 0.852040 -0.195140
O1    O     O_R   0.409820 0.909830 0.618810 -0.593976
O2    O     O_R   0.409820 0.090170 0.618810 -0.519458
O3    O     O_R   0.909820 0.409830 0.618810 -0.593976
O4    O     O_R   0.909820 0.590170 0.618810 -0.519458
O5    O     O_R   0.409840 0.909830 0.381240 -0.510966
O6    O     O_R   0.409840 0.090170 0.381240 -0.520062
O7    O     O_R   0.909840 0.409830 0.381240 -0.510970
O8    O     O_R   0.909840 0.590170 0.381240 -0.520062
O9    O     O_R   0.590170 0.090170 0.618760 -0.616334
O10   O     O_R   0.590170 0.909830 0.618760 -0.615882
O11   O     O_R   0.090170 0.590170 0.618760 -0.616336
O12   O     O_R   0.090170 0.409830 0.618760 -0.615882
O13   O     O_R   0.590190 0.090180 0.381190 -0.532528
O14   O     O_R   0.590190 0.909820 0.381190 -0.521798
O15   O     O_R   0.090190 0.590180 0.381190 -0.532528
O16   O     O_R   0.090190 0.409820 0.381190 -0.521796
O17   O     O_3   0.354534 0.221610 0.274708 -0.579983
C65   C     C_3   0.308036 0.182963 0.162456 -0.240498
H23   H     H_    0.267911 0.229727 0.106223 0.142545
H24   H     H_    0.262620 0.131046 0.194752 0.168906
H25   H     H_    0.359601 0.155252 0.090473 0.227250
O18   O     O_3   0.381636 0.749566 0.301606 -0.575967
C66   C     C_3   0.453385 0.700545 0.351795 -0.298600
H26   H     H_    0.431108 0.635268 0.367696 0.157032
H27   H     H_    0.481315 0.727893 0.449858 0.140685
H28   H     H_    0.509570 0.698856 0.273788 0.184991
O19   O     O_3   0.854534 0.721610 0.274708 -0.579984
C67   C     C_3   0.808037 0.682963 0.162455 -0.240498
H29   H     H_    0.767912 0.729728 0.106222 0.142546
H30   H     H_    0.762620 0.631047 0.194750 0.168905
H31   H     H_    0.859602 0.655253 0.090473 0.227249
O20   O     O_3   0.881640 0.249560 0.301613 -0.575972
C68   C     C_3   0.953389 0.200546 0.351815 -0.298571
H32   H     H_    0.931108 0.135273 0.367764 0.157037
H33   H     H_    0.981328 0.227917 0.449861 0.140680
H34   H     H_    0.009571 0.198837 0.273794 0.184982
Br1   Br    Br    0.844791 0.079732 0.799249 -0.600592
Br2   Br    Br    0.344791 0.579731 0.799249 -0.600589
O21   O     O_3   0.343429 0.156848 0.822328 -0.587900
C69   C     C_3   0.382007 0.236891 0.842815 -0.371221
H35   H     H_    0.333805 0.281422 0.895974 0.165048
H36   H     H_    0.404992 0.262673 0.742725 0.179322
H37   H     H_    0.442165 0.230984 0.910802 0.189528
O22   O     O_3   0.235993 0.982306 0.600965 -0.599573
C70   C     C_3   0.174180 0.005877 0.497098 -0.341002
H38   H     H_    0.108824 0.028320 0.544684 0.185611
H39   H     H_    0.160947 0.954450 0.419325 0.157131
H40   H     H_    0.203801 0.057606 0.438458 0.180059
O23   O     O_3   0.843429 0.656848 0.822328 -0.587901
C71   C     C_3   0.882008 0.736890 0.842813 -0.371218
H41   H     H_    0.833805 0.781423 0.895970 0.165047
H42   H     H_    0.904994 0.762671 0.742723 0.179322
H43   H     H_    0.942164 0.730983 0.910801 0.189526
O24   O     O_3   0.735992 0.482307 0.600957 -0.599574
C72   C     C_3   0.674182 0.505876 0.497086 -0.340995
H44   H     H_    0.608822 0.528314 0.544666 0.185606
H45   H     H_    0.660956 0.454450 0.419309 0.157132
H46   H     H_    0.703801 0.557608 0.438452 0.180059
O25   O     O_3   0.341160 0.980698 0.150220 -0.575670
C73   C     C_3   0.287818 0.913519 0.098307 -0.315778
H47   H     H_    0.329752 0.857731 0.067989 0.195497
H48   H     H_    0.245743 0.933487 0.010092 0.144574
H49   H     H_    0.240081 0.894448 0.181502 0.195345
O26   O     O_3   0.841160 0.480698 0.150220 -0.575670
C74   C     C_3   0.787820 0.413515 0.098308 -0.315772
H50   H     H_    0.829756 0.357728 0.067993 0.195493
H51   H     H_    0.745744 0.433481 0.010091 0.144575
H52   H     H_    0.740084 0.394445 0.181505 0.195343
O27   O     O_3   0.694068 0.997207 0.265567 -0.537794
C75   C     C_3   0.785982 0.972080 0.285144 -0.353914
H53   H     H_    0.832859 0.025957 0.294785 0.148680
H54   H     H_    0.809667 0.927434 0.201670 0.174361
H55   H     H_    0.790789 0.941346 0.386106 0.200633
O28   O     O_3   0.194068 0.497207 0.265567 -0.537793
C76   C     C_3   0.285981 0.472081 0.285146 -0.353910
H56   H     H_    0.332857 0.525958 0.294788 0.148675
H57   H     H_    0.309668 0.427436 0.201673 0.174360
H58   H     H_    0.290788 0.441347 0.386108 0.200634

loop_
_geom_bond_atom_site_label_1
_geom_bond_atom_site_label_2
_ccdc_geom_bond_type
C7    C63   A    
C58   C62   A    
Cu2   Cu4   S    
C26   N4    A    
O20   C68   S    
C40   C60   A    
C4    O4    A    
C76   H56   S    
C23   H1    S    
C13   C32   S    
O17   C65   S    
C47   H11   S    
C14   C31   S    
C1    C62   S    
C1    O5    A    
C69   H37   S    
C65   H24   S    
C53   C59   A    
C24   H2    S    
C54   C60   A    
C3    C64   S    
C25   N3    A    
C4    C63   S    
C50   C54   A    
Cu2   O3    S    
C75   H53   S    
C19   C21   A    
C24   C26   A    
C5    C11   A    
C72   H45   S    
C6    C12   A    
C70   H40   S    
Cu3   O14   S    
O23   C71   S    
O18   C66   S    
C30   O26   S    
C52   H16   S    
C49   H13   S    
C44   H8    S    
C9    C13   A    
C21   Br1   S    
C17   O27   S    
C9    H17   S    
C38   C58   A    
C11   C15   A    
Cu1   O2    S    
C12   C16   A    
C11   H19   S    
Cu1   Cu3   S    
C4    O8    A    
C32   O10   A    
C27   N1    A    
Cu4   O8    S    
C45   C49   A    
C26   C28   A    
C15   C34   S    
C73   H48   S    
C2    C61   S    
Cu3   O5    S    
Cu2   N4    S    
C3    O7    A    
Cu1   N3    S    
C2    O6    A    
C15   C55   A    
C76   H57   S    
C68   H33   S    
C7    O19   S    
C71   H43   S    
Cu3   N1    S    
C65   H23   S    
C44   C46   A    
C13   C53   A    
C35   N3    A    
C21   C23   A    
C43   H7    S    
C42   H6    S    
C40   O24   S    
Cu1   O1    S    
C34   O12   A    
C18   C28   A    
O24   C72   S    
C73   H49   S    
C30   N2    A    
C10   C14   A    
C66   H28   S    
C46   H10   S    
C18   O28   S    
C17   C19   A    
C47   C51   A    
C5    O17   S    
C51   C55   A    
C20   H22   S    
C2    O2    A    
C17   C27   A    
O26   C74   S    
C42   C48   A    
C16   C56   A    
C19   H21   S    
C16   C33   S    
C3    O3    A    
C74   H50   S    
C48   C52   A    
C1    O1    A    
C12   H20   S    
C39   C59   A    
C74   H51   S    
C41   C47   A    
C74   H52   S    
C5    C61   A    
C28   N2    A    
Cu4   O16   S    
Cu4   O7    S    
C43   C45   A    
C6    O18   S    
O19   C67   S    
C41   H5    S    
Cu3   O6    S    
C8    C64   A    
C71   H42   S    
O28   C76   S    
C14   C54   A    
C20   C22   A    
C55   C57   A    
O21   C69   S    
C34   O16   A    
C76   H58   S    
C22   C24   A    
C72   H46   S    
C33   O15   A    
Cu1   O9    S    
Cu2   O11   S    
C67   H30   S    
C68   H32   S    
C51   H15   S    
C29   N1    A    
C50   H14   S    
C29   O25   S    
C8    O20   S    
C7    C9    A    
C46   C50   A    
C10   H18   S    
C22   Br2   S    
C31   O13   A    
C75   H55   S    
C39   O23   S    
C71   H41   S    
C69   H36   S    
C70   H38   S    
Cu2   O4    S    
C57   C61   A    
C69   H35   S    
C25   C27   A    
C29   C35   A    
C59   C63   A    
C33   O11   A    
C30   C36   A    
C6    C62   A    
C60   C64   A    
C48   H12   S    
C67   H31   S    
C66   H27   S    
C67   H29   S    
C68   H34   S    
C66   H26   S    
C70   H39   S    
Cu3   O13   S    
Cu2   O12   S    
C52   C56   A    
C49   C53   A    
C75   H54   S    
Cu4   N2    S    
C56   C58   A    
C18   C20   A    
Cu4   O15   S    
C23   C25   A    
C37   C41   A    
C37   O21   S    
O27   C75   S    
O22   C70   S    
C35   H3    S    
C38   C42   A    
C36   N4    A    
C73   H47   S    
C40   C44   A    
C39   C43   A    
C8    C10   A    
C32   O14   A    
C45   H9    S    
C38   O22   S    
Cu1   O10   S    
O25   C73   S    
C72   H44   S    
C65   H25   S    
C37   C57   A    
C36   H4    S    
C31   O9    A    
