data_mof_unit_27966.cif
_audit_creation_date              2012-12-11T14:47:49-0500
_audit_creation_method            fapswitch 2.2
_symmetry_space_group_name_H-M    P1
_symmetry_Int_Tables_number       1
_space_group_crystal_system       triclinic
_cell_length_a                    11.61152
_cell_length_b                    11.502743
_cell_length_c                    19.519898
_cell_angle_alpha                 90.012291
_cell_angle_beta                  89.801956
_cell_angle_gamma                 60.005394
_cell_volume                      2257.9721604

loop_
_atom_site_label
_atom_site_type_symbol
_atom_type_description
_atom_site_fract_x
_atom_site_fract_y
_atom_site_fract_z
_atom_type_partial_charge
C1    C     C_R   0.640169 0.117329 0.599234 0.547744
C2    C     C_1   0.652713 0.149703 0.668581 0.003794
C3    C     C_R   0.537686 0.688302 0.294136 -0.008962
C4    C     C_R   0.612146 0.745871 0.598491 0.546972
C5    C     C_R   0.540799 0.701126 0.223995 -0.112757
C6    C     C_R   0.658268 0.675566 0.191308 0.006820
C7    C     C_R   0.764749 0.666112 0.228993 -0.153210
C8    C     C_R   0.755044 0.676399 0.299534 -0.163385
C9    C     C_R   0.642136 0.688654 0.332647 0.025747
C10   C     C_R   0.283240 0.221173 0.280502 -0.129637
C11   C     C_R   0.240146 0.245207 0.212252 -0.052674
C12   C     C_1   0.640645 0.703404 0.667863 0.004830
C13   C     C_R   0.173078 0.179668 0.185814 0.035382
C14   C     C_R   0.171179 0.075848 0.224037 0.250272
C15   C     C_R   0.219065 0.052055 0.291230 -0.125502
C16   C     C_R   0.240618 0.145255 0.598084 0.557820
C17   C     C_R   0.268129 0.128702 0.320756 -0.033965
C18   C     C_R   0.686400 0.044923 0.283944 -0.137520
C19   C     C_R   0.696596 0.070263 0.215825 -0.166634
C20   C     C_R   0.682550 0.193631 0.197240 0.010772
C21   C     C_R   0.657788 0.292126 0.246664 -0.154788
C22   C     C_R   0.644506 0.267710 0.315099 -0.159082
C23   C     C_1   0.126989 0.199185 0.859397 0.004861
C24   C     C_R   0.661683 0.142891 0.333524 0.032461
C25   C     C_R   0.082006 0.231300 0.928668 0.542516
C26   C     C_R   0.683940 0.604903 0.929620 0.546191
C27   C     C_R   0.708653 0.206886 0.930124 0.543683
C28   C     C_R   0.645163 0.112982 0.403016 0.533368
C29   C     C_R   0.087948 0.232879 0.124178 0.550250
C30   C     C_R   0.681344 0.615440 0.124171 0.543467
C31   C     C_R   0.711229 0.213180 0.127975 0.538183
C32   C     C_R   0.615886 0.738407 0.402448 0.532443
C33   C     C_R   0.302993 0.114660 0.393805 0.559318
C34   C     C_1   0.171472 0.169821 0.727732 -0.031072
C35   C     C_1   0.670618 0.647168 0.860194 0.005076
C36   C     C_1   0.654429 0.683426 0.728360 -0.031147
C37   C     C_1   0.663489 0.667066 0.799654 -0.031158
C38   C     C_3   0.423966 0.675516 0.327389 -0.237995
C39   C     C_3   0.347836 0.631209 0.281184 -0.348941
C40   C     C_3   0.253281 0.601445 0.322314 -0.458611
C41   C     C_3   0.246365 0.354353 0.170935 -0.250664
C42   C     C_3   0.368983 0.366557 0.177190 -0.327186
C43   C     C_3   0.350003 0.487168 0.134594 -0.422254
C44   C     C_3   0.030322 0.988734 0.234115 -0.102143
C45   C     C_1   0.150351 0.182342 0.799015 -0.030614
C46   C     C_1   0.195083 0.160294 0.667320 0.002585
C47   C     C_1   0.678835 0.191474 0.860797 0.003114
C48   C     C_1   0.658428 0.167301 0.728984 -0.030566
C49   C     C_1   0.665781 0.181057 0.800341 -0.030677
Cr1   Cr    Cr6+3 0.404720 0.198220 0.499960 1.019416
Cr2   Cr    Cr6+3 0.698290 0.897110 0.500380 1.022585
Cr3   Cr    Cr6+3 0.396970 0.904720 0.499610 1.013033
Cr4   Cr    Cr6+3 0.926180 0.152240 0.028110 1.059285
Cr5   Cr    Cr6+3 0.921340 0.452070 0.027460 1.013634
Cr6   Cr    Cr6+3 0.626260 0.447120 0.028700 1.002438
H1    H     H_    0.717587 0.993378 0.177825 0.119720
H2    H     H_    0.310267 0.515316 0.357333 0.162001
H3    H     H_    0.182958 0.690863 0.352731 0.152805
H4    H     H_    0.194736 0.575700 0.286913 0.147550
H5    H     H_    0.288437 0.710323 0.243126 0.182957
H6    H     H_    0.422557 0.539619 0.255344 0.169761
H7    H     H_    0.467953 0.599273 0.368815 0.165862
H8    H     H_    0.348957 0.772396 0.349770 0.182432
H9    H     H_    0.346452 0.467609 0.079118 0.157276
H10   H     H_    0.256377 0.579482 0.149159 0.137635
H11   H     H_    0.432601 0.506849 0.142989 0.191602
H12   H     H_    0.651685 0.386002 0.232292 0.132738
H13   H     H_    0.389073 0.377184 0.231144 0.172355
H14   H     H_    0.452318 0.273635 0.155632 0.180726
H15   H     H_    0.251756 0.330021 0.115634 0.185255
H16   H     H_    0.155983 0.452166 0.182787 0.164463
H17   H     H_    0.977942 0.951069 0.201576 0.163016
H18   H     H_    0.955026 0.089121 0.254272 0.134317
H19   H     H_    0.075967 0.915640 0.276502 0.095606
H20   H     H_    0.624051 0.343813 0.353416 0.112229
H21   H     H_    0.457322 0.714752 0.193696 0.149104
H22   H     H_    0.856613 0.646185 0.204339 0.129894
H23   H     H_    0.835074 0.675989 0.328119 0.131407
H24   H     H_    0.324153 0.277804 0.303825 0.139160
H25   H     H_    0.211817 0.978121 0.321633 0.120517
H26   H     H_    0.696383 0.949291 0.298065 0.134959
O1    O     O_R   0.267740 0.231990 0.575440 -0.500367
O2    O     O_R   0.596140 0.579600 0.952720 -0.502557
O3    O     O_R   0.639070 0.321380 0.958660 -0.495152
O4    O     O_R   0.527280 0.186680 0.570530 -0.495296
O5    O     O_R   0.821240 0.124490 0.104360 -0.509729
O6    O     O_R   0.036900 0.167320 0.097830 -0.438713
O7    O     O_R   0.056190 0.349890 0.102870 -0.553096
O8    O     O_R   0.797670 0.565150 0.097930 -0.501618
O9    O     O_R   0.595880 0.584540 0.104260 -0.541004
O10   O     O_R   0.638830 0.325960 0.099140 -0.517586
O11   O     O_3   0.824590 0.350480 0.028090 -0.254599
O12   O     O_R   0.685970 0.784630 0.430010 -0.505438
O13   O     O_R   0.728090 0.003480 0.576380 -0.501656
O14   O     O_R   0.682970 0.789220 0.570490 -0.490144
O15   O     O_R   0.499290 0.771920 0.575530 -0.504635
O16   O     O_R   0.285330 0.030900 0.569730 -0.487145
O17   O     O_R   0.270980 0.227040 0.423900 -0.511190
O18   O     O_R   0.530280 0.182090 0.430050 -0.522237
O19   O     O_R   0.731330 0.998530 0.424830 -0.517735
O20   O     O_3   0.128215 0.994870 0.193664 -0.560014
O21   O     O_R   0.502530 0.766960 0.423990 -0.548554
O22   O     O_R   0.288330 0.026310 0.429250 -0.506919
O23   O     O_3   0.499990 0.000020 0.499980 -0.271350
O24   O     O_R   0.821500 0.119550 0.952820 -0.506383
O25   O     O_R   0.037130 0.162750 0.957360 -0.495177
O26   O     O_R   0.056440 0.344950 0.951330 -0.510276
O27   O     O_R   0.797900 0.560570 0.957460 -0.493686

loop_
_geom_bond_atom_site_label_1
_geom_bond_atom_site_label_2
_ccdc_geom_bond_type
C19   H1    S    
C42   H13   S    
Cr3   O22   S    
Cr1   O23   S    
C26   O2    A    
C23   C45   T    
C41   C42   S    
C19   C20   A    
C30   O9    A    
C7    C8    A    
C47   C49   T    
Cr3   O21   S    
Cr1   O18   S    
Cr5   O26   S    
C18   C24   A    
C13   C29   S    
C36   C37   S    
C35   C37   T    
C18   C19   A    
Cr6   O9    S    
C38   C39   S    
C16   O16   A    
C27   O24   A    
C10   C17   A    
Cr3   O16   S    
C18   H26   S    
C1    C2    S    
C29   O7    A    
Cr6   O10   S    
C9    C32   S    
C4    O15   A    
Cr4   O25   S    
Cr3   O23   S    
C33   O17   A    
C3    C38   S    
C8    C9    A    
C43   H9    S    
C44   H17   S    
Cr4   O5    S    
C34   C46   T    
C44   O20   S    
C12   C36   T    
Cr1   O4    S    
C7    H22   S    
C28   O19   A    
C32   O12   A    
C40   H4    S    
C13   C14   A    
C21   H12   S    
C8    H23   S    
C17   C33   S    
C22   H20   S    
C30   O8    A    
C25   O25   A    
C1    O4    A    
C39   H6    S    
Cr1   O17   S    
C40   H3    S    
Cr5   O8    S    
C16   C46   S    
C39   C40   S    
C1    O13   A    
C14   O20   S    
C2    C48   T    
Cr2   O23   S    
C42   H14   S    
Cr5   O11   S    
Cr6   O11   S    
C3    C9    A    
C4    O14   A    
C15   H25   S    
C43   H10   S    
Cr4   O11   S    
C16   O1    A    
Cr4   O6    S    
C34   C45   S    
C44   H19   S    
Cr2   O12   S    
C28   O18   A    
C48   C49   S    
C6    C30   S    
C31   O10   A    
C32   O21   A    
C4    C12   S    
C42   C43   S    
Cr6   O2    S    
Cr1   O1    S    
C38   H8    S    
C27   C47   S    
Cr2   O19   S    
C15   C17   A    
C27   O3    A    
C40   H2    S    
C33   O22   A    
C24   C28   S    
C3    C5    A    
C10   H24   S    
C6    C7    A    
Cr5   O27   S    
C41   H16   S    
C5    H21   S    
Cr5   O7    S    
C11   C13   A    
C5    C6    A    
C43   H11   S    
C39   H5    S    
Cr3   O15   S    
C22   C24   A    
C23   C25   S    
C44   H18   S    
C29   O6    A    
C10   C11   A    
Cr2   O13   S    
Cr4   O24   S    
C26   C35   S    
C20   C21   A    
C11   C41   S    
C31   O5    A    
C14   C15   A    
Cr6   O3    S    
C21   C22   A    
C25   O26   A    
C26   O27   A    
Cr2   O14   S    
C41   H15   S    
C38   H7    S    
C20   C31   S    
