data_mof_unit_26448.cif
_audit_creation_date              2012-12-11T15:46:53-0500
_audit_creation_method            fapswitch 2.2
_symmetry_space_group_name_H-M    P1
_symmetry_Int_Tables_number       1
_space_group_crystal_system       triclinic
_cell_length_a                    11.510019
_cell_length_b                    11.476526
_cell_length_c                    19.461434
_cell_angle_alpha                 90.797666
_cell_angle_beta                  90.519796
_cell_angle_gamma                 60.515771
_cell_volume                      2237.59874403

loop_
_atom_site_label
_atom_site_type_symbol
_atom_type_description
_atom_site_fract_x
_atom_site_fract_y
_atom_site_fract_z
_atom_type_partial_charge
C1    C     C_R   0.641033 0.117732 0.598936 0.549184
C2    C     C_1   0.642046 0.703268 0.667846 0.003468
C3    C     C_1   0.127633 0.197856 0.859574 -0.001174
C4    C     C_1   0.171546 0.169876 0.727682 -0.031464
C5    C     C_1   0.150829 0.181397 0.799077 -0.031945
C6    C     C_1   0.194880 0.160925 0.667206 0.003165
C7    C     C_1   0.677704 0.190489 0.861108 0.001415
C8    C     C_1   0.658865 0.167375 0.729004 -0.031964
C9    C     C_1   0.665074 0.180468 0.800454 -0.032025
C10   C     C_1   0.653864 0.150042 0.668399 0.005118
C11   C     C_R   0.670752 0.666002 0.191708 0.001180
C12   C     C_R   0.612966 0.745147 0.598398 0.558823
C13   C     C_R   0.612539 0.802042 0.206175 0.027290
C14   C     C_R   0.584378 0.845327 0.273454 -0.066854
C15   C     C_R   0.695255 0.616833 0.312750 -0.155141
C16   C     C_R   0.720558 0.572643 0.244999 -0.173067
C17   C     C_3   0.484521 0.915783 0.180556 0.147135
C18   C     C_3   0.452781 0.960936 0.255108 -0.222717
C19   C     C_R   0.616860 0.753961 0.326337 0.007499
C20   C     C_R   0.052472 0.245179 0.206363 -0.018649
C21   C     C_R   0.055365 0.340531 0.249976 -0.001271
C22   C     C_R   0.094906 0.314222 0.317079 -0.014198
C23   C     C_R   0.240335 0.145460 0.597985 0.549526
C24   C     C_R   0.124136 0.093490 0.305013 -0.145513
C25   C     C_R   0.076792 0.123646 0.236858 -0.143145
C26   C     C_3   0.079783 0.457211 0.246790 0.159154
C27   C     C_3   0.122852 0.429016 0.322476 -0.235667
C28   C     C_R   0.147324 0.184713 0.343603 0.004552
C29   C     C_R   0.668520 0.188475 0.192763 -0.010393
C30   C     C_R   0.719424 0.059035 0.217375 0.013261
C31   C     C_R   0.713961 0.037352 0.285749 -0.002959
C32   C     C_R   0.593867 0.276018 0.309325 0.221468
C33   C     C_R   0.599786 0.297490 0.238228 -0.184782
C34   C     C_R   0.644982 0.112132 0.402665 0.580726
C35   C     C_3   0.851354 0.933816 0.208899 -0.191622
C36   C     C_3   0.844149 0.908991 0.284842 0.152992
C37   C     C_R   0.660451 0.143270 0.333020 0.067842
C38   C     C_R   0.082602 0.230647 0.928844 0.541499
C39   C     C_R   0.683542 0.605421 0.929821 0.534033
C40   C     C_R   0.707859 0.206087 0.930508 0.540776
C41   C     C_R   0.022455 0.270117 0.132989 0.549379
C42   C     C_R   0.682222 0.615822 0.123697 0.515791
C43   C     C_R   0.708306 0.211364 0.126624 0.546525
C44   C     C_R   0.582456 0.800931 0.395230 0.562480
C45   C     C_R   0.237694 0.143629 0.403033 0.529943
C46   C     C_1   0.669707 0.647782 0.860479 0.001683
C47   C     C_1   0.655270 0.683674 0.728479 -0.032265
C48   C     C_1   0.663181 0.667613 0.799899 -0.031820
Cr1   Cr    Cr6+3 0.404720 0.198220 0.499960 1.034371
Cr2   Cr    Cr6+3 0.698290 0.897110 0.500380 1.001164
Cr3   Cr    Cr6+3 0.396970 0.904720 0.499610 0.994817
Cr4   Cr    Cr6+3 0.926290 0.152010 0.028150 1.008046
Cr5   Cr    Cr6+3 0.921440 0.451830 0.027490 1.037257
Cr6   Cr    Cr6+3 0.626370 0.446880 0.028730 1.019634
H1    H     H_    0.728791 0.544636 0.353884 0.157532
H2    H     H_    0.228357 0.399047 0.333462 0.162400
H3    H     H_    0.051255 0.508794 0.357641 0.087601
H4    H     H_    0.561963 0.397718 0.218999 0.130788
H5    H     H_    0.934635 0.952206 0.196254 0.166062
H6    H     H_    0.843588 0.859068 0.175061 0.116789
H7    H     H_    0.832771 0.819206 0.293239 0.096565
H8    H     H_    0.771090 0.466097 0.234027 0.120869
H9    H     H_    0.413803 0.886157 0.157263 0.110226
H10   H     H_    0.447379 0.058189 0.267426 0.139184
H11   H     H_    0.371043 0.947691 0.275719 0.098773
H12   H     H_    0.156780 0.993936 0.323803 0.144726
H13   H     H_    0.070952 0.046992 0.206667 0.145815
H14   H     H_    0.985009 0.553061 0.240436 0.131857
O1    O     O_R   0.267750 0.231960 0.575440 -0.503976
O2    O     O_R   0.685950 0.784660 0.430010 -0.513061
O3    O     O_R   0.502510 0.767000 0.423980 -0.530205
O4    O     O_R   0.288320 0.026340 0.429250 -0.527226
O5    O     O_3   0.499990 0.000020 0.499980 -0.273987
O6    O     O_R   0.821590 0.119350 0.952850 -0.504463
O7    O     O_R   0.037230 0.162540 0.957390 -0.491050
O8    O     O_R   0.056530 0.344750 0.951370 -0.502144
O9    O     O_R   0.798000 0.560370 0.957490 -0.495067
O10   O     O_R   0.596230 0.579400 0.952760 -0.505142
O11   O     O_R   0.639160 0.321170 0.958690 -0.488666
O12   O     O_R   0.527290 0.186640 0.570530 -0.488366
O13   O     O_R   0.821370 0.124220 0.104400 -0.532002
O14   O     O_R   0.037020 0.167050 0.097880 -0.523479
O15   O     O_R   0.056310 0.349620 0.102920 -0.478954
O16   O     O_R   0.797790 0.564880 0.097980 -0.512608
O17   O     O_R   0.596000 0.584270 0.104310 -0.523731
O18   O     O_R   0.638950 0.325690 0.099180 -0.506913
O19   O     O_3   0.824700 0.350240 0.028120 -0.269099
O20   O     O_R   0.728110 0.003450 0.576380 -0.512322
O21   O     O_R   0.682980 0.789190 0.570500 -0.487988
O22   O     O_R   0.499300 0.771880 0.575540 -0.503969
O23   O     O_R   0.285350 0.030870 0.569740 -0.494079
O24   O     O_R   0.270960 0.227070 0.423890 -0.519186
O25   O     O_R   0.530270 0.182120 0.430040 -0.470165
O26   O     O_R   0.731320 0.998570 0.424830 -0.529686
O27   O     O_3   0.179389 0.448587 0.200420 -0.558280
C49   C     C_3   0.296615 0.322013 0.196739 -0.063239
H15   H     H_    0.276756 0.242636 0.177060 0.173160
H16   H     H_    0.350364 0.292387 0.246329 0.099008
H17   H     H_    0.365249 0.328781 0.159451 0.155723
O28   O     O_3   0.539504 0.378004 0.358660 -0.551267
C50   C     C_3   0.443256 0.502657 0.332444 -0.018057
H18   H     H_    0.371468 0.493277 0.297173 0.137987
H19   H     H_    0.493194 0.550581 0.305526 0.151363
C51   C     C_3   0.365481 0.592476 0.392250 -0.341045
H20   H     H_    0.434338 0.585488 0.434304 0.206750
H21   H     H_    0.310021 0.697331 0.374485 0.105553
H22   H     H_    0.294859 0.561583 0.412393 0.120747
O29   O     O_3   0.942172 0.920897 0.324126 -0.552316
C52   C     C_3   0.005958 0.813560 0.370560 -0.004007
H23   H     H_    0.091356 0.728468 0.344276 0.121842
H24   H     H_    0.939024 0.777425 0.390645 0.147415
C53   C     C_3   0.055483 0.858892 0.432808 -0.341910
H25   H     H_    0.970610 0.943754 0.459470 0.188924
H26   H     H_    0.105827 0.775083 0.469452 0.080647
H27   H     H_    0.126905 0.891815 0.417158 0.146636
O30   O     O_3   0.506457 0.007293 0.142578 -0.578982
C54   C     C_3   0.513904 0.977559 0.071499 -0.025750
H28   H     H_    0.554670 0.868999 0.059821 0.127376
H29   H     H_    0.583546 0.006430 0.047999 0.160275
C55   C     C_3   0.377399 0.059326 0.037874 -0.365607
H30   H     H_    0.339075 0.167809 0.047469 0.175062
H31   H     H_    0.385865 0.040189 0.981556 0.101975
H32   H     H_    0.305625 0.030867 0.058881 0.165801

loop_
_geom_bond_atom_site_label_1
_geom_bond_atom_site_label_2
_ccdc_geom_bond_type
C21   C26   S    
C33   H4    S    
C36   O29   S    
C34   C37   S    
C14   C18   S    
C35   C36   S    
C25   H13   S    
C34   O25   A    
Cr4   O7    S    
C2    C12   S    
C51   H21   S    
C20   C41   S    
C38   O8    A    
O30   C54   S    
C18   H11   S    
C15   C19   A    
C26   C27   S    
C50   H18   S    
C16   H8    S    
C30   C35   S    
C11   C42   S    
Cr5   O16   S    
C39   O9    A    
C12   O22   A    
Cr4   O6    S    
C52   H24   S    
Cr3   O22   S    
Cr6   O19   S    
C20   C25   A    
C6    C23   S    
C15   C16   A    
C41   O15   A    
C49   H17   S    
C29   C33   A    
O29   C52   S    
C44   O3    A    
C35   H5    S    
C45   O24   A    
C23   O1    A    
C51   H20   S    
Cr3   O23   S    
O27   C49   S    
C3    C38   S    
C8    C9    S    
C49   H16   S    
C7    C40   S    
C44   O2    A    
C24   C28   A    
C55   H32   S    
C24   H12   S    
C19   C44   S    
C1    O20   A    
C50   H19   S    
Cr1   O1    S    
C13   C14   A    
C29   C43   S    
C45   O4    A    
Cr3   O3    S    
C53   H26   S    
C53   H25   S    
C55   H31   S    
C38   O7    A    
C46   C48   T    
C28   C45   S    
C39   O10   A    
C34   O26   A    
C12   O21   A    
C42   O16   A    
C24   C25   A    
C4    C6    T    
C27   H3    S    
Cr2   O5    S    
Cr6   O18   S    
C27   H2    S    
Cr2   O26   S    
C32   O28   S    
C35   H6    S    
C15   H1    S    
Cr5   O9    S    
C29   C30   A    
C11   C16   A    
Cr2   O21   S    
C47   C48   S    
C49   H15   S    
C17   C18   S    
C40   O11   A    
Cr5   O19   S    
C42   O17   A    
C32   C37   A    
Cr4   O14   S    
C39   C46   S    
C50   C51   S    
C22   C27   S    
C43   O13   A    
C23   O23   A    
C52   C53   S    
Cr5   O8    S    
Cr3   O4    S    
Cr1   O24   S    
C36   H7    S    
C55   H30   S    
Cr6   O11   S    
C26   O27   S    
C7    C9    T    
C43   O18   A    
C14   C19   A    
Cr4   O19   S    
C1    C10   S    
Cr3   O5    S    
C4    C5    S    
C3    C5    T    
Cr6   O17   S    
Cr2   O20   S    
C2    C47   T    
C54   H28   S    
Cr1   O12   S    
C13   C17   S    
Cr5   O15   S    
C26   H14   S    
C32   C33   A    
C54   C55   S    
C54   H29   S    
Cr2   O2    S    
C52   H23   S    
C17   H9    S    
C11   C13   A    
C18   H10   S    
C30   C31   A    
C41   O14   A    
O28   C50   S    
C40   O6    A    
Cr1   O5    S    
C53   H27   S    
Cr4   O13   S    
C31   C37   A    
C20   C21   A    
C8    C10   T    
C1    O12   A    
C31   C36   S    
C22   C28   A    
Cr1   O25   S    
C21   C22   A    
C51   H22   S    
C17   O30   S    
Cr6   O10   S    
