data_mof_unit_34902.cif
_audit_creation_date              2013-03-05T15:49:31-0500
_audit_creation_method            fapswitch 2.2
_symmetry_space_group_name_H-M    P1
_symmetry_Int_Tables_number       1
_space_group_crystal_system       triclinic
_cell_length_a                    18.285367
_cell_length_b                    18.285311
_cell_length_c                    34.53468
_cell_angle_alpha                 89.999101
_cell_angle_beta                  89.999376
_cell_angle_gamma                 90.004042
_cell_volume                      11546.7953237

loop_
_atom_site_label
_atom_site_type_symbol
_atom_site_description
_atom_site_fract_x
_atom_site_fract_y
_atom_site_fract_z
_atom_type_partial_charge
Zn1   Zn    Zn3+2 0.000000 0.586740 0.782740 0.960194
Zn2   Zn    Zn3+2 1.000000 0.413260 0.217260 0.960197
Zn3   Zn    Zn3+2 0.413260 0.000000 0.782740 0.960209
Zn4   Zn    Zn3+2 0.586740 0.000000 0.217260 0.960209
Zn5   Zn    Zn3+2 0.000000 0.413260 0.782740 0.960199
Zn6   Zn    Zn3+2 0.000000 0.586740 0.217260 0.960322
Zn7   Zn    Zn3+2 0.586740 0.000000 0.782740 0.960154
Zn8   Zn    Zn3+2 0.413260 0.000000 0.217260 0.960283
Zn9   Zn    Zn3+2 0.500000 0.086740 0.282740 0.960190
Zn10  Zn    Zn3+2 0.500000 0.913260 0.717260 0.960184
Zn11  Zn    Zn3+2 0.913260 0.500000 0.282740 0.960185
Zn12  Zn    Zn3+2 0.086740 0.500000 0.717260 0.960184
Zn13  Zn    Zn3+2 0.500000 0.913260 0.282740 0.960311
Zn14  Zn    Zn3+2 0.500000 0.086740 0.717260 0.960192
Zn15  Zn    Zn3+2 0.086740 0.500000 0.282740 0.960332
Zn16  Zn    Zn3+2 0.913260 0.500000 0.717260 0.960204
C1    C     C_R   0.495078 0.134633 0.520327 0.179885
C2    C     C_R   0.495477 0.865352 0.479673 0.179862
C3    C     C_R   0.865359 0.495401 0.520327 0.179639
C4    C     C_R   0.134631 0.495124 0.479673 0.179647
C5    C     C_R   0.504916 0.865367 0.520329 0.179885
C6    C     C_R   0.504517 0.134647 0.479671 0.179861
C7    C     C_R   0.134642 0.504614 0.520325 0.179642
C8    C     C_R   0.865369 0.504890 0.479674 0.179647
C9    C     C_R   0.995336 0.365305 0.020331 0.179775
C10   C     C_R   0.004686 0.634688 0.979671 0.179607
C11   C     C_R   0.365363 0.995255 0.020328 0.179941
C12   C     C_R   0.634639 0.995327 0.979672 0.179948
C13   C     C_R   0.995249 0.634685 0.020327 0.179603
C14   C     C_R   0.004731 0.365308 0.979672 0.179786
C15   C     C_R   0.634637 0.004770 0.020327 0.179755
C16   C     C_R   0.365361 0.004699 0.979673 0.179764
O1    O     O_3   0.000000 0.500000 0.750000 -0.485754
O2    O     O_3   1.000000 0.500000 0.250000 -0.485832
O3    O     O_3   0.500000 0.000000 0.750000 -0.485754
O4    O     O_3   0.500000 0.000000 0.250000 -0.485832
O5    O     O_R   0.060740 0.500000 0.662560 -0.646371
O6    O     O_R   0.939260 0.500000 0.337440 -0.646397
O7    O     O_R   0.500000 0.060740 0.662560 -0.646371
O8    O     O_R   0.500000 0.939260 0.337440 -0.646405
O9    O     O_R   0.939260 0.500000 0.662560 -0.646373
O10   O     O_R   0.060740 0.500000 0.337440 -0.646405
O11   O     O_R   0.500000 0.939260 0.662560 -0.646368
O12   O     O_R   0.500000 0.060740 0.337440 -0.646395
O13   O     O_R   0.560740 1.000000 0.162560 -0.646390
O14   O     O_R   0.439260 0.000000 0.837440 -0.646363
O15   O     O_R   1.000000 0.560740 0.162560 -0.646385
O16   O     O_R   1.000000 0.439260 0.837440 -0.646353
O17   O     O_R   0.439260 1.000000 0.162560 -0.646411
O18   O     O_R   0.560740 0.000000 0.837440 -0.646378
O19   O     O_R   1.000000 0.439260 0.162560 -0.646377
O20   O     O_R   0.000000 0.560740 0.837440 -0.646349
H1    H     H_    0.225715 0.582853 0.799612 0.111289
H2    H     H_    0.754249 0.436906 0.223535 0.128843
H3    H     H_    0.437045 0.245917 0.776198 0.129104
H4    H     H_    0.583152 0.774545 0.200145 0.111278
H5    H     H_    0.774255 0.417170 0.799589 0.111323
H6    H     H_    0.245467 0.563367 0.223016 0.128267
H7    H     H_    0.562940 0.754071 0.776169 0.129138
H8    H     H_    0.416937 0.225501 0.200223 0.111332
H9    H     H_    0.225470 0.416864 0.200158 0.111310
H10   H     H_    0.754062 0.562936 0.776161 0.129138
H11   H     H_    0.436633 0.754541 0.223011 0.128272
H12   H     H_    0.582832 0.225738 0.799593 0.111295
H13   H     H_    0.774526 0.583088 0.200203 0.111325
H14   H     H_    0.245911 0.437043 0.776203 0.129094
H15   H     H_    0.563096 0.245755 0.223536 0.128849
H16   H     H_    0.417155 0.774268 0.799602 0.111290
H17   H     H_    0.745754 0.063091 0.276458 0.128856
H18   H     H_    0.274272 0.917155 0.700396 0.111288
H19   H     H_    0.916842 0.725446 0.299860 0.111296
H20   H     H_    0.062952 0.254080 0.723807 0.129114
H21   H     H_    0.254543 0.936626 0.276995 0.128266
H22   H     H_    0.725740 0.082836 0.700404 0.111290
H23   H     H_    0.083075 0.274511 0.299789 0.111335
H24   H     H_    0.937059 0.745930 0.723830 0.129133
H25   H     H_    0.745934 0.937063 0.723835 0.129143
H26   H     H_    0.274535 0.083141 0.299849 0.111276
H27   H     H_    0.917158 0.274272 0.700397 0.111300
H28   H     H_    0.063373 0.745455 0.276994 0.128265
H29   H     H_    0.254083 0.062952 0.723806 0.129107
H30   H     H_    0.725487 0.916921 0.299788 0.111324
H31   H     H_    0.082850 0.725722 0.700393 0.111310
H32   H     H_    0.936907 0.254242 0.276458 0.128863
O21   O     O_R   0.853850 0.585450 0.727070 -0.638561
O22   O     O_R   0.146150 0.414550 0.272930 -0.637367
O23   O     O_R   0.414550 0.853850 0.727070 -0.637344
O24   O     O_R   0.585450 0.146150 0.272930 -0.638582
O25   O     O_R   0.146150 0.414550 0.727070 -0.638509
O26   O     O_R   0.853850 0.585450 0.272930 -0.637470
O27   O     O_R   0.585450 0.146150 0.727070 -0.637337
O28   O     O_R   0.414550 0.853850 0.272930 -0.638477
O29   O     O_R   0.853850 0.414550 0.272930 -0.638430
O30   O     O_R   0.146150 0.585450 0.727070 -0.637464
O31   O     O_R   0.414550 0.146150 0.272930 -0.637346
O32   O     O_R   0.585450 0.853850 0.727070 -0.638674
O33   O     O_R   0.146150 0.585450 0.272930 -0.638359
O34   O     O_R   0.853850 0.414550 0.727070 -0.637502
O35   O     O_R   0.585450 0.853850 0.272930 -0.637214
O36   O     O_R   0.414550 0.146150 0.727070 -0.638670
O37   O     O_R   0.353850 0.085450 0.227070 -0.637215
O38   O     O_R   0.646150 0.914550 0.772930 -0.638686
O39   O     O_R   0.914550 0.353850 0.227070 -0.638637
O40   O     O_R   0.085450 0.646150 0.772930 -0.637466
O41   O     O_R   0.646150 0.914550 0.227070 -0.637328
O42   O     O_R   0.353850 0.085450 0.772930 -0.638660
O43   O     O_R   0.085450 0.646150 0.227070 -0.638371
O44   O     O_R   0.914550 0.353850 0.772930 -0.637312
O45   O     O_R   0.353850 0.914550 0.772930 -0.637334
O46   O     O_R   0.646150 0.085450 0.227070 -0.638593
O47   O     O_R   0.914550 0.646150 0.772930 -0.638560
O48   O     O_R   0.085450 0.353850 0.227070 -0.637309
O49   O     O_R   0.646150 0.085450 0.772930 -0.637363
O50   O     O_R   0.353850 0.914550 0.227070 -0.638494
O51   O     O_R   0.085450 0.353850 0.772930 -0.638713
O52   O     O_R   0.914550 0.646150 0.227070 -0.637324
C17   C     C_R   0.501220 0.934016 0.581366 -0.229725
C18   C     C_R   0.501030 0.065987 0.418634 -0.229747
C19   C     C_R   0.065987 0.501121 0.581364 -0.229797
C20   C     C_R   0.934015 0.501248 0.418635 -0.229826
C21   C     C_R   0.498777 0.065985 0.581365 -0.229729
C22   C     C_R   0.498966 0.934011 0.418635 -0.229740
C23   C     C_R   0.934014 0.498887 0.581365 -0.229796
C24   C     C_R   0.065984 0.498758 0.418634 -0.229814
C25   C     C_R   0.997954 0.565988 0.081362 -0.229825
C26   C     C_R   0.001998 0.434009 0.918637 -0.229769
C27   C     C_R   0.565985 0.001153 0.081365 -0.229763
C28   C     C_R   0.434014 0.001120 0.918635 -0.229735
C29   C     C_R   0.998034 0.434009 0.081364 -0.229790
C30   C     C_R   0.002015 0.565988 0.918637 -0.229806
C31   C     C_R   0.434015 0.998858 0.081366 -0.229750
C32   C     C_R   0.565985 0.998893 0.918634 -0.229733
C33   C     C_R   0.499999 0.000001 0.601594 -0.059727
C34   C     C_R   0.499999 0.999999 0.398406 -0.059720
C35   C     C_R   0.000001 0.500003 0.601593 -0.059677
C36   C     C_R   1.000000 0.500002 0.398406 -0.059665
C37   C     C_R   0.998713 0.499999 0.101591 -0.059692
C38   C     C_R   0.001288 0.499999 0.898409 -0.059704
C39   C     C_R   0.500000 0.000003 0.101594 -0.059717
C40   C     C_R   0.499999 0.000004 0.898406 -0.059730
C41   C     C_R   0.497625 0.067347 0.540729 0.070075
C42   C     C_R   0.497822 0.932646 0.459271 0.070064
C43   C     C_R   0.932649 0.497772 0.540730 0.070094
C44   C     C_R   0.067346 0.497637 0.459270 0.070087
C45   C     C_R   0.502370 0.932653 0.540730 0.070072
C46   C     C_R   0.502173 0.067354 0.459269 0.070062
C47   C     C_R   0.067352 0.502240 0.540729 0.070091
C48   C     C_R   0.932653 0.502376 0.459271 0.070097
C49   C     C_R   0.997276 0.432625 0.040723 0.070077
C50   C     C_R   0.002750 0.567369 0.959277 0.070123
C51   C     C_R   0.432651 0.997716 0.040730 0.070079
C52   C     C_R   0.567350 0.997752 0.959270 0.070087
C53   C     C_R   0.997219 0.567368 0.040721 0.070121
C54   C     C_R   0.002758 0.432626 0.959278 0.070087
C55   C     C_R   0.567349 0.002303 0.040730 0.070068
C56   C     C_R   0.432650 0.002269 0.959271 0.070073
C57   C     C_R   0.000000 0.500000 0.644092 0.806387
C58   C     C_R   1.000000 0.500000 0.355908 0.806287
C59   C     C_R   0.500000 0.000000 0.644092 0.806381
C60   C     C_R   0.500000 1.000000 0.355908 0.806281
C61   C     C_R   0.500000 0.000000 0.144092 0.806277
C62   C     C_R   0.500000 0.000000 0.855908 0.806380
C63   C     C_R   0.999881 0.500000 0.144090 0.806222
C64   C     C_R   0.000119 0.499999 0.855910 0.806323
C65   C     C_R   0.860186 0.639813 0.750000 0.784865
C66   C     C_R   0.139805 0.360204 0.249996 0.788319
C67   C     C_R   0.360200 0.860200 0.750000 0.788347
C68   C     C_R   0.639812 0.139812 0.249999 0.784785
C69   C     C_R   0.139813 0.360186 0.750000 0.784806
C70   C     C_R   0.860204 0.639805 0.250004 0.788283
C71   C     C_R   0.639800 0.139799 0.749999 0.788356
C72   C     C_R   0.360189 0.860189 0.250001 0.784908
C73   C     C_R   0.860188 0.360188 0.250000 0.784849
C74   C     C_R   0.139800 0.639799 0.750000 0.788273
C75   C     C_R   0.360194 0.139795 0.250005 0.788351
C76   C     C_R   0.639813 0.860188 0.750000 0.784731
C77   C     C_R   0.139811 0.639811 0.250000 0.785039
C78   C     C_R   0.860201 0.360200 0.750000 0.788324
C79   C     C_R   0.639796 0.860194 0.249995 0.788357
C80   C     C_R   0.360187 0.139814 0.750000 0.784741
H33   H     H_    0.071918 0.832596 0.658773 0.128856
H34   H     H_    0.965029 0.130328 0.296728 0.135900
H35   H     H_    0.130048 0.034699 0.703820 0.135948
H36   H     H_    0.832118 0.927639 0.341600 0.128761
H37   H     H_    0.928096 0.167396 0.658781 0.128838
H38   H     H_    0.035512 0.869132 0.297855 0.135333
H39   H     H_    0.869982 0.965327 0.703881 0.135980
H40   H     H_    0.167877 0.072442 0.341647 0.128492
H41   H     H_    0.072348 0.167872 0.341595 0.128781
H42   H     H_    0.965325 0.869978 0.703876 0.135991
H43   H     H_    0.130865 0.964485 0.297855 0.135321
H44   H     H_    0.832616 0.071901 0.658786 0.128831
H45   H     H_    0.927539 0.832101 0.341659 0.128516
H46   H     H_    0.034702 0.130044 0.703821 0.135954
H47   H     H_    0.869666 0.034966 0.296729 0.135893
H48   H     H_    0.167403 0.928085 0.658774 0.128818
H49   H     H_    0.534977 0.369667 0.203259 0.135876
H50   H     H_    0.428082 0.667399 0.841226 0.128830
H51   H     H_    0.667895 0.572368 0.158392 0.128754
H52   H     H_    0.369944 0.465294 0.796194 0.135960
H53   H     H_    0.464506 0.630853 0.202162 0.135320
H54   H     H_    0.571889 0.332620 0.841205 0.128801
H55   H     H_    0.332135 0.427570 0.158365 0.128511
H56   H     H_    0.630013 0.534672 0.796114 0.135966
H57   H     H_    0.534672 0.630022 0.796120 0.135981
H58   H     H_    0.427667 0.332144 0.158420 0.128744
H59   H     H_    0.667371 0.428112 0.841201 0.128846
H60   H     H_    0.369156 0.535498 0.202165 0.135305
H61   H     H_    0.465291 0.369951 0.796191 0.135934
H62   H     H_    0.572462 0.667895 0.158341 0.128496
H63   H     H_    0.332586 0.571921 0.841233 0.128811
H64   H     H_    0.630341 0.465028 0.203258 0.135903
C81   C     C_R   0.266112 0.626078 0.798634 -0.146125
C82   C     C_R   0.714217 0.393446 0.224852 -0.142253
C83   C     C_R   0.393581 0.285934 0.774870 -0.142214
C84   C     C_R   0.626367 0.734142 0.201136 -0.145538
C85   C     C_R   0.733862 0.373941 0.798614 -0.145834
C86   C     C_R   0.285515 0.606819 0.224303 -0.142015
C87   C     C_R   0.606402 0.714053 0.774836 -0.142201
C88   C     C_R   0.373699 0.265881 0.201185 -0.145799
C89   C     C_R   0.265874 0.373651 0.201150 -0.145584
C90   C     C_R   0.714047 0.606401 0.774832 -0.142064
C91   C     C_R   0.393182 0.714491 0.224301 -0.142163
C92   C     C_R   0.626060 0.266133 0.798616 -0.145783
C93   C     C_R   0.734143 0.626322 0.201167 -0.146148
C94   C     C_R   0.285930 0.393581 0.774873 -0.142199
C95   C     C_R   0.606556 0.285786 0.224853 -0.142266
C96   C     C_R   0.373924 0.733877 0.798628 -0.145790
C97   C     C_R   0.785786 0.106551 0.275140 -0.142221
C98   C     C_R   0.233879 0.873926 0.701372 -0.145765
C99   C     C_R   0.873632 0.765852 0.298866 -0.145932
C100  C     C_R   0.106415 0.214063 0.725136 -0.142020
C101  C     C_R   0.214494 0.893175 0.275705 -0.142175
C102  C     C_R   0.766132 0.126066 0.701379 -0.145794
C103  C     C_R   0.126310 0.234129 0.298825 -0.146201
C104  C     C_R   0.893597 0.785948 0.725162 -0.142041
C105  C     C_R   0.785951 0.893599 0.725165 -0.142218
C106  C     C_R   0.234132 0.126354 0.298858 -0.145553
C107  C     C_R   0.873932 0.233876 0.701375 -0.146168
C108  C     C_R   0.106824 0.785505 0.275705 -0.142001
C109  C     C_R   0.214065 0.106415 0.725135 -0.142174
C110  C     C_R   0.765865 0.873683 0.298827 -0.145797
C111  C     C_R   0.126078 0.766118 0.701370 -0.146171
C112  C     C_R   0.893447 0.214211 0.275140 -0.142065
C113  C     C_R   0.327094 0.619149 0.822562 -0.150365
C114  C     C_R   0.643457 0.410236 0.212843 -0.142113
C115  C     C_R   0.410445 0.356767 0.786725 -0.142385
C116  C     C_R   0.619570 0.673283 0.177107 -0.149595
C117  C     C_R   0.672873 0.380875 0.822536 -0.150147
C118  C     C_R   0.356138 0.590177 0.211981 -0.141758
C119  C     C_R   0.589526 0.643210 0.786668 -0.142386
C120  C     C_R   0.380513 0.326732 0.177153 -0.149915
C121  C     C_R   0.326742 0.380458 0.177128 -0.149632
C122  C     C_R   0.643205 0.589527 0.786665 -0.142350
C123  C     C_R   0.409826 0.643868 0.211979 -0.141799
C124  C     C_R   0.619124 0.327121 0.822538 -0.150109
C125  C     C_R   0.673299 0.619515 0.177130 -0.150176
C126  C     C_R   0.356762 0.410448 0.786727 -0.142367
C127  C     C_R   0.589769 0.356548 0.212844 -0.142131
C128  C     C_R   0.380850 0.672896 0.822558 -0.150114
C129  C     C_R   0.856548 0.089759 0.287146 -0.142102
C130  C     C_R   0.172899 0.880854 0.677443 -0.150099
C131  C     C_R   0.880432 0.826715 0.322892 -0.149889
C132  C     C_R   0.089549 0.143228 0.713285 -0.142327
C133  C     C_R   0.143876 0.909811 0.288033 -0.141819
C134  C     C_R   0.827116 0.119136 0.677452 -0.150115
C135  C     C_R   0.119499 0.173280 0.322860 -0.150197
C136  C     C_R   0.910472 0.856790 0.713329 -0.142341
C137  C     C_R   0.856792 0.910473 0.713331 -0.142404
C138  C     C_R   0.173267 0.119553 0.322883 -0.149597
C139  C     C_R   0.880864 0.172891 0.677450 -0.150382
C140  C     C_R   0.090187 0.856122 0.288033 -0.141755
C141  C     C_R   0.143232 0.089547 0.713284 -0.142359
C142  C     C_R   0.826709 0.880488 0.322865 -0.149907
C143  C     C_R   0.119149 0.827101 0.677442 -0.150402
C144  C     C_R   0.910237 0.143447 0.287146 -0.142071
C145  C     C_R   0.499997 0.000000 0.520328 -0.034725
C146  C     C_R   0.499997 1.000000 0.479672 -0.034722
C147  C     C_R   0.000000 0.500007 0.520328 -0.034658
C148  C     C_R   0.000000 0.500007 0.479672 -0.034661
C149  C     C_R   0.999162 0.499997 0.020324 -0.034722
C150  C     C_R   0.000840 0.499997 0.979676 -0.034722
C151  C     C_R   0.500000 0.000010 0.020328 -0.034723
C152  C     C_R   0.500000 0.000011 0.979672 -0.034723
C153  C     C_R   0.312276 0.742318 0.774195 0.074514
C154  C     C_R   0.677862 0.267570 0.237843 0.071492
C155  C     C_R   0.267638 0.322206 0.762017 0.071513
C156  C     C_R   0.742458 0.687853 0.225697 0.074542
C157  C     C_R   0.687715 0.257688 0.774187 0.074489
C158  C     C_R   0.322010 0.732563 0.237564 0.071400
C159  C     C_R   0.732351 0.677786 0.761997 0.071557
C160  C     C_R   0.257557 0.312142 0.225696 0.074400
C161  C     C_R   0.312157 0.257553 0.225707 0.074495
C162  C     C_R   0.677786 0.732354 0.761998 0.071535
C163  C     C_R   0.267439 0.677991 0.237565 0.071426
C164  C     C_R   0.742310 0.312285 0.774186 0.074502
C165  C     C_R   0.687868 0.742451 0.225687 0.074412
C166  C     C_R   0.322205 0.267640 0.762016 0.071527
C167  C     C_R   0.732432 0.322139 0.237843 0.071476
C168  C     C_R   0.257678 0.687723 0.774196 0.074536
C169  C     C_R   0.822139 0.232429 0.262152 0.071536
C170  C     C_R   0.187724 0.757680 0.725805 0.074543
C171  C     C_R   0.757545 0.812147 0.274301 0.074519
C172  C     C_R   0.232360 0.177792 0.737988 0.071530
C173  C     C_R   0.177993 0.767436 0.262438 0.071439
C174  C     C_R   0.812282 0.242316 0.725808 0.074525
C175  C     C_R   0.242446 0.187861 0.274309 0.074408
C176  C     C_R   0.767647 0.822214 0.738001 0.071529
C177  C     C_R   0.822213 0.767647 0.738001 0.071560
C178  C     C_R   0.187847 0.242451 0.274299 0.074534
C179  C     C_R   0.757687 0.187718 0.725808 0.074511
C180  C     C_R   0.232564 0.822007 0.262439 0.071412
C181  C     C_R   0.177793 0.232358 0.737988 0.071570
C182  C     C_R   0.812132 0.757546 0.274313 0.074442
C183  C     C_R   0.242319 0.812277 0.725806 0.074513
C184  C     C_R   0.767570 0.177859 0.262152 0.071494
H65   H     H_    0.500128 0.883716 0.597796 0.182511
H66   H     H_    0.499788 0.116284 0.402204 0.182514
H67   H     H_    0.116285 0.499956 0.597794 0.182461
H68   H     H_    0.883715 0.500181 0.402206 0.182473
H69   H     H_    0.499870 0.116285 0.597794 0.182509
H70   H     H_    0.500208 0.883715 0.402206 0.182512
H71   H     H_    0.883716 0.500050 0.597795 0.182462
H72   H     H_    0.116284 0.499822 0.402204 0.182473
H73   H     H_    0.999749 0.616273 0.097788 0.182445
H74   H     H_    0.000157 0.383725 0.902211 0.182483
H75   H     H_    0.616283 0.000002 0.097794 0.182521
H76   H     H_    0.383716 0.999942 0.902206 0.182515
H77   H     H_    0.999901 0.383727 0.097791 0.182490
H78   H     H_    0.000196 0.616272 0.902210 0.182439
H79   H     H_    0.383718 0.000006 0.097795 0.182508
H80   H     H_    0.616282 0.000069 0.902205 0.182501
C185  C     C_R   0.304085 0.804086 0.750000 -0.151061
C186  C     C_R   0.695927 0.195927 0.249999 -0.156847
C187  C     C_R   0.195927 0.304071 0.750001 -0.156998
C188  C     C_R   0.804085 0.695914 0.250005 -0.150993
C189  C     C_R   0.695914 0.195914 0.749999 -0.151059
C190  C     C_R   0.304074 0.804074 0.250001 -0.156533
C191  C     C_R   0.804071 0.695928 0.749999 -0.156987
C192  C     C_R   0.195915 0.304085 0.249996 -0.150999
C193  C     C_R   0.304085 0.195915 0.250007 -0.150998
C194  C     C_R   0.695928 0.804073 0.750000 -0.157060
C195  C     C_R   0.195926 0.695927 0.250000 -0.156462
C196  C     C_R   0.804086 0.304086 0.749999 -0.151061
C197  C     C_R   0.695916 0.804084 0.249994 -0.151005
C198  C     C_R   0.304072 0.195928 0.750001 -0.157048
C199  C     C_R   0.804073 0.304073 0.249999 -0.156797
C200  C     C_R   0.195914 0.695913 0.750000 -0.151050
C201  C     C_3   0.478766 0.205350 0.541779 -0.915785
H81   H     H_    0.433697 0.196798 0.562845 0.238320
H82   H     H_    0.528460 0.224571 0.557190 0.244995
H83   H     H_    0.458172 0.249249 0.522544 0.254155
C202  C     C_3   0.479379 0.794584 0.458221 -0.915740
H84   H     H_    0.434281 0.802992 0.437158 0.238354
H85   H     H_    0.529130 0.775525 0.442807 0.244973
H86   H     H_    0.458926 0.750617 0.477456 0.254163
C203  C     C_3   0.794600 0.479231 0.541774 -0.915540
H87   H     H_    0.803035 0.434103 0.562817 0.238925
H88   H     H_    0.775515 0.528944 0.557211 0.244575
H89   H     H_    0.750645 0.458789 0.522530 0.254178
C204  C     C_3   0.205352 0.478802 0.458226 -0.915527
H90   H     H_    0.196812 0.433697 0.437180 0.238900
H91   H     H_    0.224556 0.528477 0.442792 0.244602
H92   H     H_    0.249259 0.458256 0.477470 0.254159
C205  C     C_3   0.521228 0.794650 0.541782 -0.915783
H93   H     H_    0.566298 0.803201 0.562847 0.238319
H94   H     H_    0.471534 0.775431 0.557195 0.244995
H95   H     H_    0.541819 0.750750 0.522548 0.254155
C206  C     C_3   0.520613 0.205416 0.458217 -0.915743
H96   H     H_    0.541065 0.249384 0.477450 0.254163
H97   H     H_    0.565712 0.197009 0.437154 0.238351
H98   H     H_    0.470863 0.224473 0.442802 0.244972
C207  C     C_3   0.205400 0.520787 0.541771 -0.915519
H99   H     H_    0.196962 0.565912 0.562816 0.238922
H100  H     H_    0.224489 0.471072 0.557207 0.244575
H101  H     H_    0.249354 0.541235 0.522527 0.254169
C208  C     C_3   0.794647 0.521213 0.458229 -0.915554
H102  H     H_    0.803188 0.566299 0.437173 0.238897
H103  H     H_    0.775427 0.471530 0.442809 0.244612
H104  H     H_    0.750754 0.541783 0.477473 0.254164
C209  C     C_3   0.979237 0.294524 0.041786 -0.915451
H105  H     H_    0.934167 0.302909 0.062869 0.238441
H106  H     H_    0.958709 0.250574 0.022565 0.254092
H107  H     H_    0.029004 0.275439 0.057175 0.244833
C210  C     C_3   0.020821 0.705467 0.958222 -0.915325
H108  H     H_    0.065917 0.697075 0.937154 0.238977
H109  H     H_    0.971075 0.724558 0.942815 0.244508
H110  H     H_    0.041328 0.749414 0.977451 0.254086
C211  C     C_3   0.294624 0.979030 0.041781 -0.915931
H111  H     H_    0.303111 0.933941 0.062842 0.238355
H112  H     H_    0.275480 0.028743 0.057199 0.244912
H113  H     H_    0.250692 0.958506 0.022546 0.254167
C212  C     C_3   0.705384 0.979139 0.958219 -0.915953
H114  H     H_    0.696915 0.934047 0.937159 0.238351
H115  H     H_    0.724508 0.028862 0.942801 0.244911
H116  H     H_    0.749323 0.958638 0.977454 0.254167
C213  C     C_3   0.979078 0.705454 0.041774 -0.915315
H117  H     H_    0.958547 0.749387 0.022545 0.254083
H118  H     H_    0.933988 0.697033 0.062843 0.238971
H119  H     H_    0.028814 0.724579 0.057180 0.244519
C214  C     C_3   0.020865 0.294537 0.958219 -0.915468
H120  H     H_    0.041417 0.250601 0.977440 0.254091
H121  H     H_    0.971107 0.275418 0.942831 0.244836
H122  H     H_    0.065930 0.302950 0.937134 0.238433
C215  C     C_3   0.705375 0.021001 0.041779 -0.915540
H123  H     H_    0.696882 0.066081 0.062843 0.238359
H124  H     H_    0.724529 0.971286 0.057192 0.244983
H125  H     H_    0.749300 0.041539 0.022544 0.254169
C216  C     C_3   0.294617 0.020893 0.958221 -0.915550
H126  H     H_    0.303091 0.065979 0.937156 0.238360
H127  H     H_    0.275483 0.971169 0.942808 0.244982
H128  H     H_    0.250683 0.041407 0.977456 0.254167

loop_
_geom_bond_atom_site_label_1
_geom_bond_atom_site_label_2
_geom_bond_distance
_ccdc_geom_bond_type
C69   C187  1.451150 S    
Zn4   O4    1.947817 S    
C83   C115  1.392911 A    
C203  H87   1.110335 S    
C170  C183  1.411778 A    
C2    C5    1.414596 A    
C3    C203  1.519849 S    
C181  C187  1.414748 A    
C31   C51   1.403712 A    
H49   C127  1.082081 S    
C17   C33   1.394373 A    
C202  H86   1.107874 S    
H50   C128  1.082438 S    
C23   H71   1.080863 S    
H45   C131  1.082461 S    
C10   C210  1.520069 S    
H46   C132  1.082006 S    
C161  C193  1.412906 A    
H47   C129  1.082088 S    
C213  H118  1.110343 S    
Zn9   O24   1.932868 S    
C211  H112  1.110135 S    
H35   C141  1.082007 S    
H30   C110  1.082325 S    
C14   C214  1.520074 S    
C106  C138  1.393714 A    
O31   C75   1.275998 A    
C65   C191  1.451160 S    
C208  H104  1.107867 S    
O23   C67   1.276018 A    
O24   C68   1.276172 A    
Zn7   O38   1.932999 S    
C7    C207  1.519850 S    
C5    C205  1.519863 S    
H22   C102  1.082321 S    
H58   C120  1.082462 S    
C77   C195  1.451057 S    
C98   C183  1.416532 A    
Zn8   O50   1.932867 S    
C206  H98   1.110147 S    
Zn2   O2    1.947839 S    
C13   C213  1.520067 S    
H26   C106  1.082329 S    
C86   C118  1.393337 A    
C175  C193  1.412930 A    
Zn15  O33   1.932865 S    
C202  H85   1.110148 S    
C90   C122  1.392878 A    
C204  H92   1.107879 S    
H64   C114  1.082089 S    
C207  H101  1.107876 S    
C159  C191  1.414729 A    
O40   C74   1.276013 A    
C89   C160  1.416561 A    
H56   C122  1.081986 S    
C2    C42   1.418573 A    
C131  C142  1.389938 A    
H13   C93   1.082327 S    
H32   C112  1.081346 S    
H60   C118  1.082245 S    
Zn14  O36   1.932999 S    
Zn6   O52   1.932999 S    
C112  C169  1.418566 A    
C26   C54   1.403810 A    
C170  C200  1.412866 A    
C20   C48   1.403706 A    
C203  H89   1.107861 S    
C88   C120  1.393691 A    
C211  H111  1.110323 S    
C15   C215  1.519852 S    
C54   C150  1.419524 A    
C30   C38   1.394332 A    
C92   C124  1.393667 A    
H2    C82   1.081347 S    
C84   C165  1.416565 A    
H40   C138  1.082454 S    
C45   C145  1.419436 A    
C132  C141  1.388224 A    
Zn15  O10   1.947948 S    
C4    C44   1.418563 A    
H16   C96   1.082321 S    
C155  C187  1.414745 A    
O16   C64   1.280795 A    
C84   C116  1.393717 A    
C173  C180  1.411127 A    
C212  H114  1.110324 S    
Zn3   O14   1.947958 S    
O27   C71   1.276016 A    
C177  C191  1.414726 A    
O21   C65   1.276178 A    
C207  H100  1.110142 S    
O25   C69   1.276168 A    
C215  H123  1.110324 S    
C171  C182  1.411818 A    
Zn16  O34   1.932867 S    
O28   C72   1.276159 A    
O29   C73   1.276176 A    
C101  C180  1.418667 A    
C55   C151  1.419424 A    
C169  C199  1.414746 A    
C102  C179  1.416532 A    
C28   C56   1.403709 A    
C154  C186  1.414746 A    
C14   C54   1.418635 A    
C29   C37   1.394332 A    
C49   C149  1.419520 A    
C66   C192  1.451136 S    
Zn12  O1    1.947817 S    
C205  H93   1.110334 S    
C120  C121  1.389934 A    
H55   C121  1.082453 S    
C34   C60   1.467662 S    
C169  C184  1.411085 A    
C201  H81   1.110333 S    
C35   C57   1.467669 S    
C155  C166  1.411108 A    
O18   C62   1.280754 A    
C173  C195  1.414874 A    
H62   C116  1.082457 S    
C183  C185  1.412871 A    
C214  H120  1.107851 S    
C18   H66   1.080864 S    
Zn2   O39   1.932869 S    
C1    C41   1.418572 A    
C133  C140  1.388334 A    
Zn16  O21   1.932998 S    
O11   C59   1.280752 A    
C134  C139  1.389931 A    
H3    C83   1.081314 S    
Zn16  O1    1.947839 S    
C135  C138  1.389938 A    
C40   C62   1.467665 S    
C9    C49   1.418635 A    
C4    C204  1.519852 S    
O5    C57   1.280760 A    
C113  C128  1.389931 A    
C22   C34   1.394370 A    
O13   C61   1.280759 A    
C114  C127  1.388298 A    
C16   C56   1.418555 A    
C6    C46   1.418574 A    
Zn5   O1    1.947808 S    
C30   C50   1.403806 A    
Zn9   O4    1.947836 S    
H29   C109  1.081313 S    
Zn10  O3    1.947839 S    
O47   C65   1.276184 A    
Zn3   O3    1.947817 S    
O34   C78   1.276005 A    
C97   C184  1.418565 A    
C80   C198  1.451151 S    
C18   C34   1.394371 A    
C174  C196  1.412869 A    
C36   C58   1.467665 S    
C145  C146  1.404049 A    
Zn5   O51   1.932998 S    
H43   C133  1.082192 S    
C26   H74   1.080900 S    
C85   C117  1.393668 A    
O41   C79   1.275988 A    
O42   C80   1.276162 A    
C72   C190  1.451048 S    
Zn4   O13   1.947958 S    
C103  C135  1.393692 A    
Zn5   O16   1.947960 S    
C89   C121  1.393714 A    
C74   C200  1.451027 S    
Zn6   O15   1.947960 S    
O52   C70   1.276029 A    
C16   C216  1.519853 S    
H11   C91   1.081410 S    
C44   C148  1.419424 A    
C205  H95   1.107872 S    
C37   C63   1.467818 S    
C119  C122  1.388220 A    
C167  C199  1.414744 A    
C23   C35   1.394379 A    
Zn13  O35   1.932998 S    
C29   C49   1.403807 A    
H17   C97   1.081343 S    
H9    C89   1.082328 S    
C156  C188  1.412906 A    
C4    C7    1.414599 A    
H15   C95   1.081346 S    
C147  C148  1.404052 A    
C25   H73   1.080899 S    
H24   C104  1.081309 S    
C216  H128  1.107865 S    
C81   C113  1.393667 A    
C104  C177  1.418533 A    
C21   H69   1.080866 S    
C22   H70   1.080865 S    
C201  H83   1.107874 S    
C153  C168  1.411776 A    
C154  C167  1.411085 A    
O37   C75   1.276050 A    
O36   C80   1.276167 A    
C111  C143  1.393666 A    
H33   C143  1.082437 S    
C214  H122  1.110331 S    
H34   C144  1.082085 S    
C99   C131  1.393715 A    
H1    C81   1.082321 S    
H20   C100  1.081312 S    
Zn7   O18   1.947948 S    
C107  C174  1.416531 A    
C96   C128  1.393670 A    
C182  C188  1.412927 A    
C174  C179  1.411778 A    
C175  C178  1.411819 A    
H63   C113  1.082439 S    
C28   C40   1.394359 A    
C213  H117  1.107851 S    
H6    C86   1.081410 S    
Zn11  O29   1.932880 S    
C99   C182  1.416571 A    
C160  C192  1.412926 A    
H10   C90   1.081304 S    
C71   C189  1.451035 S    
C76   C194  1.451150 S    
Zn14  O27   1.932880 S    
H4    C84   1.082328 S    
C81   C168  1.416535 A    
C31   C39   1.394359 A    
C103  C178  1.416559 A    
C101  C133  1.393270 A    
C82   C167  1.418568 A    
C91   C158  1.418713 A    
C151  C152  1.404049 A    
C112  C144  1.393001 A    
H41   C135  1.082462 S    
C172  C198  1.414747 A    
H42   C136  1.081986 S    
C46   C146  1.419436 A    
C157  C189  1.412870 A    
Zn16  O9    1.947948 S    
C52   C152  1.419420 A    
C210  H109  1.110142 S    
C206  H97   1.110332 S    
C165  C197  1.412933 A    
C98   C130  1.393672 A    
C171  C197  1.412910 A    
O22   C66   1.276039 A    
C42   C146  1.419439 A    
C202  H84   1.110332 S    
C172  C181  1.411108 A    
C129  C144  1.388299 A    
C108  C140  1.393269 A    
C130  C143  1.389931 A    
C204  H91   1.110143 S    
Zn2   O48   1.932998 S    
C162  C194  1.414720 A    
H8    C88   1.082325 S    
C73   C199  1.451053 S    
C19   C47   1.403711 A    
H31   C111  1.082321 S    
H12   C92   1.082320 S    
C17   C45   1.403709 A    
Zn8   O4    1.947839 S    
C109  C141  1.392908 A    
Zn12  O5    1.947958 S    
Zn13  O8    1.947960 S    
Zn14  O7    1.947960 S    
C96   C153  1.416534 A    
C12   C212  1.519845 S    
C156  C165  1.411819 A    
O19   C63   1.280787 A    
C163  C195  1.414897 A    
C179  C189  1.412870 A    
C100  C132  1.392911 A    
Zn8   O37   1.932998 S    
Zn15  O2    1.947835 S    
H21   C101  1.081410 S    
C168  C200  1.412867 A    
O15   C63   1.280796 A    
C203  H88   1.110133 S    
C87   C119  1.392876 A    
H25   C105  1.081306 S    
C94   C126  1.392905 A    
Zn12  O30   1.932878 S    
O10   C58   1.280754 A    
Zn7   O3    1.947835 S    
C75   C193  1.451137 S    
C8    C208  1.519847 S    
Zn3   O42   1.932994 S    
H36   C142  1.082463 S    
C209  H106  1.107850 S    
C24   C36   1.394378 A    
C93   C156  1.416560 A    
C21   C41   1.403713 A    
C10   C50   1.418630 A    
O6    C58   1.280759 A    
C213  H119  1.110141 S    
C27   C55   1.403712 A    
C56   C152  1.419424 A    
C25   C37   1.394326 A    
C7    C47   1.418563 A    
C19   C35   1.394379 A    
C48   C148  1.419425 A    
H54   C124  1.082437 S    
C20   C36   1.394377 A    
C27   H75   1.080854 S    
Zn11  O6    1.947958 S    
C12   C15   1.414595 A    
C85   C164  1.416533 A    
O35   C79   1.276033 A    
H51   C125  1.082464 S    
O33   C77   1.276154 A    
C30   H78   1.080896 S    
C39   C61   1.467662 S    
O48   C66   1.276008 A    
H14   C94   1.081314 S    
O44   C78   1.276026 A    
H59   C117  1.082439 S    
O20   C64   1.280792 A    
C109  C172  1.418559 A    
O9    C57   1.280756 A    
C110  C171  1.416560 A    
C97   C129  1.393000 A    
Zn13  O28   1.932881 S    
O12   C60   1.280752 A    
C115  C126  1.388223 A    
C210  H108  1.110342 S    
Zn4   O41   1.932995 S    
C9    C14   1.414623 A    
Zn4   O46   1.932878 S    
C11   C51   1.418562 A    
O32   C76   1.276180 A    
O7    C59   1.280755 A    
C11   C16   1.414595 A    
O8    C60   1.280755 A    
C6    C206  1.519864 S    
C15   C55   1.418554 A    
C180  C190  1.414873 A    
C212  H116  1.107863 S    
C32   C40   1.394360 A    
C1    C6    1.414598 A    
C215  H124  1.110135 S    
C3    C8    1.414597 A    
Zn1   O47   1.932999 S    
C105  C176  1.418537 A    
C164  C196  1.412869 A    
H5    C85   1.082319 S    
C106  C175  1.416564 A    
Zn3   O45   1.932880 S    
Zn1   O20   1.947946 S    
C68   C186  1.451054 S    
C102  C134  1.393671 A    
Zn2   O19   1.947946 S    
H37   C139  1.082437 S    
C93   C125  1.393692 A    
Zn6   O2    1.947809 S    
C153  C185  1.412874 A    
C136  C137  1.388222 A    
H39   C137  1.081989 S    
C117  C124  1.389930 A    
C104  C136  1.392878 A    
C105  C137  1.392876 A    
C33   C59   1.467662 S    
Zn8   O17   1.947948 S    
C5    C45   1.418572 A    
C108  C173  1.418667 A    
Zn5   O44   1.932881 S    
Zn9   O31   1.932999 S    
H27   C107  1.082321 S    
O51   C69   1.276158 A    
C29   H77   1.080900 S    
C178  C192  1.412909 A    
Zn1   O1    1.947836 S    
O49   C71   1.276015 A    
C79   C197  1.451141 S    
O50   C72   1.276153 A    
C100  C181  1.418558 A    
C212  H115  1.110133 S    
C184  C186  1.414744 A    
C78   C196  1.451031 S    
C160  C161  1.411818 A    
C205  H94   1.110149 S    
C32   H80   1.080857 S    
C1    C201  1.519863 S    
O38   C76   1.276177 A    
C176  C194  1.414725 A    
O39   C73   1.276165 A    
C31   H79   1.080853 S    
C92   C157  1.416533 A    
C50   C150  1.419525 A    
O45   C67   1.276023 A    
O46   C68   1.276170 A    
C88   C161  1.416559 A    
C216  H126  1.110324 S    
C28   H76   1.080856 S    
H23   C103  1.082325 S    
C216  H127  1.110136 S    
H61   C115  1.082001 S    
C95   C127  1.393000 A    
C210  H110  1.107849 S    
C24   H72   1.080863 S    
Zn6   O43   1.932880 S    
C201  H82   1.110148 S    
C27   C39   1.394356 A    
C67   C185  1.451040 S    
C214  H121  1.110145 S    
C25   C53   1.403808 A    
Zn10  O23   1.932869 S    
C157  C164  1.411775 A    
C208  H103  1.110130 S    
C53   C149  1.419528 A    
C158  C163  1.411126 A    
C211  H113  1.107867 S    
Zn12  O25   1.932995 S    
C18   C46   1.403709 A    
C159  C162  1.411105 A    
C94   C155  1.418558 A    
C110  C142  1.393698 A    
Zn13  O4    1.947808 S    
C8    C48   1.418558 A    
C95   C154  1.418564 A    
Zn14  O3    1.947809 S    
C149  C150  1.404125 A    
H53   C123  1.082251 S    
C83   C166  1.418552 A    
C90   C159  1.418537 A    
C166  C198  1.414748 A    
H18   C98   1.082321 S    
H57   C119  1.081985 S    
C51   C151  1.419421 A    
C86   C163  1.418709 A    
C209  H107  1.110143 S    
C87   C162  1.418535 A    
Zn10  O32   1.932998 S    
O26   C70   1.275984 A    
C43   C147  1.419424 A    
C82   C114  1.392995 A    
H38   C140  1.082198 S    
H44   C134  1.082438 S    
C70   C188  1.451124 S    
Zn1   O40   1.932868 S    
C208  H102  1.110332 S    
O30   C74   1.276020 A    
C12   C52   1.418559 A    
C111  C170  1.416535 A    
Zn15  O22   1.932999 S    
C215  H125  1.107866 S    
C22   C42   1.403711 A    
C176  C177  1.411107 A    
C13   C53   1.418626 A    
C206  H96   1.107875 S    
C118  C123  1.388333 A    
C9    C209  1.520076 S    
Zn7   O49   1.932865 S    
C26   C38   1.394330 A    
Zn9   O12   1.947946 S    
C3    C43   1.418562 A    
Zn10  O11   1.947946 S    
O17   C61   1.280754 A    
Zn11  O2    1.947817 S    
C47   C147  1.419425 A    
H52   C126  1.082009 S    
C2    C202  1.519864 S    
C204  H90   1.110343 S    
C107  C139  1.393671 A    
H28   C108  1.081410 S    
H48   C130  1.082437 S    
C41   C145  1.419438 A    
H19   C99   1.082328 S    
H7    C87   1.081308 S    
C207  H99   1.110345 S    
Zn11  O26   1.932994 S    
C209  H105  1.110332 S    
C17   H65   1.080867 S    
C32   C52   1.403711 A    
C19   H67   1.080865 S    
C20   H68   1.080863 S    
C116  C125  1.389939 A    
C11   C211  1.519846 S    
C91   C123  1.393332 A    
C10   C13   1.414613 A    
O14   C62   1.280759 A    
C23   C43   1.403708 A    
C24   C44   1.403705 A    
C38   C64   1.467818 S    
C158  C190  1.414888 A    
C21   C33   1.394370 A    
O43   C77   1.276165 A    
