data_mof_unit_52065.cif
_audit_creation_date              2012-12-10T18:21:17-0500
_audit_creation_method            fapswitch 2.2
_symmetry_space_group_name_H-M    P1
_symmetry_Int_Tables_number       1
_space_group_crystal_system       triclinic
_cell_length_a                    14.976066
_cell_length_b                    14.024928
_cell_length_c                    10.709353
_cell_angle_alpha                 90.364676
_cell_angle_beta                  89.042091
_cell_angle_gamma                 89.525611
_cell_volume                      2248.93471428

loop_
_atom_site_label
_atom_site_type_symbol
_atom_type_description
_atom_site_fract_x
_atom_site_fract_y
_atom_site_fract_z
_atom_type_partial_charge
C1    C     C_R   0.326755 0.500419 0.505660 0.869107
C2    C     C_3   0.585430 0.457181 0.920522 -0.542317
C3    C     C_R   0.816065 0.433080 0.429670 -0.225407
C4    C     C_R   0.768112 0.498533 0.502862 -0.062733
C5    C     C_R   0.810251 0.562312 0.581365 -0.248961
C6    C     C_R   0.902268 0.560908 0.588302 0.117442
C7    C     C_R   0.952521 0.497580 0.511938 0.057019
C8    C     C_R   0.909084 0.433167 0.430592 0.071197
C9    C     C_R   0.943819 0.621823 0.671412 -0.265183
C10   C     C_R   0.036111 0.621719 0.681229 -0.007873
C11   C     C_R   0.089417 0.560581 0.602371 0.054425
C12   C     C_R   0.500757 0.499769 0.257582 0.859927
C13   C     C_R   0.045773 0.498861 0.516754 0.010436
C14   C     C_R   0.094996 0.437680 0.435807 0.108730
C15   C     C_R   0.052274 0.374812 0.354860 -0.240414
C16   C     C_R   0.959660 0.371330 0.352396 -0.005521
C17   C     C_R   0.183909 0.557995 0.605140 0.049447
C18   C     C_R   0.230893 0.500863 0.515959 -0.097187
C19   C     C_R   0.186816 0.440550 0.434868 -0.266431
C20   C     C_R   0.569709 0.797121 0.446049 -0.044196
C21   C     C_R   0.569217 0.201215 0.444978 -0.003369
C22   C     C_R   0.430486 0.798608 0.554281 -0.045632
C23   C     C_R   0.430881 0.203313 0.555459 -0.034417
C24   C     C_R   0.428060 0.899610 0.556058 -0.026843
C25   C     C_R   0.428204 0.102423 0.556791 -0.031359
C26   C     C_R   0.673072 0.499567 0.499341 0.902982
C27   C     C_R   0.499969 0.949494 0.500533 0.047615
C28   C     C_R   0.499849 0.050691 0.500584 0.024021
C29   C     C_R   0.572064 0.897983 0.444984 -0.037028
C30   C     C_R   0.571476 0.100508 0.444404 -0.010199
C31   C     C_R   0.356055 0.951539 0.611499 -0.049201
C32   C     C_R   0.356238 0.052466 0.612331 -0.040796
C33   C     C_R   0.643574 0.049202 0.389614 0.096769
C34   C     C_R   0.644359 0.948482 0.390378 0.046459
C35   C     C_R   0.497193 0.500691 0.742109 0.862120
C36   C     C_3   0.502645 0.605959 0.072559 -0.188974
C37   C     C_3   0.410016 0.456342 0.073121 -0.221955
C38   C     C_3   0.491175 0.607816 0.930522 -0.087020
C39   C     C_3   0.417687 0.439263 0.930654 -0.104109
C40   C     C_3   0.583724 0.441479 0.063819 0.008468
C41   C     C_3   0.500868 0.499414 0.120614 -0.068424
C42   C     C_3   0.495323 0.502255 0.877960 0.066176
H1    H     H_    0.224753 0.395914 0.369491 0.166513
H2    H     H_    0.091338 0.328132 0.293435 0.158099
H3    H     H_    0.623142 0.755151 0.403952 0.150262
H4    H     H_    0.622611 0.241531 0.401890 0.161407
H5    H     H_    0.376982 0.757789 0.595986 0.143807
H6    H     H_    0.377908 0.245605 0.598373 0.144936
H7    H     H_    0.445616 0.645584 0.117345 0.172175
H8    H     H_    0.355875 0.509417 0.093053 0.145294
H9    H     H_    0.547734 0.647781 0.886879 0.171095
H10   H     H_    0.435963 0.362993 0.911975 0.173616
H11   H     H_    0.640965 0.505393 0.892117 0.173587
H12   H     H_    0.599519 0.388690 0.870137 0.193796
H13   H     H_    0.780220 0.384130 0.370361 0.161960
H14   H     H_    0.770974 0.611380 0.639221 0.148220
H15   H     H_    0.903646 0.669323 0.730439 0.155814
N1    N     N_R   0.500070 0.750030 0.500050 -0.110162
N2    N     N_R   0.500070 0.249970 0.500050 -0.116784
O1    O     O_R   0.367860 0.580280 0.500020 -0.623115
O2    O     O_R   0.367860 0.419720 0.500020 -0.625241
O3    O     O_R   0.500000 0.580270 0.314790 -0.621349
O4    O     O_R   0.500000 0.419730 0.314790 -0.604914
O5    O     O_R   0.632160 0.580270 0.499960 -0.625820
O6    O     O_R   0.632160 0.419730 0.499960 -0.630984
O7    O     O_R   0.500030 0.580270 0.685200 -0.646414
O8    O     O_R   0.500030 0.419730 0.685200 -0.630941
Zn1   Zn    Zn3+2 0.500020 0.607200 0.499990 0.943332
Zn2   Zn    Zn3+2 0.500020 0.392800 0.499990 0.957236
C43   C     C_1   0.583258 0.659973 0.107378 0.205632
N3    N     N_1   0.646116 0.702385 0.134119 -0.222492
C44   C     C_1   0.379952 0.367903 0.135254 0.185700
N4    N     N_1   0.356119 0.298868 0.183684 -0.181840
C45   C     C_1   0.070760 0.686056 0.774228 0.213484
N5    N     N_1   0.097273 0.737239 0.850001 -0.175230
N6    N     N_3   0.230195 0.608922 0.701507 -0.447092
H16   H     H_    0.212248 0.577481 0.786380 0.190935
H17   H     H_    0.299019 0.600398 0.695751 0.191010
C46   C     C_1   0.918656 0.304948 0.267207 0.168939
N7    N     N_1   0.885784 0.251930 0.198986 -0.194376
C47   C     C_1   0.281085 0.901779 0.667178 0.168838
N8    N     N_1   0.221115 0.862234 0.711457 -0.164362
C48   C     C_1   0.281904 0.104343 0.670083 0.159803
N9    N     N_1   0.222672 0.145723 0.716094 -0.192717
N10   N     N_3   0.716614 0.099786 0.333217 -0.460122
H18   H     H_    0.775341 0.080137 0.378208 0.212851
H19   H     H_    0.722376 0.078850 0.239525 0.222570
N11   N     N_3   0.719854 0.899368 0.335500 -0.465880
H20   H     H_    0.697770 0.856827 0.262063 0.210535
H21   H     H_    0.748640 0.855955 0.403142 0.191558
N12   N     N_3   0.409062 0.661331 0.901957 -0.462564
H22   H     H_    0.406129 0.679215 0.807882 0.214176
H23   H     H_    0.351679 0.624837 0.928869 0.223817
N13   N     N_3   0.332013 0.457828 0.870577 -0.509577
H24   H     H_    0.334635 0.429612 0.779990 0.187582
H25   H     H_    0.282349 0.419097 0.917073 0.200729
C49   C     C_1   0.669751 0.471599 0.116566 0.144742
N14   N     N_1   0.737294 0.494943 0.157335 -0.200102
C50   C     C_1   0.577815 0.338107 0.089794 0.196550
N15   N     N_1   0.573624 0.257263 0.109994 -0.195314

loop_
_geom_bond_atom_site_label_1
_geom_bond_atom_site_label_2
_ccdc_geom_bond_type
O7    Zn1   S    
C27   C29   A    
C10   C45   S    
C5    H14   S    
C24   C27   A    
C6    C9    A    
C47   N8    T    
C7    C8    A    
N10   H18   S    
C25   C28   A    
C23   N2    A    
C1    C18   S    
O5    Zn1   S    
N6    H17   S    
C15   H2    S    
C21   N2    A    
C5    C6    A    
C15   C16   A    
C18   C19   A    
C35   C42   S    
C33   N10   S    
C26   O5    A    
C3    H13   S    
O4    Zn2   S    
C19   H1    S    
C17   N6    S    
C43   N3    T    
C9    C10   A    
C20   H3    S    
C25   C32   A    
C22   H5    S    
C8    C16   A    
C13   C14   A    
C36   C41   S    
C40   C50   S    
C36   C43   S    
C49   N14   T    
C39   C42   S    
C20   C29   A    
N10   H19   S    
C45   N5    T    
N6    H16   S    
C3    C8    A    
C2    H12   S    
C1    O1    A    
N12   H22   S    
C12   O4    A    
C4    C5    A    
C38   H9    S    
C35   O7    A    
C38   N12   S    
O8    Zn2   S    
C39   N13   S    
C12   C41   S    
N12   H23   S    
C12   O3    A    
C48   N9    T    
C35   O8    A    
C17   C18   A    
C34   N11   S    
N13   H25   S    
N2    Zn2   S    
N1    Zn1   S    
C40   C41   S    
N11   H21   S    
C22   C24   A    
C20   N1    A    
C3    C4    A    
C40   C49   S    
C21   H4    S    
O2    Zn2   S    
C32   C48   S    
C11   C17   A    
C23   H6    S    
C30   C33   A    
C26   O6    A    
C14   C19   A    
C31   C32   A    
C44   N4    T    
C2    H11   S    
C1    O2    A    
C22   N1    A    
C4    C26   S    
C38   C42   S    
C6    C7    A    
C21   C30   A    
C31   C47   S    
C50   N15   T    
O3    Zn1   S    
C16   C46   S    
C36   C38   S    
C24   C31   A    
C37   C39   S    
C37   H8    S    
C11   C13   A    
C2    C42   S    
O6    Zn2   S    
C29   C34   A    
C28   C30   A    
C33   C34   A    
C39   H10   S    
C9    H15   S    
C23   C25   A    
C37   C41   S    
N13   H24   S    
C10   C11   A    
C46   N7    T    
C2    C40   S    
C7    C13   A    
N11   H20   S    
O1    Zn1   S    
C37   C44   S    
C27   C28   A    
C14   C15   A    
C36   H7    S    
