data_mof_unit_28327.cif
_audit_creation_date              2012-12-10T16:32:40-0500
_audit_creation_method            fapswitch 2.2
_symmetry_space_group_name_H-M    P1
_symmetry_Int_Tables_number       1
_space_group_crystal_system       triclinic
_cell_length_a                    16.904568
_cell_length_b                    16.941106
_cell_length_c                    16.920152
_cell_angle_alpha                 66.263269
_cell_angle_beta                  65.625856
_cell_angle_gamma                 65.728325
_cell_volume                      3862.09398664

loop_
_atom_site_label
_atom_site_type_symbol
_atom_type_description
_atom_site_fract_x
_atom_site_fract_y
_atom_site_fract_z
_atom_type_partial_charge
C1    C     C_R   0.587573 0.039706 0.588158 -0.030866
C2    C     C_R   0.820999 0.563783 0.034826 0.913755
C3    C     C_R   0.436410 0.965203 0.178773 0.913524
C4    C     C_R   0.563419 0.035052 0.821152 0.914181
C5    C     C_R   0.563224 0.821314 0.035042 0.933471
C6    C     C_R   0.436326 0.178724 0.965488 0.903670
C7    C     C_R   0.029472 0.565182 0.822232 0.952022
C8    C     C_R   0.966729 0.436339 0.178741 0.929728
C9    C     C_R   0.820929 0.035119 0.563605 0.909429
C10   C     C_R   0.178953 0.964604 0.436686 0.942678
C11   C     C_R   0.542291 0.020026 0.542721 0.122779
C12   C     C_R   0.411716 0.961724 0.411572 -0.032756
C13   C     C_R   0.457026 0.981409 0.456976 0.122125
C14   C     C_R   0.043575 0.536091 0.536012 0.123476
C15   C     C_R   0.006517 0.450684 0.448657 0.122462
C16   C     C_R   0.542337 0.543207 0.019382 0.122981
C17   C     C_R   0.457121 0.456739 0.981662 0.123481
C18   C     C_R   0.488370 0.090467 0.490302 -0.201855
C19   C     C_R   0.510932 0.910971 0.509408 -0.200596
C20   C     C_R   0.954328 0.536928 0.554522 -0.190753
C21   C     C_R   0.096069 0.449595 0.429861 -0.201739
C22   C     C_R   0.488323 0.490940 0.090300 -0.201749
C23   C     C_R   0.059120 0.583247 0.582874 -0.028801
C24   C     C_R   0.511121 0.509020 0.910753 -0.201697
C25   C     C_R   0.445899 0.071226 0.447609 -0.203816
C26   C     C_R   0.553389 0.930211 0.552111 -0.203500
C27   C     C_R   0.445871 0.447885 0.071504 -0.204504
C28   C     C_R   0.553555 0.552083 0.929548 -0.203618
C29   C     C_R   0.935913 0.494542 0.511206 -0.206857
C30   C     C_R   0.114580 0.492300 0.473352 -0.204192
C31   C     C_R   0.545500 0.043572 0.677751 0.036951
C32   C     C_R   0.453567 0.958161 0.321859 0.046815
C33   C     C_R   0.057267 0.674210 0.543586 0.039707
C34   C     C_R   0.985892 0.405484 0.403588 -0.032356
C35   C     C_R   0.982918 0.316166 0.444379 0.041972
C36   C     C_R   0.677323 0.547051 0.042331 0.045751
C37   C     C_R   0.322550 0.453697 0.957417 0.026122
C38   C     C_R   0.322473 0.956904 0.454108 0.027076
C39   C     C_R   0.677174 0.043608 0.546060 0.036668
C40   C     C_R   0.453298 0.321566 0.959060 0.043758
C41   C     C_R   0.545504 0.678194 0.042751 0.026123
C42   C     C_R   0.972756 0.450173 0.318152 0.026798
C43   C     C_R   0.057929 0.543583 0.673679 0.018866
C44   C     C_R   0.593028 0.055328 0.723024 -0.110693
C45   C     C_R   0.587730 0.588902 0.038562 -0.031853
C46   C     C_R   0.405879 0.946591 0.276523 -0.113344
C47   C     C_R   0.035998 0.727800 0.600415 -0.104939
C48   C     C_R   0.959906 0.274482 0.401572 -0.111379
C49   C     C_R   0.722862 0.594834 0.053385 -0.111562
C50   C     C_R   0.277095 0.406237 0.945983 -0.069965
C51   C     C_R   0.277100 0.945458 0.406530 -0.072789
C52   C     C_R   0.722415 0.055375 0.593607 -0.109798
C53   C     C_R   0.405660 0.276298 0.947340 -0.116575
C54   C     C_R   0.593127 0.723678 0.053954 -0.072740
C55   C     C_R   0.954165 0.405029 0.275501 -0.067275
C56   C     C_R   0.411652 0.411186 0.962395 -0.031788
C57   C     C_R   0.036416 0.599875 0.727651 -0.069619
C58   C     C_R   0.674139 0.076885 0.674995 -0.029498
C59   C     C_R   0.323866 0.926830 0.324227 -0.046281
C60   C     C_R   0.011921 0.692120 0.693180 -0.050990
C61   C     C_R   0.934974 0.323855 0.322742 -0.048395
C62   C     C_R   0.675188 0.677276 0.072550 -0.044074
C63   C     C_R   0.323711 0.323920 0.927580 -0.045057
C64   C     C_R   0.969663 0.178425 0.434802 0.903171
C65   C     C_R   0.028881 0.822314 0.565573 0.921052
C66   C     C_R   0.178958 0.436611 0.964803 0.935168
H1    H     H_    0.594933 0.875270 0.592506 0.134702
H2    H     H_    0.479202 0.483623 0.159862 0.133034
H3    H     H_    0.151241 0.415738 0.381669 0.131403
H4    H     H_    0.898836 0.570779 0.602594 0.137871
H5    H     H_    0.411819 0.086305 0.685836 0.181195
H6    H     H_    0.455285 0.972748 0.724500 0.191867
H7    H     H_    0.543896 0.028834 0.275260 0.188903
H8    H     H_    0.587276 0.915234 0.313776 0.184141
H9    H     H_    0.136599 0.675327 0.415125 0.178196
H10   H     H_    0.023391 0.707870 0.429658 0.193657
H11   H     H_    0.069611 0.266248 0.519543 0.186113
H12   H     H_    0.404326 0.126167 0.407243 0.133405
H13   H     H_    0.957947 0.301812 0.576999 0.184603
H14   H     H_    0.683865 0.414447 0.086445 0.183421
H15   H     H_    0.724677 0.455144 0.972517 0.189785
H16   H     H_    0.274911 0.546032 0.026770 0.190558
H17   H     H_    0.316798 0.586095 0.912913 0.184408
H18   H     H_    0.316264 0.912776 0.586786 0.184376
H19   H     H_    0.274755 0.026376 0.546413 0.191147
H20   H     H_    0.724915 0.972807 0.454896 0.191918
H21   H     H_    0.684415 0.086353 0.413183 0.181580
H22   H     H_    0.587098 0.313313 0.916350 0.181219
H23   H     H_    0.183716 0.491258 0.458348 0.130060
H24   H     H_    0.543088 0.275221 0.030178 0.190432
H25   H     H_    0.454540 0.724384 0.973019 0.192069
H26   H     H_    0.411871 0.685516 0.086923 0.182322
H27   H     H_    0.930201 0.581653 0.316525 0.184346
H28   H     H_    0.043087 0.541469 0.266009 0.189913
H29   H     H_    0.025620 0.428580 0.708407 0.194056
H30   H     H_    0.138578 0.416388 0.672121 0.181502
H31   H     H_    0.655029 0.159131 0.745772 0.176098
H32   H     H_    0.743757 0.159191 0.656991 0.175898
H33   H     H_    0.338387 0.837154 0.263180 0.188236
H34   H     H_    0.866628 0.495858 0.526354 0.134675
H35   H     H_    0.256701 0.938262 0.241495 0.231896
H36   H     H_    0.991892 0.778455 0.761725 0.232529
H37   H     H_    0.900027 0.796155 0.729596 0.192971
H38   H     H_    0.936870 0.242634 0.258836 0.233081
H39   H     H_    0.838103 0.269344 0.342757 0.184908
H40   H     H_    0.734950 0.664535 0.162099 0.187800
H41   H     H_    0.758555 0.744147 0.060438 0.233980
H42   H     H_    0.338231 0.263105 0.837650 0.185783
H43   H     H_    0.256525 0.241176 0.939119 0.232631
H44   H     H_    0.595184 0.592342 0.874246 0.134472
H45   H     H_    0.404193 0.407672 0.126802 0.132954
H46   H     H_    0.519965 0.841430 0.517128 0.134558
H47   H     H_    0.479324 0.160007 0.482595 0.132445
H48   H     H_    0.520216 0.516370 0.841189 0.133386
N1    N     N_3   0.455039 0.035260 0.722702 -0.421812
N2    N     N_3   0.454779 0.722627 0.035397 -0.423423
N3    N     N_3   0.978340 0.540970 0.274747 -0.422710
N4    N     N_3   0.075544 0.447612 0.711488 -0.425224
N5    N     N_3   0.709625 0.115124 0.710930 -0.394838
N6    N     N_3   0.286787 0.888333 0.290477 -0.435382
N7    N     N_3   0.954212 0.748006 0.753536 -0.428084
N8    N     N_3   0.890056 0.293259 0.289419 -0.439673
N9    N     N_3   0.708624 0.715029 0.110688 -0.436826
N10   N     N_3   0.286640 0.290172 0.889074 -0.435593
N11   N     N_3   0.544067 0.966390 0.276958 -0.417500
N12   N     N_3   0.073030 0.712755 0.447698 -0.421637
N13   N     N_3   0.003988 0.267830 0.528602 -0.417358
N14   N     N_3   0.721897 0.456408 0.034892 -0.418205
N15   N     N_3   0.278229 0.544541 0.964283 -0.421110
N16   N     N_3   0.277925 0.963967 0.545064 -0.420653
N17   N     N_3   0.722165 0.035341 0.455540 -0.421663
N18   N     N_3   0.543578 0.276717 0.967605 -0.420752
O1    O     O_R   0.982940 0.138950 0.510160 -0.601144
O2    O     O_R   0.982940 0.510160 0.138950 -0.615108
O3    O     O_R   0.861050 0.017060 0.489840 -0.608695
O4    O     O_R   0.138950 0.982940 0.510160 -0.609491
O5    O     O_R   0.867700 0.025880 0.612340 -0.618120
O6    O     O_R   0.132300 0.974120 0.387660 -0.620406
O7    O     O_R   0.025880 0.612340 0.867700 -0.624093
O8    O     O_R   0.974120 0.387660 0.132300 -0.622388
O9    O     O_R   0.612340 0.867700 0.025880 -0.619854
O10   O     O_R   0.387660 0.132300 0.974120 -0.649569
O11   O     O_R   0.387660 0.974120 0.132300 -0.651132
O12   O     O_R   0.017060 0.861050 0.489840 -0.601676
O13   O     O_R   0.612340 0.025880 0.867700 -0.614497
O14   O     O_R   0.132300 0.387660 0.974120 -0.622399
O15   O     O_R   0.867700 0.612340 0.025880 -0.649073
O16   O     O_R   0.974120 0.132300 0.387660 -0.651343
O17   O     O_R   0.025880 0.867700 0.612340 -0.653021
O18   O     O_R   0.138950 0.510160 0.982940 -0.612218
O19   O     O_R   0.861050 0.489840 0.017060 -0.600198
O20   O     O_R   0.510160 0.982940 0.138950 -0.597477
O21   O     O_R   0.489840 0.017060 0.861050 -0.607851
O22   O     O_R   0.489840 0.861050 0.017060 -0.613180
O23   O     O_R   0.510160 0.138950 0.982940 -0.601467
O24   O     O_R   0.017060 0.489840 0.861050 -0.613453
Zn1   Zn    Zn3+2 0.004880 0.004880 0.583590 0.959064
Zn2   Zn    Zn3+2 0.995120 0.995120 0.416410 0.952766
Zn3   Zn    Zn3+2 0.004880 0.583590 0.004880 0.951925
Zn4   Zn    Zn3+2 0.995120 0.416410 0.995120 0.964379
Zn5   Zn    Zn3+2 0.583590 0.004880 0.004880 0.973727
Zn6   Zn    Zn3+2 0.416410 0.995120 0.995120 0.940438

loop_
_geom_bond_atom_site_label_1
_geom_bond_atom_site_label_2
_ccdc_geom_bond_type
C16   C28   A    
C11   C18   A    
O9    Zn5   S    
C59   N6    S    
C46   C59   A    
H10   N12   S    
C34   C42   A    
H41   N9    S    
O15   Zn3   S    
C63   N10   S    
H32   N5    S    
C19   H46   S    
O23   Zn5   S    
C24   H48   S    
C18   C25   A    
H6    N1    S    
C3    O20   A    
C39   N17   S    
C26   H1    S    
C38   N16   S    
H30   N4    S    
C14   C30   A    
C66   O18   A    
C42   C55   A    
H28   N3    S    
H20   N17   S    
C48   C64   S    
H8    N11   S    
H38   N8    S    
C35   C48   A    
C5    O22   A    
C1    C31   A    
C23   C43   A    
H25   N2    S    
C18   H47   S    
C34   C35   A    
H21   N17   S    
C19   C26   A    
C58   N5    S    
H33   N6    S    
C37   C56   A    
C9    O5    A    
C7    O24   A    
C44   C58   A    
C23   C33   A    
C1    C11   S    
H40   N9    S    
C6    O10   A    
H36   N7    S    
C24   C28   A    
O11   Zn6   S    
C6    O23   A    
H11   N13   S    
H24   N18   S    
C10   O6    A    
C4    O21   A    
C40   N18   S    
C27   H45   S    
O3    Zn2   S    
C47   C65   S    
C12   C32   A    
C65   O17   A    
C50   C63   A    
C13   C25   A    
C36   N14   S    
C9    C52   S    
H27   N3    S    
H42   N10   S    
C30   H23   S    
C10   C51   S    
C8    C55   S    
C31   N1    S    
C62   N9    S    
C15   C29   A    
C20   C29   A    
H29   N4    S    
C17   C24   A    
O18   Zn3   S    
C13   C19   A    
C8    O2    A    
C25   H12   S    
C17   C27   A    
C14   C20   A    
C5    C54   S    
O24   Zn4   S    
C3    O11   A    
C31   C44   A    
C65   O12   A    
C1    C39   A    
C57   C60   A    
C38   C51   A    
C4    C44   S    
C11   C26   A    
C40   C56   A    
C2    O15   A    
C21   H3    S    
C61   N8    S    
C14   C23   S    
H31   N5    S    
C2    C49   S    
H19   N16   S    
H26   N2    S    
O6    Zn2   S    
C5    O9    A    
H5    N1    S    
C36   C45   A    
C42   N3    S    
O16   Zn2   S    
H16   N15   S    
C35   N13   S    
C50   C66   S    
C17   C56   S    
C22   H2    S    
C52   C58   A    
O4    Zn1   S    
C9    O3    A    
C22   C27   A    
H15   N14   S    
C33   C47   A    
C51   C59   A    
H22   N18   S    
C6    C53   S    
O12   Zn2   S    
H37   N7    S    
C47   C60   A    
C20   H4    S    
C2    O19   A    
H13   N13   S    
C64   O1    A    
C16   C22   A    
C49   C62   A    
C15   C34   S    
C29   H34   S    
H35   N6    S    
C32   C46   A    
O22   Zn6   S    
O20   Zn5   S    
C10   O4    A    
C16   C45   S    
O10   Zn6   S    
H43   N10   S    
H17   N15   S    
C54   C62   A    
C21   C30   A    
C3    C46   S    
O5    Zn1   S    
O21   Zn6   S    
C8    O8    A    
H9    N12   S    
C28   H44   S    
O19   Zn4   S    
H14   N14   S    
O8    Zn4   S    
C7    O7    A    
C37   C50   A    
C53   C63   A    
C48   C61   A    
O13   Zn5   S    
H7    N11   S    
C4    O13   A    
C55   C61   A    
H18   N16   S    
C33   N12   S    
C32   N11   S    
C37   N15   S    
H39   N8    S    
O2    Zn3   S    
O1    Zn1   S    
C12   C38   A    
C60   N7    S    
C41   C54   A    
C66   O14   A    
C43   C57   A    
C43   N4    S    
O7    Zn3   S    
C15   C21   A    
O14   Zn4   S    
C12   C13   S    
C40   C53   A    
C41   C45   A    
C41   N2    S    
O17   Zn1   S    
C7    C57   S    
C64   O16   A    
C36   C49   A    
C39   C52   A    
