data_mof_unit_9967.cif
_audit_creation_date              2012-10-26T18:43:29-0400
_audit_creation_method            fapswitch 2.2
_symmetry_space_group_name_H-M    P1
_symmetry_Int_Tables_number       1
_space_group_crystal_system       triclinic
_cell_length_a                    10.731814
_cell_length_b                    10.817598
_cell_length_c                    9.545355
_cell_angle_alpha                 89.740349
_cell_angle_beta                  90.041015
_cell_angle_gamma                 90.156251
_cell_volume                      1108.12787113

loop_
_atom_site_label
_atom_site_type_symbol
_atom_type_description
_atom_site_fract_x
_atom_site_fract_y
_atom_site_fract_z
_atom_type_partial_charge
C1    C     C_R   0.501886 0.262413 0.500322 0.544227
C2    C     C_R   0.493345 0.935970 0.625261 0.015234
C3    C     C_3   0.386853 0.929325 0.725893 -0.270446
C4    C     C_R   0.259820 0.499795 0.500185 0.543039
C5    C     C_3   0.387802 0.069634 0.726408 -0.271549
C6    C     C_R   0.599185 0.546745 0.073342 0.160183
C7    C     C_R   0.408253 0.442446 0.074647 -0.017326
C8    C     C_R   0.408227 0.442457 0.925768 -0.018674
C9    C     C_R   0.599479 0.546207 0.925983 0.158873
C10   C     C_3   0.649358 0.674655 0.918441 -0.277202
C11   C     C_3   0.647206 0.676051 0.077297 -0.281715
C12   C     C_3   0.878199 0.499858 0.501012 0.050991
C13   C     C_R   0.501754 0.737725 0.499905 0.545118
C14   C     C_R   0.740197 0.499988 0.500243 0.542473
C15   C     C_3   0.071478 0.498344 0.653588 -0.232248
C16   C     C_3   0.928830 0.498951 0.653594 -0.230118
C17   C     C_3   0.072263 0.617122 0.425867 -0.233136
C18   C     C_3   0.071537 0.383716 0.424430 -0.235165
C19   C     C_3   0.121850 0.499739 0.500951 0.052065
C20   C     C_3   0.928427 0.616950 0.425432 -0.235430
C21   C     C_3   0.927679 0.383594 0.424840 -0.233633
C22   C     C_R   0.493869 0.063264 0.625535 0.024754
C23   C     C_R   0.513007 0.129426 0.501632 0.005409
C24   C     C_R   0.548200 0.065458 0.380264 -0.167855
C25   C     C_R   0.548076 0.936599 0.380186 -0.167550
C26   C     C_R   0.512323 0.871043 0.501069 0.004234
Cu1   Cu    Cu3+1 0.499990 0.499980 0.640670 0.920272
Cu2   Cu    Cu3+1 0.500010 0.500020 0.359330 0.918195
H1    H     H_    0.106170 0.580671 0.711577 0.123621
H2    H     H_    0.416507 0.109364 0.828722 0.135057
H3    H     H_    0.332915 0.397556 0.130457 0.110094
H4    H     H_    0.105079 0.414519 0.710112 0.114108
H5    H     H_    0.332882 0.397560 0.870309 0.107151
H6    H     H_    0.745097 0.677966 0.874435 0.112288
H7    H     H_    0.582850 0.740904 0.870484 0.152670
H8    H     H_    0.741454 0.682220 0.125019 0.113015
H9    H     H_    0.577293 0.741358 0.119208 0.141564
H10   H     H_    0.894101 0.415898 0.710985 0.125918
H11   H     H_    0.895562 0.582052 0.710627 0.117386
H12   H     H_    0.893083 0.381639 0.314905 0.125817
H13   H     H_    0.893571 0.701507 0.478463 0.106427
H14   H     H_    0.105527 0.382322 0.314299 0.118220
H15   H     H_    0.106370 0.298442 0.476936 0.103383
H16   H     H_    0.892824 0.298496 0.478016 0.108152
H17   H     H_    0.107126 0.701416 0.479869 0.105024
H18   H     H_    0.106765 0.620773 0.315976 0.125645
H19   H     H_    0.894447 0.619752 0.315323 0.118819
H20   H     H_    0.571001 0.114409 0.284368 0.133092
H21   H     H_    0.571417 0.889192 0.284621 0.119997
H22   H     H_    0.301290 0.889095 0.678355 0.129600
H23   H     H_    0.414226 0.888423 0.828315 0.129983
H24   H     H_    0.302698 0.111225 0.679425 0.123957
N1    N     N_R   0.500800 0.500930 0.147930 -0.229987
N2    N     N_R   0.500800 0.500890 0.852020 -0.230131
O1    O     O_R   0.500000 0.319640 0.618810 -0.497837
O2    O     O_R   0.500010 0.319680 0.381230 -0.508280
O3    O     O_R   0.317690 0.499960 0.618790 -0.515711
O4    O     O_R   0.317700 0.500000 0.381210 -0.511948
O5    O     O_R   0.499990 0.680320 0.618770 -0.501069
O6    O     O_R   0.500000 0.680360 0.381190 -0.506023
O7    O     O_R   0.682300 0.500000 0.618790 -0.506755
O8    O     O_R   0.682310 0.500040 0.381210 -0.506263

loop_
_geom_bond_atom_site_label_1
_geom_bond_atom_site_label_2
_ccdc_geom_bond_type
C4    O3    A    
C2    C22   A    
C23   C24   A    
C5    H24   S    
C15   H1    S    
C10   H7    S    
C13   O5    A    
Cu2   O4    S    
C21   H16   S    
Cu1   O7    S    
C9    C10   S    
Cu2   N1    S    
C12   C20   S    
C6    C9    A    
C18   H14   S    
C2    C3    S    
C1    O1    A    
Cu1   N2    S    
C15   H4    S    
C10   H6    S    
C13   O6    A    
Cu1   O5    S    
C18   H15   S    
C24   C25   A    
C18   C21   S    
C15   C19   S    
C14   O7    A    
C21   H12   S    
C20   H13   S    
Cu2   O8    S    
C11   H8    S    
C17   C19   S    
C1    O2    A    
C12   C14   S    
C1    C23   S    
Cu1   O1    S    
C8    H5    S    
Cu2   O6    S    
Cu2   O2    S    
C17   H17   S    
C25   H21   S    
C13   C26   S    
C20   H19   S    
C7    H3    S    
C10   C11   S    
C7    N1    A    
C6    N1    A    
C4    O4    A    
C15   C16   S    
C24   H20   S    
C7    C8    A    
C17   C20   S    
C17   H18   S    
C2    C26   A    
C5    H2    S    
Cu1   O3    S    
C8    N2    A    
C6    C11   S    
C11   H9    S    
C3    H23   S    
C22   C23   A    
C18   C19   S    
C9    N2    A    
C16   H11   S    
C3    C5    S    
C25   C26   A    
C4    C19   S    
C12   C21   S    
C3    H22   S    
C5    C22   S    
C12   C16   S    
C16   H10   S    
Cu1   Cu2   S    
C14   O8    A    
