data_mof_unit_16833.cif
_audit_creation_date              2012-10-26T18:36:42-0400
_audit_creation_method            fapswitch 2.2
_symmetry_space_group_name_H-M    P1
_symmetry_Int_Tables_number       1
_space_group_crystal_system       triclinic
_cell_length_a                    12.715878
_cell_length_b                    13.882544
_cell_length_c                    17.324326
_cell_angle_alpha                 89.815194
_cell_angle_beta                  96.814702
_cell_angle_gamma                 81.26424
_cell_volume                      3000.70458889

loop_
_atom_site_label
_atom_site_type_symbol
_atom_type_description
_atom_site_fract_x
_atom_site_fract_y
_atom_site_fract_z
_atom_type_partial_charge
C1    C     C_R   0.517220 0.315526 0.500766 0.526960
C2    C     C_2   0.026430 0.539822 0.496795 0.245990
C3    C     C_1   0.144315 0.523866 0.490545 0.163941
C4    C     C_1   0.855859 0.476806 0.510245 0.176529
C5    C     C_R   0.513230 0.496548 0.650867 0.549792
C6    C     C_R   0.486882 0.500883 0.348958 0.550966
C7    C     C_R   0.518322 0.486135 0.735329 -0.052966
C8    C     C_R   0.481330 0.506078 0.263983 -0.059862
C9    C     C_R   0.424920 0.516681 0.769319 -0.179049
C10   C     C_R   0.572618 0.524289 0.231811 -0.178322
C11   C     C_R   0.422151 0.503123 0.848908 0.243593
C12   C     C_R   0.482711 0.684458 0.499019 0.552168
C13   C     C_R   0.571881 0.533692 0.151382 0.247316
C14   C     C_R   0.519317 0.471243 0.896479 0.005362
C15   C     C_R   0.474633 0.533446 0.103652 -0.007700
C16   C     C_R   0.614029 0.440028 0.862780 0.081115
C17   C     C_R   0.381393 0.518051 0.135143 0.088764
C18   C     C_R   0.611978 0.441557 0.781758 0.272701
C19   C     C_R   0.386050 0.498082 0.214807 0.266232
C20   C     C_2   0.521993 0.468136 0.981411 -0.048220
C21   C     C_2   0.472837 0.541957 0.019620 -0.011937
C22   C     C_3   0.305936 0.379394 0.267757 0.040611
C23   C     C_1   0.471393 0.788162 0.498773 -0.030644
C24   C     C_3   0.253355 0.320007 0.204119 -0.267878
C25   C     C_3   0.252900 0.215819 0.232380 -0.484038
C26   C     C_3   0.691805 0.313597 0.714470 0.036339
C27   C     C_3   0.731329 0.229034 0.772847 -0.270367
C28   C     C_3   0.729255 0.130722 0.734144 -0.493693
C29   C     C_3   0.757415 0.495623 0.148960 0.015388
C30   C     C_3   0.832854 0.558304 0.193162 -0.260135
C31   C     C_3   0.938298 0.496767 0.226846 -0.456731
C32   C     C_3   0.239677 0.490736 0.841712 0.027919
C33   C     C_3   0.154175 0.575470 0.809144 -0.260009
C34   C     C_1   0.528068 0.211819 0.500476 -0.046740
C35   C     C_3   0.062557 0.539300 0.758139 -0.478160
C36   C     C_3   0.730843 0.991735 0.529399 0.010894
C37   C     C_3   0.788228 0.040605 0.470854 -0.255064
C38   C     C_3   0.888827 0.075259 0.510716 -0.502371
C39   C     C_3   0.263982 0.997463 0.494248 0.006554
C40   C     C_3   0.229329 0.981860 0.407865 -0.263625
C41   C     C_3   0.132387 0.928532 0.397113 -0.483511
C42   C     C_3   0.027560 0.709615 0.505018 0.007684
C43   C     C_3   0.071114 0.718385 0.590860 -0.270594
C44   C     C_3   0.142867 0.797080 0.601338 -0.487480
C45   C     C_2   0.452820 0.980951 0.499699 0.289304
C46   C     C_3   0.998341 0.300123 0.551061 -0.003674
C47   C     C_3   0.026257 0.318618 0.637893 -0.276516
C48   C     C_3   0.010950 0.232686 0.688198 -0.471820
C49   C     C_2   0.543809 0.019338 0.499497 0.288703
C50   C     C_1   0.536591 0.124506 0.500016 -0.017213
C51   C     C_1   0.461693 0.875528 0.498891 -0.018268
C52   C     C_2   0.973990 0.462450 0.505693 0.245756
Cu1   Cu    Cu3+1 0.605120 0.493930 0.505020 1.000610
Cu2   Cu    Cu3+1 0.394880 0.506070 0.494980 0.985707
H1    H     H_    0.353026 0.550170 0.733524 0.139812
H2    H     H_    0.215146 0.174398 0.184831 0.158490
H3    H     H_    0.206342 0.215912 0.282749 0.154244
H4    H     H_    0.741427 0.305312 0.665589 0.159794
H5    H     H_    0.608141 0.309012 0.688555 0.109672
H6    H     H_    0.814638 0.233678 0.798682 0.199918
H7    H     H_    0.679032 0.233881 0.820130 0.179710
H8    H     H_    0.646973 0.124799 0.706814 0.151255
H9    H     H_    0.754994 0.071193 0.778418 0.163054
H10   H     H_    0.785093 0.121822 0.689218 0.129749
H11   H     H_    0.796772 0.463217 0.099323 0.193109
H12   H     H_    0.644439 0.532833 0.269585 0.147109
H13   H     H_    0.746609 0.432620 0.185804 0.111513
H14   H     H_    0.850098 0.614807 0.152866 0.195942
H15   H     H_    0.794159 0.596063 0.241231 0.169817
H16   H     H_    0.923294 0.441157 0.268783 0.151338
H17   H     H_    0.991450 0.544346 0.257851 0.181144
H18   H     H_    0.979669 0.459778 0.179579 0.169704
H19   H     H_    0.204555 0.448361 0.883881 0.180653
H20   H     H_    0.261079 0.438815 0.794977 0.110975
H21   H     H_    0.121775 0.616846 0.858178 0.199086
H22   H     H_    0.190279 0.626018 0.774069 0.159350
H23   H     H_    0.428467 0.606994 0.989460 0.184807
H24   H     H_    0.092643 0.503782 0.706017 0.133770
H25   H     H_    0.999670 0.601917 0.738574 0.162650
H26   H     H_    0.026450 0.486560 0.791089 0.180135
H27   H     H_    0.786288 0.927282 0.555715 0.160589
H28   H     H_    0.712938 0.040677 0.578477 0.112981
H29   H     H_    0.811017 0.987789 0.425371 0.175986
H30   H     H_    0.733909 0.104130 0.442127 0.168711
H31   H     H_    0.867474 0.128601 0.556030 0.138487
H32   H     H_    0.928232 0.111044 0.467088 0.143296
H33   H     H_    0.946058 0.012630 0.538059 0.135601
H34   H     H_    0.567520 0.405111 0.013841 0.139438
H35   H     H_    0.198160 0.046818 0.517218 0.151028
H36   H     H_    0.273990 0.928892 0.529439 0.123599
H37   H     H_    0.208789 0.053780 0.376974 0.169972
H38   H     H_    0.295886 0.938471 0.381154 0.168956
H39   H     H_    0.153093 0.854884 0.424915 0.147330
H40   H     H_    0.107584 0.920401 0.334135 0.160970
H41   H     H_    0.064191 0.970079 0.423195 0.141305
H42   H     H_    0.973785 0.778634 0.486564 0.158095
H43   H     H_    0.092025 0.703365 0.466357 0.130716
H44   H     H_    0.002877 0.736632 0.625512 0.168832
H45   H     H_    0.264132 0.376164 0.320310 0.180728
H46   H     H_    0.118434 0.648147 0.613713 0.158776
H47   H     H_    0.214127 0.777345 0.569972 0.159511
H48   H     H_    0.170636 0.803537 0.664064 0.150807
H49   H     H_    0.098176 0.868578 0.578858 0.131900
H50   H     H_    0.041838 0.227598 0.537889 0.162628
H51   H     H_    0.911662 0.295788 0.536458 0.124519
H52   H     H_    0.111111 0.330724 0.649130 0.176309
H53   H     H_    0.973875 0.384784 0.654661 0.163141
H54   H     H_    0.927053 0.218629 0.677349 0.141681
H55   H     H_    0.028795 0.249559 0.750554 0.162181
H56   H     H_    0.390722 0.344778 0.284816 0.105225
H57   H     H_    0.065796 0.166162 0.675097 0.147093
H58   H     H_    0.169427 0.355199 0.186378 0.194326
H59   H     H_    0.298152 0.317773 0.152698 0.181297
H60   H     H_    0.336153 0.178773 0.249835 0.155153
I1    I     I_    0.763608 0.394735 0.932240 -0.422998
I2    I     I_    0.231941 0.524269 0.063637 -0.379131
N1    N     N_1   0.763100 0.484810 0.512560 -0.201997
N2    N     N_1   0.236900 0.515190 0.487440 -0.206129
O1    O     O_R   0.601320 0.356300 0.504850 -0.517483
O2    O     O_3   0.703852 0.404336 0.749289 -0.524352
O3    O     O_3   0.660532 0.554995 0.118187 -0.545979
O4    O     O_3   0.327821 0.527972 0.882540 -0.558480
O5    O     O_3   0.639332 0.957654 0.491202 -0.586251
O6    O     O_3   0.356337 0.043796 0.504048 -0.591405
O7    O     O_3   0.965562 0.633016 0.494969 -0.595378
O8    O     O_3   0.033501 0.369409 0.503990 -0.602621
O9    O     O_R   0.398680 0.643700 0.495150 -0.507117
O10   O     O_R   0.423780 0.366550 0.496380 -0.481570
O11   O     O_R   0.576220 0.633450 0.503620 -0.466913
O12   O     O_R   0.599070 0.494270 0.618330 -0.454019
O13   O     O_R   0.400930 0.505730 0.381670 -0.457607
O14   O     O_R   0.421520 0.504520 0.609850 -0.518975
O15   O     O_R   0.578480 0.495480 0.390150 -0.512867
O16   O     O_3   0.294335 0.478828 0.244107 -0.527004

loop_
_geom_bond_atom_site_label_1
_geom_bond_atom_site_label_2
_ccdc_geom_bond_type
C24   H58   S    
C25   H2    S    
C12   O9    A    
C41   H41   S    
Cu1   Cu2   S    
C19   O16   S    
Cu2   O13   S    
C12   C23   S    
C26   C27   S    
C29   C30   S    
C4    C52   S    
C42   H42   S    
C36   C37   S    
C26   O2    S    
C6    O15   A    
C27   H6    S    
C32   H20   S    
C30   C31   S    
C11   C14   A    
Cu1   N1    S    
C45   C51   S    
C49   O5    S    
C46   H51   S    
C35   H26   S    
C15   C17   A    
C1    O1    A    
C27   H7    S    
C42   O7    S    
C17   C19   A    
C29   H13   S    
C26   H4    S    
C31   H16   S    
C41   H39   S    
C41   H40   S    
C36   H28   S    
C22   H56   S    
C29   O3    S    
C1    O10   A    
C37   H30   S    
C9    H1    S    
C26   H5    S    
C39   H36   S    
C47   H52   S    
C31   H17   S    
C48   H55   S    
C24   H59   S    
C25   H3    S    
C44   H49   S    
C33   H21   S    
C1    C34   S    
C10   H12   S    
C45   O6    S    
C34   C50   T    
C8    C19   A    
C12   O11   A    
C38   H31   S    
C14   C20   S    
C36   O5    S    
Cu1   O15   S    
C43   H46   S    
C42   H43   S    
C32   H19   S    
C5    C7    S    
C44   H48   S    
C6    C8    S    
C5    O14   A    
Cu2   O10   S    
C40   H38   S    
C39   O6    S    
C22   O16   S    
C43   C44   S    
C2    O7    S    
C37   C38   S    
C3    N2    T    
C32   O4    S    
C13   O3    S    
C33   H22   S    
C23   C51   T    
C47   C48   S    
C45   C49   D    
C36   H27   S    
C7    C18   A    
C24   C25   S    
C9    C11   A    
C2    C52   D    
C29   H11   S    
C28   H10   S    
C16   C18   A    
C40   C41   S    
C38   H32   S    
C47   H53   S    
Cu2   N2    S    
C43   H44   S    
C14   C16   A    
C4    N1    T    
C11   O4    S    
Cu1   O11   S    
C42   C43   S    
C16   I1    S    
C18   O2    S    
C39   C40   S    
C30   H15   S    
C7    C9    A    
C46   C47   S    
C31   H18   S    
C52   O8    S    
C22   H45   S    
C46   O8    S    
C6    O13   A    
C10   C13   A    
C44   H47   S    
Cu1   O1    S    
Cu2   O14   S    
Cu2   O9    S    
C35   H24   S    
C38   H33   S    
C32   C33   S    
C13   C15   A    
C2    C3    S    
C25   H60   S    
C48   H54   S    
C46   H50   S    
C20   H34   S    
C35   H25   S    
C33   C35   S    
C22   C24   S    
C40   H37   S    
C28   H9    S    
C5    O12   A    
C15   C21   S    
C48   H57   S    
C20   C21   D    
C8    C10   A    
C49   C50   S    
C21   H23   S    
C27   C28   S    
C37   H29   S    
Cu1   O12   S    
C39   H35   S    
C30   H14   S    
C17   I2    S    
C28   H8    S    
