data_mof_unit_36614.cif
_audit_creation_date              2013-03-05T15:44:59-0500
_audit_creation_method            fapswitch 2.2
_symmetry_space_group_name_H-M    P1
_symmetry_Int_Tables_number       1
_space_group_crystal_system       triclinic
_cell_length_a                    10.885989
_cell_length_b                    10.947985
_cell_length_c                    18.837896
_cell_angle_alpha                 90.145361
_cell_angle_beta                  89.214314
_cell_angle_gamma                 119.434899
_cell_volume                      1955.07841594

loop_
_atom_site_label
_atom_site_type_symbol
_atom_site_description
_atom_site_fract_x
_atom_site_fract_y
_atom_site_fract_z
_atom_type_partial_charge
O1    O     O_R   0.766500 0.250040 0.579790 -0.522478
O2    O     O_R   0.798570 0.516780 0.574780 -0.471890
C1    C     C_R   0.865217 0.637067 0.603747 0.602200
O3    O     O_R   0.984000 0.732950 0.581090 -0.545378
O4    O     O_R   0.218600 0.700890 0.574760 -0.503839
C2    C     C_R   0.219775 0.601195 0.611549 0.552821
O5    O     O_R   0.249390 0.515350 0.579940 -0.421135
O6    O     O_R   0.982790 0.280900 0.573700 -0.496995
C3    C     C_R   0.859076 0.224851 0.603096 0.537202
O7    O     O_R   0.766600 0.251130 0.419260 -0.444110
O8    O     O_R   0.798660 0.517790 0.425980 -0.462009
C4    C     C_R   0.870096 0.638754 0.395864 0.573743
O9    O     O_R   0.984100 0.734040 0.420570 -0.491939
O10   O     O_R   0.218690 0.701900 0.425960 -0.476676
C5    C     C_R   0.275168 0.635312 0.397564 0.560091
O11   O     O_R   0.249490 0.516440 0.419420 -0.515960
O12   O     O_R   0.982880 0.281910 0.424890 -0.518401
C6    C     C_R   0.882640 0.281941 0.387794 0.553916
Cr1   Cr    Cr6+3 0.791660 0.390250 0.499930 1.106714
Cr2   Cr    Cr6+3 0.098520 0.708290 0.500540 1.037056
Cr3   Cr    Cr6+3 0.109770 0.401430 0.499480 1.075709
O13   O     O_3   0.999980 0.499990 0.499980 -0.316222
C7    C     C_R   0.251385 0.732568 0.722840 -0.171557
H1    H     H_    0.200428 0.786297 0.699645 0.133665
C8    C     C_R   0.290574 0.756951 0.793704 -0.147820
H2    H     H_    0.270186 0.828630 0.824785 0.125198
C9    C     C_R   0.353830 0.685742 0.823790 -0.009153
C10   C     C_R   0.385569 0.598522 0.782649 -0.108078
H3    H     H_    0.443605 0.550314 0.803883 0.144363
C11   C     C_R   0.339943 0.566190 0.714754 0.248138
C12   C     C_R   0.272477 0.634665 0.683372 0.030922
C13   C     C_R   0.864415 0.175003 0.825029 -0.037671
C14   C     C_R   0.056189 0.109100 0.806775 0.196460
C15   C     C_R   0.114463 0.047314 0.762188 -0.087655
C16   C     C_R   0.078718 0.023329 0.691206 -0.108435
C17   C     C_R   0.988513 0.065631 0.662794 -0.017133
C18   C     C_R   0.925683 0.125619 0.706140 0.017053
C19   C     C_R   0.949343 0.137363 0.780663 0.026909
H4    H     H_    0.192249 0.022142 0.782173 0.091863
H5    H     H_    0.125467 0.976655 0.657406 0.133961
C20   C     C_R   0.743197 0.191702 0.721784 0.025175
C21   C     C_R   0.779392 0.223299 0.793137 -0.009715
C22   C     C_R   0.616531 0.185634 0.698953 -0.045536
C23   C     C_R   0.545540 0.235935 0.741561 -0.100771
C24   C     C_R   0.598805 0.292841 0.807472 -0.100577
C25   C     C_R   0.714750 0.286412 0.833386 -0.079837
C26   C     C_R   0.832994 0.165810 0.676234 0.013855
H6    H     H_    0.964392 0.046853 0.606920 0.156062
H7    H     H_    0.750444 0.325455 0.886350 0.114724
H8    H     H_    0.449667 0.231396 0.723173 0.171818
H9    H     H_    0.567971 0.137262 0.649364 0.163105
H10   H     H_    0.546988 0.336533 0.839771 0.117292
C27   C     C_R   0.759970 0.713774 0.701842 0.216682
C28   C     C_R   0.745964 0.722979 0.775324 -0.101882
H11   H     H_    0.691418 0.775832 0.796378 0.146948
C29   C     C_R   0.805801 0.668659 0.822549 -0.003682
C30   C     C_R   0.883491 0.607728 0.797812 -0.161251
H12   H     H_    0.935083 0.571605 0.834262 0.108428
C31   C     C_R   0.893326 0.592013 0.725448 -0.157048
H13   H     H_    0.951342 0.541145 0.706446 0.103780
C32   C     C_R   0.833657 0.645497 0.677493 0.046235
C33   C     C_R   0.244017 0.549658 0.277830 -0.125687
H14   H     H_    0.168541 0.448033 0.297954 0.136920
C34   C     C_R   0.264057 0.567354 0.205834 -0.132803
H15   H     H_    0.207883 0.477715 0.171416 0.126648
C35   C     C_R   0.359263 0.698719 0.178672 0.027301
C36   C     C_R   0.435576 0.812853 0.224415 -0.120230
H16   H     H_    0.514410 0.913839 0.203639 0.174847
C37   C     C_R   0.414715 0.794396 0.297713 -0.141891
H17   H     H_    0.471732 0.881631 0.333288 0.172339
C38   C     C_R   0.317896 0.661930 0.324014 0.019699
C39   C     C_R   0.759945 0.239800 0.271778 0.196997
C40   C     C_R   0.765398 0.226934 0.199380 -0.126594
H18   H     H_    0.685213 0.233214 0.168591 0.169069
C41   C     C_R   0.853563 0.181960 0.168604 -0.029928
C42   C     C_R   0.954575 0.172282 0.209648 -0.161840
H19   H     H_    0.022404 0.135466 0.186964 0.141614
C43   C     C_R   0.962851 0.203062 0.281708 -0.192799
H20   H     H_    0.042375 0.196297 0.312719 0.140568
C44   C     C_R   0.866835 0.238395 0.313550 -0.002981
C45   C     C_R   0.964383 0.707817 0.273004 0.138403
C46   C     C_R   0.941427 0.687163 0.200295 0.133134
C47   C     C_R   0.807511 0.649721 0.175196 0.015333
C48   C     C_R   0.691998 0.604715 0.222462 -0.151646
H21   H     H_    0.587833 0.576398 0.203522 0.156676
C49   C     C_R   0.711638 0.604069 0.295110 -0.124653
H22   H     H_    0.621803 0.566938 0.331113 0.167274
C50   C     C_R   0.847550 0.655388 0.321001 0.029070
O14   O     O_R   0.895110 0.806860 0.920430 -0.515564
O15   O     O_R   0.872260 0.046970 0.925000 -0.463913
C51   C     C_R   0.812373 0.107487 0.895875 0.550221
O16   O     O_R   0.691430 0.085060 0.918550 -0.517545
O17   O     O_R   0.451490 0.822460 0.925250 -0.491115
C52   C     C_R   0.397742 0.702151 0.896429 0.537443
O18   O     O_R   0.413330 0.603360 0.920440 -0.552038
O19   O     O_R   0.676110 0.626250 0.926750 -0.510930
C53   C     C_R   0.797336 0.692416 0.897115 0.528736
O20   O     O_R   0.895350 0.809870 0.080950 -0.519325
O21   O     O_R   0.872490 0.049760 0.073800 -0.499946
C54   C     C_R   0.809987 0.111134 0.100788 0.539584
O22   O     O_R   0.691680 0.088070 0.079070 -0.532415
O23   O     O_R   0.451720 0.825250 0.074050 -0.503853
C55   C     C_R   0.402071 0.707898 0.105422 0.535081
O24   O     O_R   0.413580 0.606370 0.080960 -0.526788
O25   O     O_R   0.676340 0.629040 0.075550 -0.509063
C56   C     C_R   0.795330 0.694142 0.104697 0.547208
Cr4   Cr    Cr6+3 0.874790 0.925890 0.000070 1.013759
Cr5   Cr    Cr6+3 0.574120 0.948670 0.999300 1.016488
Cr6   Cr    Cr6+3 0.551420 0.625320 0.000920 0.989634
O26   O     O_3   0.666780 0.833290 0.000090 -0.247512
N1    N     N_R   0.698812 0.772280 0.654301 0.080353
O27   O     O_R   0.700317 0.756519 0.585881 -0.319544
O28   O     O_R   0.635565 0.837930 0.679630 -0.372326
N2    N     N_R   0.631613 0.227559 0.301009 0.084122
O29   O     O_R   0.511189 0.127954 0.278741 -0.408291
O30   O     O_R   0.632452 0.329617 0.336236 -0.329612
N3    N     N_2   0.104862 0.788676 0.297281 -0.477810
H23   H     H_    0.176358 0.775262 0.267247 0.286647
C57   C     C_3   0.149778 0.936307 0.305160 -0.247130
H24   H     H_    0.252333 0.988834 0.332718 0.205569
H25   H     H_    0.072164 0.951622 0.337383 0.157824
H26   H     H_    0.162344 0.986053 0.252206 0.137224
N4    N     N_2   0.055950 0.714622 0.153052 -0.524166
H27   H     H_    0.107556 0.814355 0.131745 0.273591
C58   C     C_3   0.032356 0.603370 0.103809 -0.294419
H28   H     H_    0.131603 0.630397 0.074735 0.143759
H29   H     H_    0.952828 0.588900 0.063713 0.143204
H30   H     H_    0.996826 0.503287 0.133011 0.148499
N5    N     N_R   0.357763 0.458534 0.680683 0.093675
O31   O     O_R   0.249019 0.334888 0.673023 -0.368980
O32   O     O_R   0.483089 0.473882 0.671627 -0.338262
N6    N     N_2   0.114881 0.151606 0.875431 -0.489797
H31   H     H_    0.156848 0.093140 0.896232 0.239704
C59   C     C_3   0.207746 0.300132 0.883120 -0.277202
H32   H     H_    0.235881 0.324126 0.939838 0.153883
H33   H     H_    0.155559 0.360120 0.865688 0.154026
H34   H     H_    0.305553 0.331890 0.851466 0.145215

loop_
_geom_bond_atom_site_label_1
_geom_bond_atom_site_label_2
_geom_bond_distance
_ccdc_geom_bond_type
O17   C52   1.272640 A    
C45   N3    1.420554 S    
C40   C41   1.395499 A    
C20   C21   1.399936 A    
N1    O27   1.300904 A    
C41   C42   1.398725 A    
C59   H34   1.108996 S    
C45   C46   1.393521 A    
O15   C51   1.265374 A    
N4    H27   1.030559 S    
O4    Cr2   1.955739 S    
C24   C25   1.393108 A    
C25   H7    1.083690 S    
O8    Cr1   1.948969 S    
C33   H14   1.073200 S    
C10   H3    1.083254 S    
C48   C49   1.388598 A    
O15   Cr4   1.950444 S    
O2    C1    1.275348 A    
C37   H17   1.082596 S    
N3    C57   1.448252 S    
O17   Cr5   1.966090 S    
C21   C25   1.417063 A    
O4    C2    1.299819 A    
C49   C50   1.394259 A    
C30   C31   1.382840 A    
C13   C51   1.490335 S    
C5    O11   1.258303 A    
C39   N2    1.438095 S    
C29   C30   1.385468 A    
C15   C16   1.385800 A    
C40   H18   1.084501 S    
C37   C38   1.395170 A    
C54   O22   1.258607 A    
C33   C34   1.369756 A    
C27   C32   1.410707 A    
O16   Cr5   2.063596 S    
C47   C48   1.406898 A    
N6    H31   1.032265 S    
C58   H30   1.110614 S    
C7    H1    1.083193 S    
O23   Cr5   1.942326 S    
C13   C19   1.440348 A    
C18   C26   1.407943 A    
C27   N1    1.447048 S    
O22   Cr5   2.084821 S    
C57   H25   1.111349 S    
C35   C36   1.409941 A    
C31   H13   1.084259 S    
Cr3   O13   1.964692 S    
C20   C22   1.420145 A    
C52   O18   1.260210 A    
C29   C53   1.437840 S    
N2    O29   1.300525 A    
C17   H6    1.082812 S    
C1    C32   1.440108 S    
C14   C15   1.403467 A    
C28   C29   1.403092 A    
C31   C32   1.404786 A    
O1    Cr1   2.069225 S    
C4    C50   1.461819 S    
C36   H16   1.082791 S    
O10   Cr2   1.931082 S    
Cr1   O13   1.976962 S    
O1    C3    1.253129 A    
C42   H19   1.083171 S    
O18   Cr6   2.078816 S    
C51   O16   1.282004 A    
C49   H22   1.083547 S    
O6    C3    1.290719 A    
C59   H33   1.111228 S    
C24   H10   1.082355 S    
C8    H2    1.083133 S    
O5    Cr3   2.086475 S    
O12   Cr3   1.965195 S    
O20   Cr4   2.069647 S    
C15   H4    1.083216 S    
O14   C53   1.262898 A    
C36   C37   1.395236 A    
C16   C17   1.388480 A    
C34   C35   1.388705 A    
C22   C23   1.394185 A    
C18   C19   1.424827 A    
O21   C54   1.269268 A    
O10   C5    1.274799 A    
O7    Cr1   2.072388 S    
O8    C4    1.288377 A    
O19   C53   1.272871 A    
O14   Cr4   2.064497 S    
O12   C6    1.303985 A    
C20   C26   1.421381 A    
N1    O28   1.301513 A    
C48   H21   1.083630 S    
C2    O5    1.277286 A    
C14   N6    1.422970 S    
C6    C44   1.461349 S    
Cr2   O13   1.986747 S    
C3    C26   1.486619 S    
C58   H28   1.106870 S    
Cr4   O26   1.974573 S    
C1    O3    1.268521 A    
C46   N4    1.428016 S    
C55   O24   1.263418 A    
O21   Cr4   1.947220 S    
C23   C24   1.388067 A    
N5    O31   1.297421 A    
O19   Cr6   1.931121 S    
C57   H26   1.111860 S    
C23   H8    1.081918 S    
O25   Cr6   1.955788 S    
C28   H11   1.083864 S    
C17   C18   1.410434 A    
O9    Cr2   2.073432 S    
O2    Cr1   1.950205 S    
C43   H20   1.083192 S    
C35   C55   1.438179 S    
C42   C43   1.391249 A    
C39   C40   1.374194 A    
O6    Cr3   1.941751 S    
N2    O30   1.294312 A    
C57   H24   1.109027 S    
O11   Cr3   2.058588 S    
C27   C28   1.399353 A    
C59   H32   1.110356 S    
C8    C9    1.394189 A    
C11   N5    1.433946 S    
C5    C38   1.439478 S    
O25   C56   1.263896 A    
C14   C19   1.435536 A    
O20   C56   1.274571 A    
C47   C56   1.445447 S    
C34   H15   1.084068 S    
C10   C11   1.360197 A    
C16   H5    1.081917 S    
C39   C44   1.419934 A    
N3    H23   1.023361 S    
C22   H9    1.080942 S    
C30   H12   1.083318 S    
C11   C12   1.416387 A    
O7    C6    1.273779 A    
C41   C54   1.452028 S    
Cr5   O26   1.966253 S    
C33   C38   1.398825 A    
C2    C12   1.451268 S    
C43   C44   1.407465 A    
C7    C8    1.391825 A    
O23   C55   1.266735 A    
C45   C50   1.420608 A    
N4    C58   1.450273 S    
O3    Cr2   2.050947 S    
C4    O9    1.259349 A    
N6    C59   1.440202 S    
C46   C47   1.395489 A    
C9    C10   1.394620 A    
C58   H29   1.107989 S    
C13   C21   1.412460 A    
O24   Cr6   2.049781 S    
C9    C52   1.437182 S    
Cr6   O26   1.987635 S    
C7    C12   1.409785 A    
N5    O32   1.298876 A    
