data_mof_unit_48748.cif
_audit_creation_date              2012-12-10T17:50:39-0500
_audit_creation_method            fapswitch 2.2
_symmetry_space_group_name_H-M    P1
_symmetry_Int_Tables_number       1
_space_group_crystal_system       triclinic
_cell_length_a                    15.703981
_cell_length_b                    10.535452
_cell_length_c                    9.988797
_cell_angle_alpha                 87.961459
_cell_angle_beta                  90.825066
_cell_angle_gamma                 93.270824
_cell_volume                      1648.76878463

loop_
_atom_site_label
_atom_site_type_symbol
_atom_type_description
_atom_site_fract_x
_atom_site_fract_y
_atom_site_fract_z
_atom_type_partial_charge
C1    C     C_R   0.516827 0.264417 0.502781 0.896912
C2    C     C_R   0.523114 0.039419 0.872891 -0.292546
C3    C     C_R   0.465017 0.934862 0.861229 -0.007333
C4    C     C_R   0.338275 0.500490 0.499020 0.912324
C5    C     C_R   0.448303 0.886213 0.734127 -0.093763
C6    C     C_R   0.490088 0.941623 0.619925 0.032026
C7    C     C_R   0.530924 0.061899 0.630144 0.026180
C8    C     C_R   0.543576 0.134389 0.510249 -0.156765
C9    C     C_R   0.555077 0.072767 0.390504 0.164198
C10   C     C_R   0.532350 0.944667 0.385039 -0.193614
C11   C     C_R   0.498037 0.878630 0.497894 -0.151589
C12   C     C_3   0.083209 0.500895 0.495498 0.063314
C13   C     C_R   0.368524 0.370464 0.145328 -0.231419
C14   C     C_R   0.290546 0.339276 0.084090 -0.046508
C15   C     C_R   0.284743 0.349330 0.945215 -0.117777
C16   C     C_R   0.495422 0.741146 0.498378 0.901089
C17   C     C_R   0.359194 0.372953 0.870294 -0.018898
C18   C     C_R   0.433124 0.435535 0.930405 0.039022
C19   C     C_R   0.434592 0.436209 0.074270 0.182407
C20   C     C_R   0.562948 0.562485 0.070153 -0.046851
C21   C     C_R   0.561707 0.565505 0.927458 0.163399
C22   C     C_R   0.661788 0.500922 0.500769 0.928578
C23   C     C_3   0.973752 0.499435 0.624822 -0.192586
C24   C     C_3   0.966538 0.397915 0.435565 0.072289
C25   C     C_3   0.026094 0.503336 0.370146 -0.130706
C26   C     C_1   0.249401 0.500788 0.496847 -0.105471
C27   C     C_1   0.750646 0.501017 0.502219 -0.081476
C28   C     C_3   0.024774 0.395846 0.561655 0.187267
C29   C     C_2   0.056698 0.506456 0.228692 0.432678
C30   C     C_2   0.427035 0.872766 0.983178 0.444288
C31   C     C_2   0.635744 0.627163 0.138832 0.542096
C32   C     C_2   0.218231 0.286312 0.165904 0.459494
C33   C     C_2   0.365101 0.277845 0.767938 0.497120
C34   C     C_3   0.916803 0.501740 0.498378 0.064302
C35   C     C_2   0.949552 0.725377 0.360006 0.479810
C36   C     C_3   0.033683 0.605112 0.558302 -0.227994
C37   C     C_3   0.975418 0.606342 0.432448 -0.038566
C38   C     C_1   0.174104 0.500859 0.495678 0.044038
C39   C     C_1   0.825936 0.501256 0.501471 0.085142
C40   C     C_R   0.556588 0.103355 0.758666 0.207119
H1    H     H_    0.404262 0.803998 0.725217 0.188776
H2    H     H_    0.700073 0.601367 0.118285 0.076389
H3    H     H_    0.224724 0.278951 0.274240 0.067950
H4    H     H_    0.415308 0.213157 0.776768 0.067937
H5    H     H_    0.998184 0.792330 0.318947 0.107409
H6    H     H_    0.543620 0.896894 0.293549 0.220776
H7    H     H_    0.376761 0.340312 0.247604 0.200880
H8    H     H_    0.226786 0.312209 0.896605 0.226467
H9    H     H_    0.062801 0.689924 0.608048 0.183077
H10   H     H_    0.950490 0.497437 0.729353 0.187922
H11   H     H_    0.541823 0.072142 0.970621 0.186680
H12   H     H_    0.030115 0.437905 0.158886 0.133967
H13   H     H_    0.441503 0.911921 0.080512 0.065201
I1    I     I_    0.652746 0.692373 0.826517 -0.241752
I2    I     I_    0.909928 0.234911 0.339171 -0.202625
I3    I     I_    0.066947 0.230883 0.668188 -0.210937
I4    I     I_    0.618115 0.163947 0.223214 -0.302025
I5    I     I_    0.658151 0.241253 0.789720 -0.271481
N1    N     N_R   0.499210 0.498800 0.142780 -0.123640
N2    N     N_R   0.499180 0.498720 0.857170 -0.125919
O1    O     O_R   0.500000 0.316780 0.614690 -0.637832
O2    O     O_2   0.379569 0.777173 0.976798 -0.550771
O3    O     O_2   0.625445 0.714322 0.212621 -0.538865
O4    O     O_2   0.150679 0.250461 0.113798 -0.545721
O5    O     O_2   0.308818 0.260386 0.683775 -0.582160
O6    O     O_2   0.874452 0.747648 0.346693 -0.526058
O7    O     O_R   0.499990 0.316750 0.385360 -0.621500
O8    O     O_R   0.376780 0.500000 0.614650 -0.597971
O9    O     O_R   0.376770 0.499980 0.385310 -0.637420
O10   O     O_R   0.500010 0.683250 0.614640 -0.607550
O11   O     O_R   0.500000 0.683220 0.385310 -0.564118
O12   O     O_R   0.623230 0.500020 0.614690 -0.584260
O13   O     O_R   0.623220 0.500000 0.385350 -0.602606
O14   O     O_2   0.110396 0.587559 0.190791 -0.543990
Zn1   Zn    Zn3+2 0.500010 0.500020 0.653130 1.005037
Zn2   Zn    Zn3+2 0.499990 0.499980 0.346870 1.009504

loop_
_geom_bond_atom_site_label_1
_geom_bond_atom_site_label_2
_ccdc_geom_bond_type
C31   H2    S    
C34   C37   S    
C28   I3    S    
C33   O5    D    
C7    C8    A    
O1    Zn1   S    
C24   I2    S    
C12   C28   S    
C36   C37   S    
C35   C37   S    
O11   Zn2   S    
C1    C8    S    
O9    Zn2   S    
C18   C19   A    
C25   C37   S    
C27   C39   T    
C8    C9    A    
C10   H6    S    
C7    C40   A    
C12   C36   S    
C9    C10   A    
C21   I1    S    
C13   C14   A    
C16   O11   A    
C17   C33   S    
C15   H8    S    
O12   Zn1   S    
C22   O12   A    
C4    O9    A    
C25   C29   S    
C30   H13   S    
C40   I5    S    
C13   C19   A    
C34   C39   S    
C31   O3    D    
C16   O10   A    
C24   C25   S    
C32   O4    D    
C21   N2    A    
C2    H11   S    
C6    C11   A    
C13   H7    S    
C26   C38   T    
C23   H10   S    
C29   O14   D    
C35   O6    D    
C19   N1    A    
C24   C34   S    
O8    Zn1   S    
C3    C30   S    
C11   C16   S    
C23   C34   S    
C17   C18   A    
C23   C28   S    
C20   N1    A    
C18   N2    A    
C22   C27   S    
C30   O2    D    
O13   Zn2   S    
C35   H5    S    
C4    O8    A    
C15   C17   A    
C5    H1    S    
C33   H4    S    
C24   C28   S    
C14   C32   S    
C3    C5    A    
C1    O1    A    
C4    C26   S    
C6    C7    A    
N2    Zn1   S    
C12   C25   S    
C2    C3    A    
C5    C6    A    
C1    O7    A    
C32   H3    S    
C9    I4    S    
C12   C38   S    
C10   C11   A    
C2    C40   A    
C20   C21   A    
C23   C36   S    
O10   Zn1   S    
C14   C15   A    
O7    Zn2   S    
C22   O13   A    
N1    Zn2   S    
C20   C31   S    
C36   H9    S    
C29   H12   S    
