data_mof_unit_8107.cif
_audit_creation_date              2012-12-10T18:59:11-0500
_audit_creation_method            fapswitch 2.2
_symmetry_space_group_name_H-M    P1
_symmetry_Int_Tables_number       1
_space_group_crystal_system       triclinic
_cell_length_a                    9.827778
_cell_length_b                    10.704992
_cell_length_c                    16.629485
_cell_angle_alpha                 89.366089
_cell_angle_beta                  93.753102
_cell_angle_gamma                 90.046434
_cell_volume                      1745.66741425

loop_
_atom_site_label
_atom_site_type_symbol
_atom_type_description
_atom_site_fract_x
_atom_site_fract_y
_atom_site_fract_z
_atom_type_partial_charge
C1    C     C_R   0.499929 0.259838 0.500323 0.873847
C2    C     C_R   0.075757 0.403728 0.534704 -0.054754
C3    C     C_R   0.516805 0.502838 0.653638 0.895330
C4    C     C_R   0.483415 0.497495 0.345873 0.909050
C5    C     C_R   0.525257 0.518743 0.740352 -0.199558
C6    C     C_R   0.474396 0.476639 0.258798 -0.214305
C7    C     C_R   0.427060 0.591418 0.777472 0.462285
C8    C     C_R   0.584143 0.422588 0.219837 0.459435
C9    C     C_R   0.425223 0.589025 0.861782 0.105857
C10   C     C_R   0.563292 0.385987 0.139278 0.113623
C11   C     C_R   0.528325 0.523012 0.906981 0.245174
C12   C     C_R   0.500063 0.740146 0.499777 0.835790
C13   C     C_R   0.443760 0.424768 0.094801 0.244099
C14   C     C_R   0.632961 0.463283 0.869754 -0.228046
C15   C     C_R   0.336619 0.478553 0.132950 -0.228511
C16   C     C_R   0.630797 0.459837 0.786596 -0.290642
C17   C     C_R   0.350502 0.501381 0.214924 -0.283823
C18   C     C_R   0.377947 0.064179 0.481292 -0.203927
C19   C     C_R   0.621745 0.935722 0.520171 -0.204166
C20   C     C_3   0.789476 0.510448 0.261863 0.141107
C21   C     C_3   0.876212 0.520567 0.188841 -0.397923
C22   C     C_3   0.972367 0.632471 0.196383 -0.971443
C23   C     C_R   0.378043 0.936258 0.481068 -0.210412
C24   C     C_3   0.383283 0.765827 0.697658 0.122804
C25   C     C_3   0.378688 0.876873 0.754749 -0.400810
C26   C     C_3   0.427486 0.996582 0.714993 -0.930119
C27   C     C_3   0.667457 0.307923 0.099520 -0.876049
C28   C     C_3   0.314884 0.655076 0.904117 -0.865267
C29   C     C_R   0.621645 0.063679 0.520432 -0.190395
C30   C     C_R   0.500023 0.872533 0.500259 -0.011449
C31   C     C_R   0.499827 0.127414 0.500749 -0.003244
C32   C     C_R   0.068229 0.596583 0.465599 -0.075343
C33   C     C_R   0.931812 0.403618 0.534628 -0.056547
C34   C     C_R   0.924377 0.596924 0.466078 -0.111468
H1    H     H_    0.712609 0.414281 0.905412 0.159496
H2    H     H_    0.880350 0.326652 0.562421 0.117631
H3    H     H_    0.866889 0.674040 0.438466 0.126213
H4    H     H_    0.133308 0.326850 0.562567 0.124609
H5    H     H_    0.859687 0.505063 0.316712 0.179277
H6    H     H_    0.728151 0.597485 0.266775 0.117629
H7    H     H_    0.937125 0.433861 0.183989 0.237833
H8    H     H_    0.809035 0.533130 0.133094 0.230803
H9    H     H_    0.912923 0.720627 0.197088 0.268578
H10   H     H_    0.037230 0.635587 0.144193 0.267849
H11   H     H_    0.039113 0.625173 0.252753 0.257134
H12   H     H_    0.244672 0.507563 0.098322 0.159397
H13   H     H_    0.319666 0.788911 0.641832 0.183196
H14   H     H_    0.489370 0.752521 0.679306 0.100861
H15   H     H_    0.272492 0.890715 0.772087 0.232668
H16   H     H_    0.445119 0.857620 0.810125 0.225226
H17   H     H_    0.533733 0.985246 0.697202 0.268766
H18   H     H_    0.424886 0.074928 0.758068 0.266325
H19   H     H_    0.360038 0.020271 0.660789 0.271292
H20   H     H_    0.616020 0.226431 0.070055 0.239166
H21   H     H_    0.717652 0.363486 0.053263 0.230541
H22   H     H_    0.747616 0.270886 0.143453 0.268727
H23   H     H_    0.708503 0.407149 0.758412 0.184449
H24   H     H_    0.361737 0.725227 0.946120 0.230023
H25   H     H_    0.240543 0.703910 0.861776 0.265909
H26   H     H_    0.256758 0.586473 0.938786 0.245224
H27   H     H_    0.265933 0.542660 0.243572 0.191222
H28   H     H_    0.283300 0.113206 0.465658 0.157019
H29   H     H_    0.716282 0.886626 0.535986 0.155600
H30   H     H_    0.283442 0.887630 0.465323 0.150356
H31   H     H_    0.716141 0.112336 0.536401 0.147869
H32   H     H_    0.119656 0.673473 0.437702 0.121508
N1    N     N_2   0.525893 0.512648 0.990653 -0.178430
N2    N     N_2   0.441810 0.432897 0.010625 -0.167792
N3    N     N_R   0.857210 0.499970 0.500020 -0.075397
N4    N     N_R   0.142790 0.500030 0.499980 -0.073510
O1    O     O_R   0.614620 0.316750 0.500010 -0.621436
O2    O     O_3   0.326964 0.657143 0.732005 -0.635656
O3    O     O_R   0.385380 0.683250 0.499990 -0.638319
O4    O     O_R   0.385290 0.316780 0.500000 -0.634967
O5    O     O_R   0.614710 0.683220 0.500000 -0.630756
O6    O     O_R   0.627460 0.498830 0.616130 -0.620709
O7    O     O_R   0.372540 0.501170 0.383870 -0.617016
O8    O     O_R   0.398130 0.498850 0.616130 -0.572417
O9    O     O_R   0.601870 0.501150 0.383870 -0.592186
O10   O     O_3   0.709530 0.399832 0.260435 -0.634869
Zn1   Zn    Zn3+2 0.653130 0.499980 0.500000 0.953448
Zn2   Zn    Zn3+2 0.346870 0.500020 0.500000 0.957417

loop_
_geom_bond_atom_site_label_1
_geom_bond_atom_site_label_2
_ccdc_geom_bond_type
C10   C27   S    
C34   H3    S    
C27   H20   S    
C1    O1    A    
C1    O4    A    
C32   H32   S    
C20   H6    S    
C11   C14   A    
C27   H21   S    
C1    C31   S    
C33   H2    S    
C15   C17   A    
O8    Zn2   S    
C25   H16   S    
C5    C16   A    
C17   H27   S    
C22   H10   S    
C19   H29   S    
C33   N3    A    
C12   O3    A    
O4    Zn2   S    
C11   N1    S    
C28   H26   S    
C20   O10   S    
N1    N2    D    
C24   H14   S    
C23   C30   A    
C24   C25   S    
C4    O9    A    
C4    C6    S    
C7    O2    S    
C5    C7    A    
C20   H5    S    
C27   H22   S    
O5    Zn1   S    
C32   N4    A    
C25   C26   S    
C18   C23   A    
C32   C34   A    
C26   H18   S    
C2    H4    S    
C22   H9    S    
C3    O6    A    
C9    C11   A    
C34   N3    A    
C29   H31   S    
C2    C33   A    
C23   H30   S    
C13   C15   A    
C21   H7    S    
C19   C29   A    
C26   H19   S    
O3    Zn2   S    
C14   H1    S    
C24   O2    S    
O9    Zn1   S    
C28   H25   S    
C7    C9    A    
C6    C17   A    
C12   C30   S    
C24   H13   S    
C18   H28   S    
C3    C5    S    
C10   C13   A    
O6    Zn1   S    
C6    C8    A    
C28   H24   S    
C21   C22   S    
C4    O7    A    
C29   C31   A    
C26   H17   S    
C19   C30   A    
O7    Zn2   S    
C14   C16   A    
C16   H23   S    
N4    Zn2   S    
C25   H15   S    
N3    Zn1   S    
C21   H8    S    
C22   H11   S    
C20   C21   S    
C8    C10   A    
C12   O5    A    
C8    O10   S    
C18   C31   A    
C15   H12   S    
C2    N4    A    
C3    O8    A    
C9    C28   S    
O1    Zn1   S    
C13   N2    S    
