data_mof_unit_30301.cif
_audit_creation_date              2012-10-26T21:20:07-0400
_audit_creation_method            fapswitch 2.2
_symmetry_space_group_name_H-M    P1
_symmetry_Int_Tables_number       1
_space_group_crystal_system       triclinic
_cell_length_a                    12.928302
_cell_length_b                    10.781777
_cell_length_c                    9.594916
_cell_angle_alpha                 90.528755
_cell_angle_beta                  96.108109
_cell_angle_gamma                 91.204154
_cell_volume                      1329.4611439

loop_
_atom_site_label
_atom_site_type_symbol
_atom_type_description
_atom_site_fract_x
_atom_site_fract_y
_atom_site_fract_z
_atom_type_partial_charge
C1    C     C_R   0.499860 0.262867 0.499285 0.573963
C2    C     C_R   0.698971 0.487661 0.525914 0.579625
C3    C     C_R   0.812306 0.468147 0.540218 0.004934
C4    C     C_R   0.187693 0.531854 0.459792 0.004944
C5    C     C_R   0.020896 0.548426 0.318392 0.090566
C6    C     C_R   0.979102 0.451557 0.681616 0.090577
C7    C     C_R   0.130066 0.554113 0.328506 0.002984
C8    C     C_R   0.869932 0.445891 0.671506 0.002972
C9    C     C_R   0.134851 0.527536 0.580682 0.075307
C10   C     C_R   0.865148 0.472445 0.419328 0.075336
C11   C     C_R   0.028781 0.495544 0.566807 0.024885
C12   C     C_R   0.500142 0.737132 0.500714 0.574048
C13   C     C_R   0.971219 0.504434 0.433201 0.024891
C14   C     C_R   0.595427 0.067724 0.500898 -0.032361
C15   C     C_R   0.404595 0.932276 0.499113 -0.032344
C16   C     C_R   0.595806 0.937370 0.502111 0.042359
C17   C     C_R   0.404212 0.062625 0.497857 0.042395
C18   C     C_2   0.819593 0.406031 0.796161 0.293734
C19   C     C_2   0.180405 0.594006 0.203864 0.293774
C20   C     C_2   0.694454 0.142469 0.509343 0.281263
C21   C     C_2   0.305577 0.857532 0.490758 0.280977
C22   C     C_2   0.695139 0.870994 0.494100 0.328633
C23   C     C_R   0.500431 0.871297 0.503008 0.017563
C24   C     C_2   0.304874 0.128992 0.505830 0.328618
C25   C     C_2   0.372161 0.326003 0.129409 0.341215
C26   C     C_2   0.627810 0.674029 0.870576 0.340995
C27   C     C_2   0.375450 0.321707 0.832126 0.310426
C28   C     C_2   0.624552 0.678284 0.167880 0.310558
C29   C     C_R   0.499587 0.128702 0.496990 0.017535
C30   C     C_R   0.440690 0.415002 0.065194 0.110416
C31   C     C_R   0.559304 0.585006 0.934803 0.110417
C32   C     C_R   0.441033 0.414563 0.916525 0.129833
C33   C     C_R   0.558966 0.585439 0.083474 0.129845
C34   C     C_R   0.301030 0.512345 0.474088 0.579603
Cu1   Cu    Cu3+1 0.500000 0.500020 0.640660 1.060879
Cu2   Cu    Cu3+1 0.500000 0.499980 0.359340 1.061020
H1    H     H_    0.847793 0.443147 0.898945 0.148665
H2    H     H_    0.692664 0.650636 0.234485 0.142035
H3    H     H_    0.152220 0.556892 0.101074 0.148637
H4    H     H_    0.695710 0.232538 0.461064 0.127591
H5    H     H_    0.304334 0.767504 0.539242 0.127505
H6    H     H_    0.752734 0.907509 0.430000 0.169530
H7    H     H_    0.247288 0.092528 0.570040 0.169370
H8    H     H_    0.301364 0.356889 0.168248 0.130002
H9    H     H_    0.698530 0.643124 0.831507 0.130179
H10   H     H_    0.307353 0.349353 0.765480 0.142033
I1    I     I_    0.801472 0.369381 0.235332 -0.262419
I2    I     I_    0.198528 0.630563 0.764710 -0.262573
I3    I     I_    0.935317 0.642767 0.147504 -0.280264
I4    I     I_    0.064672 0.357185 0.852490 -0.280245
N1    N     N_R   0.500030 0.500030 0.852080 -0.281469
N2    N     N_R   0.499970 0.499970 0.147920 -0.281479
O1    O     O_R   0.499990 0.319660 0.618740 -0.467370
O2    O     O_2   0.249762 0.673233 0.213711 -0.419186
O3    O     O_2   0.774233 0.106876 0.575006 -0.426828
O4    O     O_2   0.225767 0.893128 0.424882 -0.426434
O5    O     O_2   0.714727 0.777195 0.561132 -0.495819
O6    O     O_2   0.285273 0.222732 0.438646 -0.495578
O7    O     O_2   0.392855 0.216094 0.134832 -0.391874
O8    O     O_2   0.607177 0.783970 0.865359 -0.391954
O9    O     O_2   0.395967 0.211816 0.839787 -0.435680
O10   O     O_2   0.604007 0.788173 0.160289 -0.435592
O11   O     O_R   0.500010 0.680340 0.381260 -0.467272
O12   O     O_R   0.499990 0.319630 0.381170 -0.477980
O13   O     O_R   0.500010 0.680370 0.618830 -0.478148
O14   O     O_R   0.349000 0.499990 0.599490 -0.523282
O15   O     O_R   0.651000 0.500010 0.400510 -0.523240
O16   O     O_R   0.348990 0.499960 0.361920 -0.491958
O17   O     O_R   0.651010 0.500040 0.638080 -0.492016
O18   O     O_2   0.750222 0.326822 0.786338 -0.419268

loop_
_geom_bond_atom_site_label_1
_geom_bond_atom_site_label_2
_ccdc_geom_bond_type
C18   O18   D    
C21   O4    D    
C16   C22   S    
Cu2   O16   S    
C32   N1    A    
Cu1   O1    S    
C2    O17   A    
C17   C29   A    
C12   O13   A    
C5    C13   A    
Cu1   Cu2   S    
Cu2   N2    S    
C28   H2    S    
C34   O14   A    
C22   O5    D    
C1    C29   S    
C2    C3    S    
C27   C32   S    
Cu2   O15   S    
C5    C7    A    
C26   C31   S    
C3    C10   A    
C6    I4    S    
C33   N2    A    
C30   C32   A    
C11   C13   A    
C12   C23   S    
C5    I3    S    
C22   H6    S    
C19   H3    S    
C24   H7    S    
C4    C7    A    
C21   H5    S    
Cu1   O17   S    
C19   O2    D    
C15   C23   A    
C27   O9    D    
C18   H1    S    
C28   C33   S    
C3    C8    A    
C16   C23   A    
C7    C19   S    
C9    C11   A    
C4    C34   S    
Cu1   N1    S    
C20   H4    S    
C14   C16   A    
C10   I1    S    
C17   C24   S    
C20   O3    D    
C31   C33   A    
Cu1   O13   S    
C14   C29   A    
Cu2   O11   S    
C1    O12   A    
C14   C20   S    
C15   C21   S    
C25   H8    S    
C27   H10   S    
C9    I2    S    
C24   O6    D    
C2    O15   A    
C34   O16   A    
C6    C11   A    
C15   C17   A    
C12   O11   A    
C1    O1    A    
C25   C30   S    
C6    C8    A    
C25   O7    D    
Cu1   O14   S    
C4    C9    A    
Cu2   O12   S    
C26   O8    D    
C8    C18   S    
C31   N1    A    
C30   N2    A    
C26   H9    S    
C10   C13   A    
C28   O10   D    
