data_mof_unit_61338.cif
_audit_creation_date              2013-03-05T16:30:12-0500
_audit_creation_method            fapswitch 2.2
_symmetry_space_group_name_H-M    P1
_symmetry_Int_Tables_number       1
_space_group_crystal_system       triclinic
_cell_length_a                    18.351593
_cell_length_b                    18.319384
_cell_length_c                    36.293368
_cell_angle_alpha                 89.99986
_cell_angle_beta                  90.076223
_cell_angle_gamma                 89.993298
_cell_volume                      12201.4521223

loop_
_atom_site_label
_atom_site_type_symbol
_atom_site_description
_atom_site_fract_x
_atom_site_fract_y
_atom_site_fract_z
_atom_type_partial_charge
Zn1   Zn    Zn3+2 0.500000 0.913220 0.030510 0.944900
Zn2   Zn    Zn3+2 0.086780 0.500000 0.030510 0.952120
Zn3   Zn    Zn3+2 0.500000 0.086780 0.030510 0.944905
Zn4   Zn    Zn3+2 0.913220 0.500000 0.030510 0.952039
Zn5   Zn    Zn3+2 1.000000 0.413220 0.530510 0.948463
Zn6   Zn    Zn3+2 0.586780 0.000000 0.530510 0.943244
Zn7   Zn    Zn3+2 0.000000 0.586780 0.530510 0.948465
Zn8   Zn    Zn3+2 0.413220 0.000000 0.530510 0.953889
Zn9   Zn    Zn3+2 0.586770 1.000000 0.969480 1.061010
Zn10  Zn    Zn3+2 0.000000 0.586770 0.969480 1.059435
Zn11  Zn    Zn3+2 0.413230 1.000000 0.969480 1.061054
Zn12  Zn    Zn3+2 0.000000 0.413230 0.969480 1.059440
Zn13  Zn    Zn3+2 0.086770 0.500000 0.469480 1.060761
Zn14  Zn    Zn3+2 0.500000 0.086770 0.469480 1.060190
Zn15  Zn    Zn3+2 0.913230 0.500000 0.469480 1.060150
Zn16  Zn    Zn3+2 0.500000 0.913230 0.469480 1.060187
O1    O     O_3   0.500000 0.000000 0.000000 -0.512384
O2    O     O_3   0.000000 0.500000 0.000000 -0.516230
O3    O     O_3   0.000000 0.500000 0.500000 -0.514355
O4    O     O_3   0.500000 0.000000 0.500000 -0.514335
O5    O     O_R   0.439300 1.000000 0.918540 -0.601568
O6    O     O_R   0.000000 0.439300 0.918540 -0.601673
O7    O     O_R   0.560700 1.000000 0.918540 -0.601001
O8    O     O_R   0.000000 0.560700 0.918540 -0.601670
O9    O     O_R   0.939300 0.500000 0.418540 -0.600923
O10   O     O_R   0.500000 0.939300 0.418540 -0.601702
O11   O     O_R   0.060700 0.500000 0.418540 -0.601033
O12   O     O_R   0.500000 0.060700 0.418540 -0.601699
O13   O     O_R   0.500000 0.939270 0.081460 -0.639592
O14   O     O_R   0.060730 0.500000 0.081460 -0.638977
O15   O     O_R   0.500000 0.060730 0.081460 -0.639588
O16   O     O_R   0.939270 0.500000 0.081460 -0.638598
O17   O     O_R   1.000000 0.439270 0.581460 -0.639288
O18   O     O_R   0.560730 0.000000 0.581460 -0.639834
O19   O     O_R   1.000000 0.560730 0.581460 -0.639313
O20   O     O_R   0.439270 0.000000 0.581460 -0.638301
O21   O     O_R   0.646180 0.914510 0.978640 -0.590822
O22   O     O_R   0.085490 0.646180 0.978640 -0.591236
O23   O     O_R   0.353820 0.085490 0.978640 -0.591071
O24   O     O_R   0.914510 0.353820 0.978640 -0.591394
O25   O     O_R   0.646180 0.085490 0.978640 -0.590418
O26   O     O_R   0.085490 0.353820 0.978640 -0.591590
O27   O     O_R   0.353820 0.914510 0.978640 -0.590673
O28   O     O_R   0.914510 0.646180 0.978640 -0.591757
O29   O     O_R   0.146180 0.414510 0.478640 -0.590694
O30   O     O_R   0.585490 0.146180 0.478640 -0.590696
O31   O     O_R   0.853820 0.585490 0.478640 -0.590857
O32   O     O_R   0.414510 0.853820 0.478640 -0.591497
O33   O     O_R   0.146180 0.585490 0.478640 -0.590919
O34   O     O_R   0.585490 0.853820 0.478640 -0.591180
O35   O     O_R   0.853820 0.414510 0.478640 -0.591068
O36   O     O_R   0.414510 0.146180 0.478640 -0.591964
O37   O     O_R   0.414550 0.146120 0.021350 -0.653368
O38   O     O_R   0.853880 0.414550 0.021350 -0.646049
O39   O     O_R   0.585450 0.853880 0.021350 -0.653471
O40   O     O_R   0.146120 0.585450 0.021350 -0.646352
O41   O     O_R   0.414550 0.853880 0.021350 -0.653379
O42   O     O_R   0.853880 0.585450 0.021350 -0.645884
O43   O     O_R   0.585450 0.146120 0.021350 -0.653480
O44   O     O_R   0.146120 0.414550 0.021350 -0.646189
O45   O     O_R   0.914550 0.646120 0.521350 -0.647976
O46   O     O_R   0.353880 0.914550 0.521350 -0.645869
O47   O     O_R   0.085450 0.353880 0.521350 -0.652187
O48   O     O_R   0.646120 0.085450 0.521350 -0.653243
O49   O     O_R   0.914550 0.353880 0.521350 -0.647890
O50   O     O_R   0.353880 0.085450 0.521350 -0.645966
O51   O     O_R   0.085450 0.646120 0.521350 -0.652130
O52   O     O_R   0.646120 0.914550 0.521350 -0.653248
C1    C     C_R   0.499958 0.000000 0.901152 0.818568
C2    C     C_R   0.000003 0.500000 0.901135 0.821790
C3    C     C_R   0.999957 0.500000 0.401153 0.819066
C4    C     C_R   0.500001 1.000000 0.401135 0.821303
C5    C     C_R   0.499998 1.000000 0.098872 0.817857
C6    C     C_R   0.000042 0.500000 0.098854 0.807298
C7    C     C_R   0.999994 0.500000 0.598872 0.813326
C8    C     C_R   0.500043 0.000001 0.598854 0.811928
C9    C     C_R   0.640578 0.860372 0.000444 0.834567
C10   C     C_R   0.139170 0.640944 0.000562 0.824805
C11   C     C_R   0.359388 0.139613 0.000435 0.835246
C12   C     C_R   0.860870 0.359044 0.000554 0.824155
C13   C     C_R   0.640604 0.139604 0.000467 0.834540
C14   C     C_R   0.139199 0.359081 0.000536 0.824681
C15   C     C_R   0.359362 0.860411 0.000458 0.835213
C16   C     C_R   0.860843 0.640932 0.000529 0.824026
C17   C     C_R   0.140593 0.360384 0.500457 0.834315
C18   C     C_R   0.639594 0.140639 0.500428 0.835338
C19   C     C_R   0.859089 0.639202 0.500560 0.825286
C20   C     C_R   0.360834 0.859072 0.500526 0.823948
C21   C     C_R   0.140583 0.639619 0.500450 0.834059
C22   C     C_R   0.639565 0.859343 0.500449 0.835477
C23   C     C_R   0.859102 0.360791 0.500551 0.825066
C24   C     C_R   0.360868 0.140949 0.500550 0.824053
C25   C     C_R   0.267022 0.785523 0.970220 -0.012749
C26   C     C_R   0.214197 0.267145 0.970246 -0.018961
C27   C     C_R   0.732831 0.214450 0.970232 -0.012626
C28   C     C_R   0.785722 0.732943 0.970247 -0.019059
C29   C     C_R   0.267057 0.214494 0.970159 -0.014008
C30   C     C_R   0.214171 0.732880 0.970309 -0.017993
C31   C     C_R   0.732805 0.785541 0.970171 -0.013872
C32   C     C_R   0.785740 0.267039 0.970309 -0.018073
C33   C     C_R   0.767331 0.285561 0.470248 -0.018149
C34   C     C_R   0.714394 0.767062 0.470202 -0.013432
C35   C     C_R   0.232595 0.714647 0.470162 -0.012901
C36   C     C_R   0.285742 0.232935 0.470288 -0.018676
C37   C     C_R   0.767090 0.714254 0.470295 -0.018747
C38   C     C_R   0.714632 0.232757 0.470148 -0.013336
C39   C     C_R   0.232829 0.285531 0.470209 -0.013536
C40   C     C_R   0.285508 0.767242 0.470234 -0.018588
C41   C     C_R   0.300036 0.808164 0.002778 -0.121731
C42   C     C_R   0.190355 0.298936 0.002896 -0.109853
C43   C     C_R   0.699902 0.191913 0.002789 -0.121652
C44   C     C_R   0.809732 0.701116 0.002887 -0.109525
C45   C     C_R   0.300072 0.191868 0.002729 -0.121543
C46   C     C_R   0.190322 0.701088 0.002948 -0.109904
C47   C     C_R   0.699866 0.808054 0.002741 -0.121472
C48   C     C_R   0.809764 0.298861 0.002938 -0.109585
C49   C     C_R   0.799038 0.309597 0.502911 -0.109738
C50   C     C_R   0.691782 0.799967 0.502762 -0.121680
C51   C     C_R   0.199854 0.691946 0.502742 -0.121132
C52   C     C_R   0.309758 0.201126 0.502926 -0.109950
C53   C     C_R   0.798996 0.690378 0.502942 -0.110258
C54   C     C_R   0.691832 0.200007 0.502719 -0.120994
C55   C     C_R   0.199889 0.308067 0.502771 -0.121626
C56   C     C_R   0.309698 0.798906 0.502879 -0.109248
C57   C     C_R   0.270259 0.784897 0.037047 0.156959
C58   C     C_R   0.212948 0.267940 0.037021 0.173726
C59   C     C_R   0.729832 0.215229 0.037055 0.156850
C60   C     C_R   0.787216 0.732010 0.037020 0.173750
C61   C     C_R   0.270268 0.215105 0.036998 0.158680
C62   C     C_R   0.212954 0.732043 0.037077 0.175221
C63   C     C_R   0.729818 0.784763 0.037006 0.158552
C64   C     C_R   0.787214 0.268003 0.037075 0.175258
C65   C     C_R   0.767962 0.287278 0.537018 0.173262
C66   C     C_R   0.715160 0.770104 0.537036 0.158981
C67   C     C_R   0.229962 0.715088 0.536994 0.156396
C68   C     C_R   0.287209 0.231991 0.537062 0.175735
C69   C     C_R   0.768098 0.712855 0.537069 0.175772
C70   C     C_R   0.715024 0.230043 0.536983 0.156720
C71   C     C_R   0.229818 0.284760 0.537041 0.158653
C72   C     C_R   0.287329 0.767870 0.537003 0.173269
C73   C     C_3   0.236880 0.702045 0.933538 0.324338
C74   C     C_3   0.297093 0.238059 0.933324 0.329613
C75   C     C_3   0.762914 0.297824 0.933515 0.324333
C76   C     C_3   0.702666 0.762034 0.933307 0.329660
C77   C     C_3   0.236876 0.297953 0.933458 0.329897
C78   C     C_3   0.297082 0.761930 0.933402 0.324140
C79   C     C_3   0.762937 0.702193 0.933433 0.329848
C80   C     C_3   0.702656 0.237993 0.933389 0.324131
C81   C     C_3   0.738223 0.202307 0.433400 0.325118
C82   C     C_3   0.797679 0.737175 0.433512 0.325269
C83   C     C_3   0.262464 0.798200 0.433509 0.325178
C84   C     C_3   0.202676 0.261979 0.433360 0.324946
C85   C     C_3   0.737746 0.797350 0.433380 0.329159
C86   C     C_3   0.798176 0.262449 0.433549 0.328952
C87   C     C_3   0.262928 0.202126 0.433494 0.329208
C88   C     C_3   0.202194 0.738377 0.433392 0.328698
C89   C     C_R   0.038783 0.444962 0.769526 0.116568
C90   C     C_R   0.548343 0.953198 0.769550 0.119358
C91   C     C_R   0.961193 0.555028 0.769475 0.116909
C92   C     C_R   0.451600 0.046806 0.769448 0.119749
C93   C     C_R   0.541302 0.946828 0.269527 0.115729
C94   C     C_R   0.047922 0.547236 0.269550 0.117859
C95   C     C_R   0.458705 0.053172 0.269471 0.115736
C96   C     C_R   0.951983 0.452828 0.269449 0.117940
C97   C     C_R   0.999991 0.499996 0.788780 0.055973
C98   C     C_R   0.499933 0.999993 0.788782 0.056428
C99   C     C_R   0.500004 0.000000 0.288779 0.056251
C100  C     C_R   0.999916 0.500038 0.288782 0.056616
C101  C     C_R   0.458841 0.053004 0.230410 0.150136
C102  C     C_R   0.952230 0.452945 0.230385 0.150863
C103  C     C_R   0.541161 0.946992 0.230465 0.150091
C104  C     C_R   0.047834 0.547079 0.230486 0.150785
C105  C     C_R   0.961332 0.554863 0.730413 0.151009
C106  C     C_R   0.451846 0.046687 0.730385 0.152089
C107  C     C_R   0.038638 0.445126 0.730464 0.150970
C108  C     C_R   0.548256 0.953356 0.730486 0.152417
C109  C     C_R   0.500000 0.999998 0.211325 0.043765
C110  C     C_R   0.000070 0.500003 0.211321 0.043310
C111  C     C_R   0.999985 0.499995 0.711326 0.043630
C112  C     C_R   0.500086 0.000028 0.711321 0.043309
C113  C     C_1   0.999996 0.499999 0.828610 0.007558
C114  C     C_1   0.499881 0.999996 0.828619 0.009904
C115  C     C_1   0.500003 1.000000 0.328610 0.007345
C116  C     C_1   0.999873 0.500025 0.328619 0.009362
C117  C     C_1   0.499999 0.999998 0.171419 -0.014082
C118  C     C_1   0.000124 0.500003 0.171409 -0.013369
C119  C     C_1   0.999986 0.499997 0.671420 -0.013632
C120  C     C_1   0.500132 0.000018 0.671409 -0.012498
C121  C     C_1   0.499998 0.999999 0.138267 -0.141483
C122  C     C_1   0.000121 0.500002 0.138254 -0.135769
C123  C     C_1   0.999990 0.499999 0.638267 -0.138828
C124  C     C_1   0.500124 0.000009 0.638254 -0.138045
C125  C     C_1   0.000000 0.500000 0.861764 -0.068578
C126  C     C_1   0.499881 0.999999 0.861776 -0.068296
C127  C     C_1   0.500002 1.000000 0.361764 -0.068923
C128  C     C_1   0.999878 0.500012 0.361776 -0.067774
C129  C     C_3   0.300186 0.816496 0.072669 -0.836461
H1    H     H_    0.357147 0.797889 0.076777 0.259875
H2    H     H_    0.298870 0.877055 0.071406 0.223206
H3    H     H_    0.269847 0.800308 0.097645 0.238275
C130  C     C_3   0.176162 0.289239 0.072835 -0.849334
H4    H     H_    0.127640 0.324317 0.069113 0.235023
H5    H     H_    0.155700 0.239572 0.086960 0.233979
H6    H     H_    0.215467 0.318288 0.090910 0.249074
C131  C     C_3   0.699990 0.183760 0.072683 -0.836490
H7    H     H_    0.643043 0.202390 0.076734 0.259869
H8    H     H_    0.701295 0.123196 0.071476 0.223258
H9    H     H_    0.730389 0.200038 0.097668 0.238269
C132  C     C_3   0.824174 0.710686 0.072834 -0.849024
H10   H     H_    0.872763 0.675729 0.069103 0.234908
H11   H     H_    0.844580 0.760355 0.087006 0.233928
H12   H     H_    0.784999 0.681496 0.090870 0.249083
C133  C     C_3   0.300180 0.183493 0.072627 -0.839758
H13   H     H_    0.357127 0.202109 0.076755 0.259924
H14   H     H_    0.269818 0.199660 0.097602 0.237960
H15   H     H_    0.298893 0.122934 0.071360 0.223224
C134  C     C_3   0.176239 0.710671 0.072899 -0.852750
H16   H     H_    0.127751 0.675554 0.069184 0.235131
H17   H     H_    0.215593 0.681629 0.090954 0.248712
H18   H     H_    0.155746 0.760302 0.087049 0.234043
C135  C     C_3   0.699985 0.816238 0.072643 -0.839737
H19   H     H_    0.643051 0.797595 0.076709 0.259916
H20   H     H_    0.730403 0.799977 0.097625 0.237961
H21   H     H_    0.701258 0.876802 0.071433 0.223274
C136  C     C_3   0.824106 0.289396 0.072897 -0.852468
H22   H     H_    0.872659 0.324394 0.069172 0.235021
H23   H     H_    0.784882 0.318573 0.090915 0.248711
H24   H     H_    0.844547 0.239760 0.087091 0.233994
C137  C     C_3   0.789303 0.324248 0.572826 -0.849310
H25   H     H_    0.824596 0.372630 0.569113 0.235039
H26   H     H_    0.739784 0.345102 0.586858 0.234708
H27   H     H_    0.818042 0.284835 0.590981 0.248981
C138  C     C_3   0.683596 0.799890 0.572660 -0.840530
H28   H     H_    0.702071 0.856961 0.576803 0.259830
H29   H     H_    0.623144 0.798486 0.571373 0.223601
H30   H     H_    0.699823 0.769417 0.597634 0.237400
C139  C     C_3   0.200318 0.683419 0.572620 -0.834522
H31   H     H_    0.143378 0.701988 0.576766 0.260452
H32   H     H_    0.201654 0.622863 0.571332 0.222875
H33   H     H_    0.230831 0.699590 0.597587 0.239022
C140  C     C_3   0.324106 0.210606 0.572886 -0.853753
H34   H     H_    0.372670 0.175611 0.569163 0.235095
H35   H     H_    0.344531 0.260244 0.587078 0.233727
H36   H     H_    0.284890 0.181429 0.590905 0.248527
C141  C     C_3   0.789615 0.676038 0.572896 -0.855010
H37   H     H_    0.824829 0.627588 0.569192 0.235558
H38   H     H_    0.818496 0.715503 0.590962 0.247985
H39   H     H_    0.740162 0.655310 0.587029 0.234096
C142  C     C_3   0.683247 0.200453 0.572594 -0.835132
H40   H     H_    0.701677 0.143390 0.576831 0.259898
H41   H     H_    0.699343 0.231045 0.597550 0.239047
H42   H     H_    0.622803 0.201888 0.571214 0.223187
C143  C     C_3   0.199965 0.316228 0.572673 -0.839997
H43   H     H_    0.143026 0.297590 0.576729 0.260557
H44   H     H_    0.230369 0.299959 0.597659 0.237284
H45   H     H_    0.201243 0.376792 0.571467 0.223218
C144  C     C_3   0.324400 0.789085 0.572802 -0.848215
H46   H     H_    0.372908 0.824139 0.569060 0.234572
H47   H     H_    0.285250 0.818140 0.590911 0.249700
H48   H     H_    0.344941 0.739381 0.586897 0.234264
C145  C     C_3   0.262271 0.621911 0.935616 -0.911458
H49   H     H_    0.214253 0.585127 0.936981 0.236736
H50   H     H_    0.293991 0.607654 0.910610 0.274283
H51   H     H_    0.296426 0.611794 0.960376 0.227173
C146  C     C_3   0.376932 0.264026 0.935219 -0.916332
H52   H     H_    0.413974 0.216148 0.936526 0.236074
H53   H     H_    0.390666 0.295936 0.910174 0.274254
H54   H     H_    0.387081 0.298266 0.959947 0.227489
C147  C     C_3   0.737599 0.377983 0.935542 -0.911404
H55   H     H_    0.785653 0.414729 0.936899 0.236767
H56   H     H_    0.705786 0.392213 0.910520 0.274256
H57   H     H_    0.703557 0.388180 0.960287 0.227163
C148  C     C_3   0.622856 0.735997 0.935152 -0.916336
H58   H     H_    0.585781 0.783842 0.936477 0.236052
H59   H     H_    0.609055 0.704143 0.910079 0.274270
H60   H     H_    0.612824 0.701682 0.959852 0.227508
C149  C     C_3   0.262255 0.378084 0.935518 -0.914075
H61   H     H_    0.293947 0.392324 0.910501 0.274014
H62   H     H_    0.214229 0.414867 0.936889 0.236485
H63   H     H_    0.296430 0.388214 0.960269 0.227418
C150  C     C_3   0.376927 0.735958 0.935312 -0.913207
H64   H     H_    0.390677 0.704020 0.910277 0.274586
H65   H     H_    0.413964 0.783830 0.936612 0.236365
H66   H     H_    0.387069 0.701738 0.960049 0.227116
C151  C     C_3   0.737632 0.622037 0.935437 -0.914012
H67   H     H_    0.705853 0.607830 0.910402 0.273988
H68   H     H_    0.785693 0.585289 0.936802 0.236519
H69   H     H_    0.703563 0.611822 0.960171 0.227405
C152  C     C_3   0.622841 0.264037 0.935257 -0.913185
H70   H     H_    0.609016 0.295926 0.910198 0.274602
H71   H     H_    0.585770 0.216198 0.936576 0.236349
H72   H     H_    0.612826 0.298325 0.959969 0.227133
C153  C     C_3   0.763919 0.122265 0.435443 -0.913720
H73   H     H_    0.716022 0.085307 0.436717 0.236508
H74   H     H_    0.795841 0.108219 0.410473 0.274483
H75   H     H_    0.797971 0.112189 0.460243 0.227125
C154  C     C_3   0.877614 0.762783 0.435571 -0.913185
H76   H     H_    0.914451 0.714756 0.436942 0.236651
H77   H     H_    0.891687 0.794635 0.410556 0.274089
H78   H     H_    0.887710 0.796973 0.460323 0.227168
C155  C     C_3   0.237177 0.878352 0.435670 -0.912355
H79   H     H_    0.205239 0.892712 0.410707 0.274048
H80   H     H_    0.203265 0.888435 0.460473 0.227403
H81   H     H_    0.285247 0.915079 0.437012 0.236744
C156  C     C_3   0.122857 0.235964 0.435217 -0.913572
H82   H     H_    0.109043 0.204080 0.410156 0.274356
H83   H     H_    0.112823 0.201682 0.459928 0.227366
H84   H     H_    0.085791 0.283818 0.436530 0.236549
C157  C     C_3   0.763484 0.877386 0.435296 -0.915061
H85   H     H_    0.795269 0.891303 0.410264 0.274445
H86   H     H_    0.715609 0.914381 0.436595 0.236111
H87   H     H_    0.797679 0.887552 0.460035 0.227247
C158  C     C_3   0.878088 0.236808 0.435787 -0.914851
H88   H     H_    0.892328 0.204821 0.410839 0.273972
H89   H     H_    0.914929 0.284822 0.437160 0.236116
H90   H     H_    0.888000 0.202740 0.460602 0.227531
C159  C     C_3   0.237602 0.121978 0.435537 -0.913629
H91   H     H_    0.205792 0.107740 0.410515 0.273998
H92   H     H_    0.285653 0.085217 0.436902 0.236369
H93   H     H_    0.203556 0.111810 0.460283 0.227503
C160  C     C_3   0.122396 0.764422 0.435422 -0.915327
H94   H     H_    0.108419 0.796436 0.410425 0.274242
H95   H     H_    0.085328 0.716579 0.436738 0.235998
H96   H     H_    0.112538 0.798586 0.460194 0.227744
N1    N     N_R   0.181074 0.712493 0.904900 0.256384
O53   O     O_R   0.117369 0.739516 0.912838 -0.294645
O54   O     O_R   0.194141 0.691868 0.871241 -0.319228
N2    N     N_R   0.286735 0.182446 0.904562 0.255375
O55   O     O_R   0.260941 0.118116 0.912459 -0.297396
O56   O     O_R   0.306470 0.196253 0.870849 -0.342666
N3    N     N_R   0.818597 0.287269 0.904901 0.256419
O57   O     O_R   0.882330 0.260260 0.912880 -0.294654
O58   O     O_R   0.805400 0.307805 0.871223 -0.319156
N4    N     N_R   0.712878 0.817720 0.904581 0.255346
O59   O     O_R   0.738715 0.882029 0.912519 -0.297250
O60   O     O_R   0.693015 0.803981 0.870854 -0.343049
N5    N     N_R   0.181063 0.287500 0.904820 0.255683
O61   O     O_R   0.194116 0.308107 0.871155 -0.343215
O62   O     O_R   0.117337 0.260563 0.912773 -0.297499
N6    N     N_R   0.286717 0.817533 0.904640 0.256077
O63   O     O_R   0.306454 0.803709 0.870929 -0.318468
O64   O     O_R   0.260847 0.881846 0.912524 -0.294814
N7    N     N_R   0.818638 0.712756 0.904825 0.255738
O65   O     O_R   0.805477 0.692225 0.871142 -0.342886
O66   O     O_R   0.882382 0.739698 0.912824 -0.297478
N8    N     N_R   0.712864 0.182321 0.904659 0.256066
O67   O     O_R   0.692967 0.196075 0.870939 -0.318605
O68   O     O_R   0.738797 0.118034 0.912578 -0.294651
N9    N     N_R   0.682841 0.212631 0.404542 0.256302
O69   O     O_R   0.618623 0.238601 0.412316 -0.295824
O70   O     O_R   0.696742 0.192686 0.370865 -0.321582
N10   N     N_R   0.787286 0.681329 0.404874 0.256916
O71   O     O_R   0.760519 0.617421 0.412818 -0.294000
O72   O     O_R   0.807662 0.694586 0.371204 -0.321494
N11   N     N_R   0.317976 0.787776 0.404799 0.256760
O73   O     O_R   0.381800 0.760851 0.412662 -0.295224
O74   O     O_R   0.304542 0.808378 0.371155 -0.321751
N12   N     N_R   0.212905 0.317632 0.404626 0.256487
O75   O     O_R   0.238762 0.381943 0.412548 -0.295054
O76   O     O_R   0.193107 0.303836 0.370896 -0.321285
N13   N     N_R   0.682181 0.786943 0.404614 0.254834
O77   O     O_R   0.695800 0.806934 0.370913 -0.340772
O78   O     O_R   0.618061 0.760882 0.412501 -0.298098
N14   N     N_R   0.788015 0.318157 0.404815 0.255363
O79   O     O_R   0.808766 0.304774 0.371214 -0.341507
O80   O     O_R   0.761180 0.382108 0.412622 -0.296124
N15   N     N_R   0.318612 0.212628 0.404872 0.255380
O81   O     O_R   0.305451 0.191975 0.371208 -0.341186
O82   O     O_R   0.382339 0.239648 0.412840 -0.297401
N16   N     N_R   0.212201 0.682855 0.404566 0.254835
O83   O     O_R   0.192027 0.696765 0.370903 -0.341092
O84   O     O_R   0.238132 0.618508 0.412359 -0.297330
C161  C     C_3   0.584290 0.891429 0.208259 -0.849672
H97   H     H_    0.615226 0.851550 0.224941 0.249518
H98   H     H_    0.546542 0.859740 0.190451 0.245448
H99   H     H_    0.624268 0.920262 0.190510 0.238634
C162  C     C_3   0.097969 0.596413 0.208304 -0.850600
H100  H     H_    0.133885 0.631819 0.225003 0.249227
H101  H     H_    0.133799 0.562513 0.190568 0.245990
H102  H     H_    0.064778 0.632843 0.190487 0.238415
C163  C     C_3   0.415708 0.108565 0.208145 -0.849759
H103  H     H_    0.384771 0.148443 0.224786 0.249485
H104  H     H_    0.453454 0.140256 0.190387 0.245461
H105  H     H_    0.375732 0.079730 0.190343 0.238628
C164  C     C_3   0.902182 0.403589 0.208099 -0.850781
H106  H     H_    0.866221 0.368177 0.224722 0.249161
H107  H     H_    0.866403 0.437471 0.190279 0.245977
H108  H     H_    0.935442 0.367158 0.190359 0.238453
C165  C     C_3   0.079128 0.387604 0.708256 -0.850660
H109  H     H_    0.108154 0.346307 0.724938 0.248164
H110  H     H_    0.039944 0.357727 0.690442 0.246172
H111  H     H_    0.120420 0.414530 0.690514 0.238677
C166  C     C_3   0.598818 0.904447 0.708305 -0.853508
H112  H     H_    0.635043 0.869349 0.725004 0.247954
H113  H     H_    0.565944 0.867733 0.690490 0.238716
H114  H     H_    0.634351 0.938648 0.690566 0.245649
C167  C     C_3   0.920836 0.612382 0.708152 -0.850859
H115  H     H_    0.891808 0.653676 0.724794 0.248127
H116  H     H_    0.960016 0.642262 0.690389 0.246225
H117  H     H_    0.879545 0.585452 0.690354 0.238678
C168  C     C_3   0.401376 0.095624 0.708098 -0.852666
H118  H     H_    0.365115 0.130736 0.724720 0.247802
H119  H     H_    0.434323 0.132330 0.690356 0.238650
H120  H     H_    0.365885 0.061444 0.690280 0.246235
C169  C     C_3   0.080361 0.386014 0.790238 -0.733864
H121  H     H_    0.077274 0.390493 0.820606 0.262422
H122  H     H_    0.058147 0.331518 0.782929 0.253033
H123  H     H_    0.139041 0.388693 0.782942 0.243117
C170  C     C_3   0.600141 0.903055 0.790287 -0.739141
H124  H     H_    0.596196 0.906849 0.820653 0.260200
H125  H     H_    0.588519 0.845365 0.782966 0.240174
H126  H     H_    0.657299 0.916694 0.783029 0.255214
C171  C     C_3   0.919616 0.613976 0.790131 -0.734418
H127  H     H_    0.922706 0.609497 0.820504 0.262280
H128  H     H_    0.941828 0.668471 0.782851 0.253102
H129  H     H_    0.860935 0.611294 0.782758 0.243002
C172  C     C_3   0.399718 0.096923 0.790076 -0.739969
H130  H     H_    0.403521 0.093074 0.820450 0.260129
H131  H     H_    0.411382 0.154623 0.782809 0.240207
H132  H     H_    0.342591 0.083306 0.782669 0.255098
C173  C     C_3   0.585553 0.889867 0.290241 -0.733250
H133  H     H_    0.582230 0.894174 0.320609 0.261318
H134  H     H_    0.565904 0.834400 0.282920 0.253908
H135  H     H_    0.644051 0.895287 0.282960 0.243126
C174  C     C_3   0.099288 0.597809 0.290287 -0.736824
H136  H     H_    0.095379 0.593977 0.320653 0.259850
H137  H     H_    0.156560 0.584650 0.283027 0.255859
H138  H     H_    0.087168 0.655399 0.282968 0.240659
C175  C     C_3   0.414460 0.110137 0.290125 -0.733197
H139  H     H_    0.417793 0.105836 0.320498 0.261595
H140  H     H_    0.434108 0.165603 0.282827 0.253813
H141  H     H_    0.355961 0.104716 0.282770 0.243098
C176  C     C_3   0.900525 0.402287 0.290077 -0.737055
H142  H     H_    0.843287 0.415430 0.282668 0.255686
H143  H     H_    0.912682 0.344685 0.282814 0.240628
H144  H     H_    0.904291 0.406177 0.320451 0.260226

loop_
_geom_bond_atom_site_label_1
_geom_bond_atom_site_label_2
_geom_bond_distance
_ccdc_geom_bond_type
C130  H5    1.110082 S    
C174  H136  1.106741 S    
C74   C146  1.541953 S    
C70   C142  1.518689 S    
C49   C65   1.423624 A    
N5    O61   1.301340 A    
C155  H79   1.109994 S    
C150  H66   1.110483 S    
C105  C167  1.521055 S    
C16   C44   1.450063 S    
C81   N9    1.470639 S    
C102  C110  1.412266 A    
C76   N4    1.470795 S    
C167  H116  1.110658 S    
C30   C46   1.391206 A    
C105  C111  1.412267 A    
C28   C31   1.367949 A    
C148  H60   1.110476 S    
C129  H2    1.110610 S    
C162  H102  1.110602 S    
Zn12  O26   1.937683 S    
C6    C122  1.429958 S    
N12   O75   1.302145 A    
O34   C22   1.272586 A    
Zn14  O36   1.938401 S    
C12   C48   1.450207 S    
O52   C22   1.269850 A    
O41   C15   1.270005 A    
C114  C126  1.203379 T    
C92   C98   1.418702 A    
Zn4   O2    1.940886 S    
C26   C77   1.508627 S    
C131  H8    1.110608 S    
C85   N13   1.470810 S    
C171  H128  1.110408 S    
C141  H37   1.106152 S    
O47   C17   1.270952 A    
C130  H6    1.110242 S    
C46   C62   1.423731 A    
C92   C106  1.417764 A    
C40   C56   1.391381 A    
C85   C157  1.542009 S    
C133  H14   1.105019 S    
C96   C100  1.418688 A    
N6    O63   1.301285 A    
C161  H99   1.110646 S    
O22   C10   1.269085 A    
C26   C29   1.367886 A    
O46   C20   1.273028 A    
C67   C139  1.518642 S    
Zn12  O24   1.938607 S    
C159  H93   1.110502 S    
C78   N6    1.470658 S    
C137  H25   1.106158 S    
C60   C132  1.516494 S    
C40   C83   1.508469 S    
N11   O73   1.302152 A    
Zn16  O4    1.937448 S    
C176  H144  1.106737 S    
N10   O71   1.302150 A    
Zn1   O13   1.909735 S    
C87   N15   1.470808 S    
C157  H85   1.110000 S    
Zn3   O15   1.909733 S    
C34   C85   1.509655 S    
Zn4   O16   1.909328 S    
C78   C150  1.542006 S    
Zn5   O49   1.936580 S    
Zn7   O3    1.937384 S    
C147  H56   1.109993 S    
C165  H109  1.105282 S    
C174  H138  1.110350 S    
C101  C163  1.521052 S    
O11   C3    1.280218 A    
C145  H50   1.109994 S    
C155  H81   1.110552 S    
O49   C23   1.272464 A    
C28   C79   1.508607 S    
C73   C145  1.541941 S    
C77   C149  1.541886 S    
N6    O64   1.302150 A    
C153  H75   1.110478 S    
C166  H112  1.105221 S    
Zn9   O25   1.936848 S    
Zn10  O22   1.937890 S    
C59   C131  1.518621 S    
C151  H68   1.110555 S    
C169  H121  1.106737 S    
Zn13  O29   1.936641 S    
Zn10  O2    1.937442 S    
C2    C125  1.428899 S    
Zn3   O1    1.937384 S    
C29   C74   1.509789 S    
C110  C118  1.448517 S    
C35   C88   1.509655 S    
C160  H94   1.110007 S    
C141  H39   1.110075 S    
Zn4   O42   1.935327 S    
C140  H35   1.110081 S    
C170  H124  1.106737 S    
C9    C47   1.452187 S    
C82   N10   1.470660 S    
C132  H12   1.110240 S    
C36   C39   1.367895 A    
Zn8   O46   1.935536 S    
C164  H107  1.110599 S    
N9    O69   1.302143 A    
O27   C15   1.272527 A    
C96   C102  1.417761 A    
C98   C114  1.445802 S    
C20   C56   1.450262 S    
C136  H24   1.110078 S    
N16   O83   1.301341 A    
O8    C2    1.278881 A    
C175  H139  1.106740 S    
C107  C165  1.521058 S    
C142  H40   1.109324 S    
C135  H19   1.109324 S    
C73   N1    1.470678 S    
C68   C140  1.516589 S    
C137  H27   1.110238 S    
O16   C6    1.280819 A    
C145  H49   1.110548 S    
O14   C6    1.280924 A    
C86   C158  1.541898 S    
C158  H89   1.110555 S    
Zn12  O6    1.909470 S    
O40   C10   1.272282 A    
N14   O79   1.301328 A    
C140  H34   1.106218 S    
C53   C69   1.423727 A    
N1    O54   1.301277 A    
O45   C19   1.272504 A    
O17   C7    1.279484 A    
C156  H83   1.110476 S    
Zn5   O17   1.909735 S    
C165  H111  1.110663 S    
C17   C55   1.452327 S    
O9    C3    1.280320 A    
C41   C57   1.424469 A    
C138  H28   1.109321 S    
C50   C66   1.424513 A    
C139  H31   1.109323 S    
C154  H77   1.109995 S    
C76   C79   1.557205 S    
C101  C109  1.412243 A    
C172  H131  1.110356 S    
C148  H58   1.110597 S    
C157  H86   1.110590 S    
C75   C80   1.557078 S    
C166  H114  1.110611 S    
Zn10  O28   1.938401 S    
C169  H123  1.110392 S    
C89   C97   1.418704 A    
N4    O59   1.302125 A    
Zn9   O7    1.909065 S    
O50   C24   1.272910 A    
Zn10  O8    1.909472 S    
C134  H16   1.106182 S    
Zn11  O5    1.910297 S    
C96   C176  1.520394 S    
C91   C97   1.418706 A    
O5    C1    1.280328 A    
O31   C19   1.268966 A    
C7    C123  1.429795 S    
C153  H73   1.110583 S    
C8    C124  1.429958 S    
Zn1   O41   1.936580 S    
C69   C141  1.516597 S    
N8    O68   1.302152 A    
C48   C64   1.423792 A    
C160  H96   1.110478 S    
C38   C54   1.390611 A    
C23   C49   1.449952 S    
C132  H10   1.106223 S    
C25   C78   1.509516 S    
C170  H126  1.110351 S    
N12   O76   1.301277 A    
C146  H53   1.110005 S    
C93   C99   1.418689 A    
C42   C58   1.423663 A    
C94   C100  1.418718 A    
N11   O74   1.301280 A    
C173  H135  1.110376 S    
Zn15  O35   1.937346 S    
N7    O66   1.302131 A    
C89   C169  1.520430 S    
C60   C63   1.429430 A    
C106  C112  1.412282 A    
C168  H120  1.110608 S    
C165  H110  1.110658 S    
C175  H141  1.110373 S    
C104  C110  1.412240 A    
C33   C38   1.367932 A    
C142  H42   1.110614 S    
C75   C147  1.541936 S    
N2    O55   1.302127 A    
C143  H45   1.110605 S    
C117  C121  1.203209 T    
C150  H65   1.110580 S    
C15   C41   1.452233 S    
Zn1   O1    1.937381 S    
O29   C17   1.273150 A    
C120  C124  1.203314 T    
C140  H36   1.110255 S    
C11   C45   1.451978 S    
Zn1   O39   1.937088 S    
Zn2   O40   1.936031 S    
C167  H115  1.105282 S    
Zn3   O37   1.936373 S    
C33   C86   1.508537 S    
C136  H23   1.110249 S    
C36   C87   1.508529 S    
C61   C133  1.518835 S    
C129  H1    1.109326 S    
C138  H30   1.105021 S    
C162  H101  1.110600 S    
Zn7   O51   1.937293 S    
C79   C151  1.541882 S    
C108  C112  1.412254 A    
C94   C104  1.417766 A    
C149  H63   1.110500 S    
C103  C109  1.412246 A    
C74   N2    1.470785 S    
O6    C2    1.278880 A    
O18   C8    1.280915 A    
C171  H127  1.106740 S    
O10   C4    1.278882 A    
C32   C48   1.391158 A    
C39   C55   1.390789 A    
C66   C69   1.429484 A    
C88   C160  1.541989 S    
Zn14  O30   1.937890 S    
O12   C4    1.278883 A    
C133  H13   1.109324 S    
C134  H18   1.110076 S    
Zn15  O3    1.938530 S    
C37   C82   1.508526 S    
N13   O78   1.302127 A    
C173  H133  1.106741 S    
C22   C50   1.451893 S    
Zn16  O34   1.937683 S    
C135  H21   1.110607 S    
C161  H98   1.110644 S    
C31   C47   1.390898 A    
Zn2   O44   1.935828 S    
C157  H87   1.110477 S    
C111  C119  1.448334 S    
C86   N14   1.470804 S    
C152  H72   1.110485 S    
C109  C117  1.448327 S    
Zn5   O47   1.937088 S    
C34   C37   1.367803 A    
C154  H76   1.110557 S    
Zn6   O48   1.936031 S    
C159  H92   1.110554 S    
Zn7   O45   1.936373 S    
C112  C120  1.448513 S    
O35   C23   1.268870 A    
C21   C51   1.452230 S    
C176  H143  1.110351 S    
C82   C85   1.557132 S    
N10   O72   1.301278 A    
C18   C54   1.452172 S    
C115  C127  1.203270 T    
O32   C20   1.269877 A    
C83   C155  1.541903 S    
C113  C125  1.203274 T    
C92   C172  1.520425 S    
C65   C70   1.429484 A    
C147  H55   1.110545 S    
C174  H137  1.110347 S    
C74   C77   1.557201 S    
C10   C46   1.450050 S    
C68   C71   1.429524 A    
O48   C18   1.269979 A    
N5    O62   1.302130 A    
C168  H118  1.105218 S    
O38   C12   1.272902 A    
C155  H80   1.110502 S    
C58   C130  1.516500 S    
Zn16  O10   1.909470 S    
C67   C72   1.429523 A    
C82   C154  1.541892 S    
C72   C144  1.516477 S    
Zn13  O3    1.940947 S    
Zn14  O4    1.937442 S    
C31   C76   1.509799 S    
C54   C70   1.424407 A    
C167  H117  1.110662 S    
C19   C53   1.450037 S    
C27   C32   1.367895 A    
C87   C159  1.541925 S    
C116  C128  1.203379 T    
O21   C9    1.273046 A    
C26   C42   1.391455 A    
C51   C67   1.424304 A    
Zn6   O18   1.910559 S    
C76   C148  1.541951 S    
C52   C68   1.423788 A    
O23   C11   1.272410 A    
C129  H3    1.105009 S    
N3    O57   1.302158 A    
C151  H67   1.109999 S    
C145  H51   1.110505 S    
C166  H113  1.110613 S    
C84   C87   1.557125 S    
O25   C13   1.273167 A    
N15   O82   1.302133 A    
C83   C88   1.557144 S    
C73   C78   1.557076 S    
C171  H129  1.110391 S    
C141  H38   1.110260 S    
O36   C24   1.269917 A    
C90   C98   1.418734 A    
C164  H106  1.105212 S    
C133  H15   1.110609 S    
Zn11  O1    1.938530 S    
O37   C11   1.270100 A    
C80   N8    1.470671 S    
C56   C72   1.423722 A    
Zn12  O2    1.937448 S    
O43   C13   1.270897 A    
O28   C16   1.269823 A    
C32   C75   1.508366 S    
N16   O84   1.302132 A    
Zn5   O3    1.937381 S    
Zn6   O4    1.938466 S    
C77   N5    1.470809 S    
C58   C61   1.429374 A    
Zn2   O14   1.910559 S    
C33   C49   1.391378 A    
C144  H48   1.110078 S    
C137  H26   1.110077 S    
C158  H88   1.110002 S    
C143  H43   1.109322 S    
C88   N16   1.470804 S    
C103  C161  1.521047 S    
C108  C166  1.521062 S    
C1    C126  1.429116 S    
N14   O80   1.302141 A    
C63   C135  1.518808 S    
C24   C52   1.449978 S    
N1    O53   1.302158 A    
C95   C101  1.417686 A    
C65   C137  1.516483 S    
C44   C60   1.423719 A    
Zn15  O9    1.910297 S    
C135  H20   1.105018 S    
C156  H82   1.110003 S    
C147  H57   1.110506 S    
C138  H29   1.110610 S    
C163  H104  1.110644 S    
C152  H71   1.110582 S    
C64   C136  1.516572 S    
C5    C121  1.429777 S    
C36   C52   1.391194 A    
N7    O65   1.301341 A    
C118  C122  1.203310 T    
C55   C71   1.424450 A    
Zn2   O2    1.938466 S    
C130  H4    1.106189 S    
O7    C1    1.280213 A    
N15   O81   1.301335 A    
O26   C14   1.268956 A    
Zn15  O31   1.937139 S    
C81   C86   1.557142 S    
Zn16  O32   1.938607 S    
C4    C127  1.428913 S    
C172  H130  1.106749 S    
C3    C128  1.429112 S    
C47   C63   1.424391 A    
C131  H7    1.109325 S    
C28   C44   1.391398 A    
O19   C7    1.279487 A    
Zn8   O4    1.940886 S    
C45   C61   1.424414 A    
C14   C42   1.449906 S    
C71   C143  1.518773 S    
C144  H46   1.106217 S    
C151  H69   1.110504 S    
C84   N12   1.470659 S    
C169  H122  1.110410 S    
O39   C9    1.270993 A    
N4    O60   1.301330 A    
O15   C5    1.279485 A    
O13   C5    1.279483 A    
C95   C175  1.520414 S    
C139  H32   1.110610 S    
O51   C21   1.270933 A    
C59   C64   1.429632 A    
C90   C108  1.417766 A    
O20   C8    1.280828 A    
C148  H59   1.110006 S    
O44   C14   1.272444 A    
C57   C62   1.429577 A    
C99   C115  1.445598 S    
C13   C43   1.452437 S    
C160  H95   1.110591 S    
C83   N11   1.470646 S    
O24   C12   1.269956 A    
Zn11  O27   1.937346 S    
Zn8   O50   1.935327 S    
C170  H125  1.110356 S    
C146  H52   1.110594 S    
C119  C123  1.203223 T    
C34   C50   1.390435 A    
C164  H108  1.110604 S    
Zn6   O52   1.935828 S    
C57   C129  1.518648 S    
C173  H134  1.110382 S    
C38   C81   1.509587 S    
C91   C171  1.520430 S    
C94   C174  1.520409 S    
C168  H119  1.110613 S    
C79   N7    1.470803 S    
C175  H140  1.110381 S    
C142  H41   1.105000 S    
C81   C153  1.541986 S    
C104  C162  1.521040 S    
N2    O56   1.301335 A    
C143  H44   1.105026 S    
C158  H90   1.110503 S    
C107  C111  1.412265 A    
C100  C116  1.445802 S    
C150  H64   1.110000 S    
C93   C173  1.520421 S    
C144  H47   1.110236 S    
C93   C103  1.417690 A    
C62   C134  1.516576 S    
C95   C99   1.418689 A    
O42   C16   1.273059 A    
C163  H105  1.110648 S    
C156  H84   1.110593 S    
Zn9   O21   1.936641 S    
C136  H22   1.106216 S    
C37   C53   1.391471 A    
Zn11  O23   1.937139 S    
N3    O58   1.301277 A    
C162  H100  1.105214 S    
C35   C40   1.368014 A    
C89   C107  1.417679 A    
Zn13  O33   1.936848 S    
C39   C84   1.509647 S    
Zn9   O1    1.940947 S    
C102  C164  1.521051 S    
C149  H62   1.110560 S    
C30   C73   1.508378 S    
C43   C59   1.424441 A    
C154  H78   1.110505 S    
C139  H33   1.105007 S    
C29   C45   1.390780 A    
C172  H132  1.110351 S    
C152  H70   1.110000 S    
C131  H9    1.105011 S    
Zn4   O38   1.935536 S    
Zn7   O19   1.909733 S    
C35   C51   1.390697 A    
C27   C80   1.509518 S    
O33   C21   1.273029 A    
Zn8   O20   1.909328 S    
C134  H17   1.110250 S    
N13   O77   1.301334 A    
C97   C113  1.445572 S    
C75   N3    1.470670 S    
C153  H74   1.110001 S    
C27   C43   1.390606 A    
C161  H97   1.105256 S    
N8    O67   1.301285 A    
C163  H103  1.105254 S    
C80   C152  1.542006 S    
C132  H11   1.110084 S    
C66   C138  1.518820 S    
C159  H91   1.109999 S    
C146  H54   1.110477 S    
C106  C168  1.521064 S    
N9    O70   1.301291 A    
C176  H142  1.110345 S    
C91   C105  1.417679 A    
C25   C41   1.390494 A    
C84   C156  1.541988 S    
Zn13  O11   1.909065 S    
Zn14  O12   1.909472 S    
C149  H61   1.109997 S    
C25   C30   1.367830 A    
C90   C170  1.520430 S    
O30   C18   1.272523 A    
Zn3   O43   1.937293 S    
