data_mof_unit_48326.cif
_audit_creation_date              2012-12-10T17:32:18-0500
_audit_creation_method            fapswitch 2.2
_symmetry_space_group_name_H-M    P1
_symmetry_Int_Tables_number       1
_space_group_crystal_system       triclinic
_cell_length_a                    15.525395
_cell_length_b                    15.523599
_cell_length_c                    15.488904
_cell_angle_alpha                 91.724801
_cell_angle_beta                  72.407945
_cell_angle_gamma                 111.456001
_cell_volume                      3298.15081007

loop_
_atom_site_label
_atom_site_type_symbol
_atom_type_description
_atom_site_fract_x
_atom_site_fract_y
_atom_site_fract_z
_atom_type_partial_charge
C1    C     C_R   0.463067 0.258710 0.463294 0.799865
C2    C     C_R   0.530467 0.509340 0.112059 -0.159752
C3    C     C_R   0.612157 0.670721 0.131524 -0.244971
C4    C     C_R   0.536176 0.741879 0.535068 0.774034
C5    C     C_R   0.426871 0.428669 0.840813 -0.047811
C6    C     C_R   0.468932 0.057842 0.330113 -0.207188
C7    C     C_R   0.451228 0.163406 0.445566 0.003011
C8    C     C_R   0.543902 0.859877 0.645743 -0.195580
C9    C     C_R   0.530069 0.939917 0.677344 -0.150816
C10   C     C_R   0.510601 0.996093 0.623519 -0.186480
C11   C     C_R   0.509232 0.975526 0.534087 0.090381
C12   C     C_R   0.355299 0.310650 0.967511 -0.258362
C13   C     C_R   0.530718 0.897116 0.499775 0.097013
C14   C     C_R   0.487407 0.029948 0.477406 0.088466
C15   C     C_R   0.490752 0.006351 0.387223 0.183169
C16   C     C_R   0.756146 0.551839 0.463866 0.801799
C17   C     C_R   0.520699 0.934617 0.352882 -0.254377
C18   C     C_R   0.542132 0.881926 0.407600 -0.221013
C19   C     C_R   0.465669 0.108991 0.505679 -0.258236
C20   C     C_R   0.450434 0.136599 0.358821 -0.186475
C21   C     C_R   0.541480 0.836073 0.558259 -0.070991
C22   C     C_R   0.012026 0.695406 0.447477 -0.177626
C23   C     C_R   0.396022 0.375326 0.023397 0.469037
C24   C     C_R   0.858612 0.575785 0.452428 -0.022982
C25   C     C_R   0.072623 0.338478 0.584719 -0.237807
C26   C     C_R   0.974220 0.313413 0.596595 -0.256107
C27   C     C_R   0.938342 0.377234 0.573067 0.471224
C28   C     C_R   0.243008 0.450877 0.537821 0.807144
C29   C     C_R   0.004630 0.468331 0.533505 0.035569
C30   C     C_R   0.102175 0.496975 0.535556 -0.062423
C31   C     C_R   0.977257 0.533860 0.496141 0.037771
C32   C     C_R   0.042066 0.628779 0.475335 0.023508
C33   C     C_R   0.135041 0.656377 0.484909 0.459267
C34   C     C_R   0.459541 0.467747 0.985487 0.034163
C35   C     C_R   0.161133 0.592263 0.520229 -0.275776
C36   C     C_R   0.888800 0.508296 0.476096 -0.159397
C37   C     C_R   0.919783 0.669278 0.438931 -0.213313
C38   C     C_R   0.137842 0.429815 0.554627 -0.048817
C39   C     C_R   0.552315 0.552446 0.259188 0.798046
C40   C     C_R   0.448403 0.450727 0.742603 0.811745
C41   C     C_R   0.608865 0.696895 0.048111 -0.163942
C42   C     C_R   0.572497 0.577037 0.163603 -0.016183
C43   C     C_R   0.373235 0.336243 0.876999 -0.241188
C44   C     C_3   0.248568 0.760807 0.365909 0.040204
C45   C     C_R   0.463915 0.496229 0.897412 -0.047810
C46   C     C_3   0.326494 0.717612 0.336413 -0.321794
C47   C     C_3   0.381064 0.739702 0.234747 -0.933541
C48   C     C_3   0.666320 0.770071 0.801241 0.063320
C49   C     C_3   0.761029 0.769424 0.812445 -0.378094
C50   C     C_3   0.842229 0.793480 0.721393 -0.903931
C51   C     C_R   0.515269 0.534449 0.032765 0.027820
C52   C     C_R   0.559670 0.630044 0.998562 0.046759
C53   C     C_R   0.553216 0.658110 0.916410 0.457234
C54   C     C_R   0.502023 0.591710 0.869112 -0.288665
H1    H     H_    0.643188 0.723764 0.172436 0.135857
H2    H     H_    0.058251 0.768484 0.435623 0.171900
H3    H     H_    0.840814 0.436983 0.479618 0.197837
H4    H     H_    0.097519 0.285933 0.600439 0.181306
H5    H     H_    0.925325 0.243411 0.624882 0.142371
H6    H     H_    0.228925 0.619801 0.535555 0.202241
H7    H     H_    0.641357 0.770088 0.024568 0.182394
H8    H     H_    0.508467 0.438084 0.137042 0.196243
H9    H     H_    0.343549 0.283294 0.835400 0.180098
H10   H     H_    0.308695 0.239684 0.994417 0.141623
H11   H     H_    0.489323 0.616772 0.811661 0.175295
H12   H     H_    0.529148 0.919987 0.282645 0.150586
H13   H     H_    0.441011 0.179794 0.311489 0.141391
H14   H     H_    0.284824 0.837020 0.347342 0.178233
H15   H     H_    0.195768 0.734307 0.326971 0.131257
H16   H     H_    0.378793 0.744298 0.375363 0.256656
H17   H     H_    0.292041 0.640876 0.350591 0.235641
H18   H     H_    0.330370 0.707602 0.195018 0.268564
H19   H     H_    0.439422 0.711080 0.216409 0.288475
H20   H     H_    0.414617 0.815908 0.216440 0.248881
H21   H     H_    0.681014 0.840626 0.772582 0.166629
H22   H     H_    0.644190 0.721858 0.750401 0.159691
H23   H     H_    0.471041 0.039854 0.261529 0.134860
H24   H     H_    0.784206 0.820802 0.860479 0.225669
H25   H     H_    0.748795 0.699491 0.840779 0.223238
H26   H     H_    0.821067 0.741931 0.672824 0.277340
H27   H     H_    0.909627 0.792337 0.731511 0.268529
H28   H     H_    0.857672 0.863999 0.692113 0.256972
H29   H     H_    0.804236 0.288854 0.624325 0.330686
H30   H     H_    0.321542 0.285322 0.130117 0.328770
H31   H     H_    0.466817 0.134330 0.570995 0.129557
H32   H     H_    0.552117 0.814234 0.691528 0.153985
H33   H     H_    0.497278 0.055059 0.654097 0.131900
H34   H     H_    0.530875 0.956799 0.745510 0.150956
H35   H     H_    0.569025 0.829796 0.376027 0.164131
H36   H     H_    0.895272 0.722190 0.423289 0.135310
O1    O     O_3   0.500000 0.500000 0.500000 -0.475924
O2    O     O_R   0.588830 0.499590 0.285390 -0.643496
O3    O     O_R   0.395900 0.395880 0.699370 -0.645585
O4    O     O_R   0.493280 0.582590 0.315890 -0.638565
O5    O     O_R   0.521980 0.521940 0.699340 -0.649769
O6    O     O_3   0.202049 0.746878 0.461408 -0.641167
O7    O     O_3   0.591685 0.751862 0.886099 -0.660803
O8    O     O_3   0.838852 0.354030 0.596801 -0.807455
O9    O     O_3   0.366256 0.351438 0.115861 -0.809782
O10   O     O_R   0.708210 0.582550 0.530770 -0.634306
O11   O     O_R   0.270260 0.395900 0.573760 -0.644457
O12   O     O_R   0.537060 0.322180 0.411040 -0.629559
O13   O     O_R   0.484470 0.699370 0.484430 -0.654448
O14   O     O_R   0.404710 0.279110 0.530840 -0.643486
O15   O     O_R   0.573760 0.699350 0.573690 -0.659344
O16   O     O_R   0.714470 0.499570 0.411000 -0.639919
O17   O     O_R   0.307050 0.521980 0.484470 -0.655388
Zn1   Zn    Zn3+2 0.574690 0.574670 0.574650 0.954022
Zn2   Zn    Zn3+2 0.583640 0.456100 0.403530 0.983512
Zn3   Zn    Zn3+2 0.447120 0.574690 0.447120 0.946285
Zn4   Zn    Zn3+2 0.394550 0.394550 0.574700 0.975460

loop_
_geom_bond_atom_site_label_1
_geom_bond_atom_site_label_2
_ccdc_geom_bond_type
C23   O9    S    
C3    C42   A    
C27   C29   A    
C48   H22   S    
C20   H13   S    
C41   H7    S    
C40   O3    A    
C43   H9    S    
C27   O8    S    
C54   H11   S    
C53   C54   A    
C48   O7    S    
C12   C23   A    
C34   C51   A    
C24   C36   A    
C22   C32   A    
C37   H36   S    
O13   Zn3   S    
O1    Zn3   S    
C12   C43   A    
C31   C36   A    
C9    H34   S    
C12   H10   S    
C11   C14   A    
O2    Zn2   S    
C28   O17   A    
C4    O13   A    
C49   H24   S    
C30   C38   A    
O1    Zn4   S    
C6    C15   A    
C3    H1    S    
C28   O11   A    
C8    C9    A    
H29   O8    S    
C9    C10   A    
C41   C52   A    
C16   O16   A    
C5    C43   A    
C16   C24   S    
C18   H35   S    
C48   H21   S    
O1    Zn1   S    
C44   C46   S    
C24   C37   A    
C39   C42   S    
O15   Zn1   S    
C10   H33   S    
O10   Zn1   S    
C51   C52   A    
C47   H19   S    
C36   H3    S    
C10   C11   A    
C16   O10   A    
C6    H23   S    
C22   H2    S    
C53   O7    S    
C25   C26   A    
C22   C37   A    
C5    C45   A    
O4    Zn3   S    
C49   H25   S    
C50   H26   S    
C35   H6    S    
C39   O4    A    
C29   C30   A    
C44   O6    S    
C25   C38   A    
C31   C32   A    
C28   C38   S    
C23   C34   A    
C17   C18   A    
C26   C27   A    
C13   C21   A    
C44   H15   S    
C34   C45   A    
C1    O14   A    
C46   H17   S    
O5    Zn1   S    
O3    Zn4   S    
C13   C18   A    
C48   C49   S    
C45   C54   A    
C49   C50   S    
C7    C19   A    
O17   Zn3   S    
C44   H14   S    
C25   H4    S    
C40   O5    A    
C33   O6    S    
C39   O2    A    
C6    C20   A    
C52   C53   A    
C50   H28   S    
C26   H5    S    
C15   C17   A    
C46   C47   S    
C3    C41   A    
C1    C7    S    
H30   O9    S    
C14   C19   A    
C47   H20   S    
C19   H31   S    
C8    C21   A    
O14   Zn4   S    
O11   Zn4   S    
C30   C35   A    
C4    O15   A    
C32   C33   A    
O1    Zn2   S    
C29   C31   A    
C4    C21   S    
C11   C13   A    
C2    C42   A    
C33   C35   A    
C8    H32   S    
C17   H12   S    
C47   H18   S    
C46   H16   S    
C2    C51   A    
C7    C20   A    
C5    C40   S    
C14   C15   A    
O12   Zn2   S    
C1    O12   A    
C2    H8    S    
C50   H27   S    
O16   Zn2   S    
