data_mof_unit_33840.cif
_audit_creation_date              2012-12-10T17:32:21-0500
_audit_creation_method            fapswitch 2.2
_symmetry_space_group_name_H-M    P1
_symmetry_Int_Tables_number       1
_space_group_crystal_system       triclinic
_cell_length_a                    15.488254
_cell_length_b                    15.435516
_cell_length_c                    15.548655
_cell_angle_alpha                 92.501162
_cell_angle_beta                  71.511961
_cell_angle_gamma                 111.061233
_cell_volume                      3279.45392173

loop_
_atom_site_label
_atom_site_type_symbol
_atom_type_description
_atom_site_fract_x
_atom_site_fract_y
_atom_site_fract_z
_atom_type_partial_charge
C1    C     C_R   0.463501 0.257914 0.462534 0.891840
C2    C     C_R   0.536558 0.506267 0.109641 -0.240471
C3    C     C_R   0.616914 0.667924 0.130780 -0.249420
C4    C     C_R   0.534176 0.741577 0.536852 0.763823
C5    C     C_R   0.439727 0.423435 0.835660 -0.071429
C6    C     C_R   0.484424 0.060787 0.318847 0.405890
C7    C     C_R   0.451041 0.161623 0.439496 -0.203152
C8    C     C_R   0.536580 0.865985 0.649035 0.165684
C9    C     C_R   0.543888 0.957976 0.666458 -0.147192
C10   C     C_R   0.532503 0.013320 0.606167 -0.289857
C11   C     C_R   0.513778 0.978651 0.526331 0.140186
C12   C     C_R   0.428714 0.299545 0.933124 -0.230488
C13   C     C_R   0.533027 0.897400 0.496834 0.082207
C14   C     C_R   0.485323 0.027048 0.471018 -0.025333
C15   C     C_R   0.500153 0.006734 0.378587 -0.044961
C16   C     C_R   0.756601 0.551257 0.462636 0.800247
C17   C     C_R   0.532224 0.933848 0.346510 -0.177133
C18   C     C_R   0.547405 0.879516 0.404686 -0.207365
C19   C     C_R   0.442743 0.094977 0.503568 -0.004637
C20   C     C_R   0.470068 0.143646 0.347044 0.372469
C21   C     C_R   0.538694 0.837261 0.560051 -0.151748
C22   C     C_R   0.023333 0.623023 0.334218 0.200275
C23   C     C_R   0.480716 0.364612 0.981205 0.540654
C24   C     C_R   0.859850 0.569862 0.444009 -0.016411
C25   C     C_R   0.074524 0.389866 0.641594 -0.187843
C26   C     C_R   0.980844 0.391638 0.672411 -0.164803
C27   C     C_R   0.950315 0.436870 0.619049 -0.160039
C28   C     C_R   0.243349 0.448705 0.534773 0.782056
C29   C     C_R   0.011464 0.476996 0.530024 0.099373
C30   C     C_R   0.104836 0.470264 0.497420 0.015669
C31   C     C_R   0.983267 0.524125 0.473012 -0.022383
C32   C     C_R   0.050852 0.568590 0.385789 0.013969
C33   C     C_R   0.140606 0.553599 0.352164 0.494418
C34   C     C_R   0.498911 0.461232 0.967048 -0.038220
C35   C     C_R   0.162356 0.500008 0.406685 -0.306092
C36   C     C_R   0.888010 0.525434 0.499483 -0.228244
C37   C     C_R   0.926912 0.619872 0.363568 -0.256126
C38   C     C_R   0.138604 0.432066 0.555798 -0.044522
C39   C     C_R   0.551593 0.550832 0.258877 0.805665
C40   C     C_R   0.449296 0.450405 0.742250 0.796041
C41   C     C_R   0.617400 0.695728 0.046340 0.175527
C42   C     C_R   0.574049 0.574477 0.163098 -0.061155
C43   C     C_R   0.407862 0.328469 0.861373 -0.296592
C44   C     C_3   0.400273 0.984552 0.226039 -0.309733
C45   C     C_R   0.479928 0.490271 0.891644 0.036131
C46   C     C_3   0.376867 0.089263 0.601494 -0.372357
C47   C     C_3   0.271191 0.069361 0.606171 -0.805841
C48   C     C_3   0.521907 0.798436 0.725807 -0.359832
C49   C     C_3   0.477611 0.824055 0.821901 -0.951403
C50   C     C_3   0.299822 0.617816 0.251651 -0.286826
C51   C     C_3   0.092304 0.687570 0.249774 -0.329000
C52   C     C_3   0.168551 0.771630 0.272903 -0.863960
C53   C     C_3   0.661877 0.799203 0.017004 -0.430017
C54   C     C_3   0.757589 0.823341 0.938018 -0.852275
C55   C     C_3   0.617113 0.343529 0.983593 -0.358688
C56   C     C_R   0.538373 0.530211 0.022694 0.053083
C57   C     C_3   0.560109 0.247656 0.221868 -0.134025
C58   C     C_R   0.572677 0.626804 0.994136 0.136176
C59   C     C_R   0.554710 0.652342 0.918255 -0.258587
C60   C     C_R   0.503557 0.585715 0.872227 -0.170835
H1    H     H_    0.645523 0.719682 0.174111 0.129770
H2    H     H_    0.878972 0.440047 0.650649 0.124016
H3    H     H_    0.932810 0.361171 0.739912 0.139191
H4    H     H_    0.224481 0.479524 0.376409 0.175458
H5    H     H_    0.496902 0.436315 0.141378 0.200407
H6    H     H_    0.375805 0.276267 0.820226 0.182043
H7    H     H_    0.412007 0.226029 0.946433 0.168625
H8    H     H_    0.483042 0.610588 0.820712 0.162694
H9    H     H_    0.367680 0.918691 0.270641 0.156018
H10   H     H_    0.407358 0.965435 0.155208 0.187540
H11   H     H_    0.350596 0.024477 0.244332 0.195309
H12   H     H_    0.545709 0.918201 0.275932 0.183749
H13   H     H_    0.265356 0.124454 0.567460 0.276099
H14   H     H_    0.241936 0.001610 0.578094 0.249124
H15   H     H_    0.225241 0.065428 0.678182 0.236416
H16   H     H_    0.371936 0.030919 0.643944 0.214273
H17   H     H_    0.405103 0.154523 0.633582 0.205863
H18   H     H_    0.533544 0.881726 0.841962 0.257808
H19   H     H_    0.414490 0.844143 0.825774 0.272610
H20   H     H_    0.450316 0.763111 0.871537 0.253048
H21   H     H_    0.469379 0.728980 0.719661 0.205741
H22   H     H_    0.592631 0.791726 0.719697 0.222143
H23   H     H_    0.536794 0.083110 0.623382 0.148183
H24   H     H_    0.330918 0.562165 0.242493 0.186895
H25   H     H_    0.315261 0.659205 0.309224 0.164697
H26   H     H_    0.338162 0.665758 0.188942 0.186034
H27   H     H_    0.132081 0.815012 0.317685 0.250717
H28   H     H_    0.210287 0.750141 0.308308 0.268478
H29   H     H_    0.220497 0.814604 0.209377 0.236755
H30   H     H_    0.126405 0.650284 0.195112 0.249861
H31   H     H_    0.051529 0.715676 0.218343 0.173917
H32   H     H_    0.811235 0.804140 0.958583 0.261421
H33   H     H_    0.745904 0.786259 0.877557 0.260256
H34   H     H_    0.553008 0.986319 0.729194 0.160011
H35   H     H_    0.788590 0.899420 0.918869 0.248967
H36   H     H_    0.609342 0.822341 0.998897 0.198790
H37   H     H_    0.678291 0.840778 0.073971 0.207263
H38   H     H_    0.663486 0.418203 0.962858 0.175193
H39   H     H_    0.619475 0.302591 0.922683 0.168329
H40   H     H_    0.649307 0.317014 0.025905 0.178692
H41   H     H_    0.570835 0.204412 0.163408 0.198173
H42   H     H_    0.620799 0.262860 0.250905 0.126537
H43   H     H_    0.564608 0.315354 0.195681 0.198275
H44   H     H_    0.574546 0.825896 0.375108 0.159512
H45   H     H_    0.902667 0.655559 0.322798 0.126240
H46   H     H_    0.575423 0.724283 0.896005 0.168136
H47   H     H_    0.831141 0.486526 0.559707 0.126177
H48   H     H_    0.098555 0.359773 0.687049 0.158641
O1    O     O_3   0.500000 0.500000 0.500000 -0.472643
O2    O     O_R   0.588830 0.499590 0.285390 -0.643018
O3    O     O_R   0.395900 0.395880 0.699370 -0.644668
O4    O     O_R   0.493280 0.582590 0.315890 -0.656052
O5    O     O_R   0.521980 0.521940 0.699340 -0.647609
O6    O     O_3   0.493887 0.038610 0.230044 -0.616019
O7    O     O_3   0.198945 0.579258 0.261742 -0.626191
O8    O     O_3   0.520143 0.332443 0.035327 -0.628830
O9    O     O_3   0.466515 0.204707 0.286553 -0.603834
O10   O     O_R   0.708210 0.582550 0.530770 -0.634902
O11   O     O_R   0.270260 0.395900 0.573760 -0.644267
O12   O     O_R   0.537060 0.322180 0.411040 -0.636110
O13   O     O_R   0.484470 0.699370 0.484430 -0.636686
O14   O     O_R   0.404710 0.279110 0.530840 -0.648377
O15   O     O_R   0.573760 0.699350 0.573690 -0.653368
O16   O     O_R   0.714470 0.499570 0.411000 -0.643932
O17   O     O_R   0.307050 0.521980 0.484470 -0.642265
Zn1   Zn    Zn3+2 0.574690 0.574670 0.574650 0.952088
Zn2   Zn    Zn3+2 0.583640 0.456100 0.403530 0.969848
Zn3   Zn    Zn3+2 0.447120 0.574690 0.447120 0.947846
Zn4   Zn    Zn3+2 0.394550 0.394550 0.574700 0.962504

loop_
_geom_bond_atom_site_label_1
_geom_bond_atom_site_label_2
_ccdc_geom_bond_type
C45   C60   A    
C34   C56   A    
C27   C29   A    
C2    H5    S    
C46   H16   S    
O12   Zn2   S    
C50   H24   S    
C3    C42   A    
C53   C54   S    
C49   H18   S    
C37   H45   S    
C57   H42   S    
C12   C23   A    
C26   C27   A    
C24   C36   A    
C22   C32   A    
C13   C18   A    
C41   C58   A    
C12   C43   A    
C31   C36   A    
C51   H30   S    
C23   O8    S    
C11   C14   A    
C55   O8    S    
C10   H23   S    
C48   H21   S    
C30   C38   A    
C44   H11   S    
C50   O7    S    
C1    O14   A    
C6    O6    S    
C54   H33   S    
C50   H25   S    
C51   H31   S    
C6    C15   A    
O3    Zn4   S    
C39   O2    A    
C3    C41   A    
C40   O5    A    
C56   C58   A    
C8    C9    A    
C55   H40   S    
O17   Zn3   S    
C44   H10   S    
C35   H4    S    
C39   C42   S    
C9    C10   A    
O14   Zn4   S    
O2    Zn2   S    
C5    C43   A    
C44   O6    S    
C59   C60   A    
C16   C24   S    
C53   H36   S    
C52   H29   S    
C20   O9    S    
O1    Zn2   S    
C24   C37   A    
C40   O3    A    
C3    H1    S    
C57   H43   S    
C12   H7    S    
C19   C46   S    
C59   H46   S    
C33   O7    S    
C51   C52   S    
C52   H28   S    
C47   H13   S    
O13   Zn3   S    
O15   Zn1   S    
O5    Zn1   S    
C53   H37   S    
C58   C59   A    
C22   C37   A    
C5    C45   A    
C49   H19   S    
C4    O15   A    
C1    O12   A    
C26   H3    S    
C8    C48   S    
C54   H32   S    
C29   C30   A    
C27   H2    S    
C16   O10   A    
C25   C38   A    
O1    Zn3   S    
C31   C32   A    
C28   C38   S    
C23   C34   A    
C17   C18   A    
C13   C21   A    
C44   H9    S    
C34   C45   A    
C18   H44   S    
C41   C53   S    
C54   H35   S    
O16   Zn2   S    
C30   C35   A    
C39   O4    A    
C7    C19   A    
O1    Zn4   S    
C57   H41   S    
C28   O17   A    
C57   O9    S    
C15   C17   A    
C46   C47   S    
C48   C49   S    
C1    C7    S    
C14   C19   A    
C52   H27   S    
C47   H14   S    
C28   O11   A    
C8    C21   A    
C46   H17   S    
C6    C20   A    
C49   H20   S    
C32   C33   A    
C25   C26   A    
C47   H15   S    
C29   C31   A    
C2    C56   A    
C4    C21   S    
C11   C13   A    
C33   C35   A    
C2    C42   A    
C43   H6    S    
C55   H38   S    
O11   Zn4   S    
C48   H22   S    
C4    O13   A    
C16   O16   A    
O4    Zn3   S    
C10   C11   A    
C50   H26   S    
O1    Zn1   S    
C60   H8    S    
C17   H12   S    
C7    C20   A    
C5    C40   S    
C55   H39   S    
C14   C15   A    
O10   Zn1   S    
C9    H34   S    
C25   H48   S    
C22   C51   S    
C36   H47   S    
