data_mof_unit_33474.cif
_audit_creation_date              2012-12-11T16:04:56-0500
_audit_creation_method            fapswitch 2.2
_symmetry_space_group_name_H-M    P1
_symmetry_Int_Tables_number       1
_space_group_crystal_system       triclinic
_cell_length_a                    10.63621
_cell_length_b                    10.646954
_cell_length_c                    16.877991
_cell_angle_alpha                 99.028967
_cell_angle_beta                  98.858054
_cell_angle_gamma                 61.547504
_cell_volume                      1652.71119942

loop_
_atom_site_label
_atom_site_type_symbol
_atom_type_description
_atom_site_fract_x
_atom_site_fract_y
_atom_site_fract_z
_atom_type_partial_charge
C1    C     C_R   0.384280 0.703438 0.386867 0.553135
C2    C     C_3   0.741414 0.399563 0.257931 -0.123065
C3    C     C_3   0.848131 0.332318 0.329852 -0.008070
C4    C     C_3   0.917803 0.187369 0.280007 -0.106467
C5    C     C_3   0.024512 0.233237 0.255964 -0.201165
C6    C     C_3   0.953010 0.379034 0.307578 -0.096684
C7    C     C_3   0.847143 0.444417 0.235092 0.397507
C8    C     C_3   0.917807 0.301308 0.184015 0.045537
C9    C     C_3   0.463238 0.680604 0.188411 -0.134096
C10   C     C_3   0.357255 0.652550 0.228147 -0.159667
C11   C     C_3   0.379700 0.737681 0.305959 -0.012520
C12   C     C_R   0.366996 0.343220 0.360051 0.527812
C13   C     C_3   0.488272 0.763001 0.268848 -0.079245
C14   C     C_3   0.363140 0.904057 0.240951 -0.159261
C15   C     C_3   0.255744 0.877825 0.279242 -0.106684
C16   C     C_3   0.233007 0.793090 0.201417 0.245003
C17   C     C_3   0.338009 0.820922 0.162303 0.033871
C18   C     C_3   0.449539 0.223219 0.764171 0.276302
C19   C     C_3   0.432356 0.358642 0.733467 -0.138961
C20   C     C_3   0.333118 0.336751 0.661985 0.003290
C21   C     C_3   0.351492 0.201099 0.692747 -0.150786
C22   C     C_3   0.218637 0.296666 0.740895 -0.148678
C23   C     C_R   0.785596 0.371954 0.405803 0.556003
C24   C     C_3   0.202999 0.431965 0.709348 0.272899
C25   C     C_3   0.300477 0.453670 0.781725 -0.156667
C26   C     C_3   0.319478 0.317308 0.812158 -0.013884
C27   C     C_1   0.772584 0.366416 0.715199 0.002966
C28   C     C_1   0.816400 0.328467 0.781777 0.012245
C29   C     C_1   0.338486 0.812222 0.709787 -0.004814
C30   C     C_1   0.313605 0.838508 0.778639 -0.001946
C31   C     C_R   0.958396 0.285256 0.102890 0.526543
C32   C     C_R   0.291961 0.262414 0.122692 0.519606
C33   C     C_R   0.296353 0.886490 0.086889 0.533577
C34   C     C_R   0.356294 0.772538 0.627074 0.541516
C35   C     C_R   0.879538 0.301798 0.862036 0.565949
C36   C     C_R   0.307732 0.292108 0.891113 0.568689
C37   C     C_R   0.280632 0.883579 0.859244 0.535682
C38   C     C_R   0.366147 0.346184 0.584661 0.553880
C39   C     C_R   0.720260 0.409811 0.635787 0.543155
C40   C     C_1   0.326325 0.317288 0.278013 -0.064361
C41   C     C_1   0.306182 0.293701 0.207048 -0.062279
C42   C     C_3   0.812440 0.255085 0.206728 -0.104632
Cr1   Cr    Cr6+3 0.608340 0.611040 0.520430 1.090564
Cr2   Cr    Cr6+3 0.287650 0.601120 0.489350 1.096316
Cr3   Cr    Cr6+3 0.604040 0.287870 0.490280 1.072634
Cr4   Cr    Cr6+3 0.054020 0.052700 0.970850 1.143595
Cr5   Cr    Cr6+3 0.059230 0.375120 0.993390 1.143895
Cr6   Cr    Cr6+3 0.374950 0.061200 0.992340 1.118286
H1    H     H_    0.625516 0.459350 0.264528 0.102484
H2    H     H_    0.372126 0.004474 0.245156 0.126913
H3    H     H_    0.176238 0.956446 0.320288 0.138913
H4    H     H_    0.519454 0.385222 0.729244 0.117360
H5    H     H_    0.371917 0.098655 0.655521 0.149401
H6    H     H_    0.129169 0.273088 0.745782 0.140862
H7    H     H_    0.280247 0.555937 0.819080 0.153089
H8    H     H_    0.752116 0.207926 0.164152 0.192475
H9    H     H_    0.939155 0.084839 0.300917 0.179294
H10   H     H_    0.141058 0.168627 0.252912 0.094135
H11   H     H_    0.010186 0.429531 0.350251 0.151396
H12   H     H_    0.355341 0.548539 0.224248 0.120507
H13   H     H_    0.545516 0.602375 0.148196 0.177251
H14   H     H_    0.593327 0.750132 0.299338 0.205570
O1    O     O_R   0.751220 0.499230 0.435170 -0.493101
O2    O     O_R   0.297880 0.469080 0.560050 -0.458558
O3    O     O_R   0.489720 0.254590 0.564810 -0.495999
O4    O     O_R   0.725220 0.304230 0.585080 -0.477510
O5    O     O_3   0.500010 0.500010 0.500020 -0.328210
O6    O     O_R   0.171830 0.913880 0.057510 -0.454408
O7    O     O_R   0.940690 0.186050 0.054730 -0.467724
O8    O     O_R   0.920470 0.405720 0.075010 -0.436272
O9    O     O_R   0.196690 0.370460 0.084120 -0.466521
O10   O     O_R   0.412990 0.180750 0.091610 -0.478373
O11   O     O_R   0.366620 0.943130 0.065760 -0.512847
O12   O     O_R   0.477220 0.727600 0.436870 -0.497161
O13   O     O_R   0.160510 0.906330 0.879210 -0.491289
O14   O     O_R   0.930190 0.179050 0.889450 -0.456267
O15   O     O_R   0.909140 0.398170 0.896710 -0.486404
O16   O     O_R   0.186190 0.363460 0.918830 -0.483821
O17   O     O_R   0.401670 0.173200 0.913310 -0.438793
O18   O     O_R   0.356120 0.936130 0.900470 -0.477247
O19   O     O_3   0.162740 0.163010 0.985530 -0.353075
O20   O     O_R   0.258650 0.745120 0.411470 -0.494213
O21   O     O_R   0.297070 0.467240 0.395960 -0.517840
O22   O     O_R   0.488830 0.252610 0.387790 -0.494086
O23   O     O_R   0.724400 0.302390 0.420980 -0.495672
O24   O     O_R   0.752100 0.501210 0.612190 -0.433769
O25   O     O_R   0.478040 0.729440 0.600970 -0.506784
O26   O     O_R   0.259530 0.747110 0.588490 -0.457785
S1    S     S_3+6 0.066139 0.793809 0.163074 0.056381
O27   O     O_2   0.955809 0.940961 0.142329 -0.247651
O28   O     O_2   0.087571 0.690318 0.088653 -0.243436
O29   O     O_3   0.006927 0.744150 0.233359 -0.456462
H15   H     H_    0.076494 0.641944 0.238419 0.351230
S2    S     S_3+6 0.621500 0.084217 0.795803 0.038139
O30   O     O_2   0.676541 0.134131 0.875331 -0.263327
O31   O     O_2   0.608567 0.952514 0.804288 -0.264798
O32   O     O_3   0.735656 0.045553 0.726398 -0.512537
H16   H     H_    0.830547 0.976721 0.750319 0.386978
S3    S     S_3+6 0.038204 0.573300 0.672589 0.045340
O33   O     O_2   0.058060 0.703353 0.670751 -0.274001
O34   O     O_2   0.993964 0.526707 0.588985 -0.261329
O35   O     O_3   0.911791 0.613050 0.734388 -0.492745
H17   H     H_    0.827581 0.700181 0.715175 0.391944
F1    F     F_    0.810452 0.577145 0.211460 -0.596171

loop_
_geom_bond_atom_site_label_1
_geom_bond_atom_site_label_2
_ccdc_geom_bond_type
C18   C21   S    
C3    C23   S    
C19   C20   S    
C1    C11   S    
C3    C6    S    
Cr4   O14   S    
O32   H16   S    
Cr1   O1    S    
C7    C8    S    
C22   H6    S    
Cr2   O2    S    
C5    H10   S    
C9    H13   S    
C1    O12   A    
Cr6   O17   S    
C8    C42   S    
Cr2   O20   S    
C5    C6    S    
C15   C16   S    
C24   S3    S    
C26   C36   S    
Cr6   O19   S    
C12   O22   A    
C18   C19   S    
C9    C13   S    
Cr4   O7    S    
C2    C7    S    
C42   H8    S    
C11   C15   S    
C19   H4    S    
C31   O8    A    
C13   H14   S    
C20   C24   S    
C28   C35   S    
C27   C39   S    
C16   C17   S    
C18   C26   S    
C4    H9    S    
Cr3   O5    S    
C32   C41   S    
C15   H3    S    
S1    O28   D    
C9    C10   S    
Cr2   O21   S    
Cr1   O12   S    
C23   O1    A    
C37   O13   A    
C16   S1    S    
C13   C14   S    
C8    C31   S    
C14   C17   S    
O35   H17   S    
C17   C33   S    
Cr6   O10   S    
Cr6   O11   S    
Cr4   O13   S    
C32   O9    A    
C38   O2    A    
C37   O18   A    
C35   O14   A    
C24   C25   S    
C32   O10   A    
S2    O32   S    
C1    O20   A    
C29   C34   S    
C35   O15   A    
C12   O21   A    
C12   C40   S    
Cr3   O23   S    
Cr5   O8    S    
Cr4   O6    S    
C29   C30   T    
C2    H1    S    
Cr4   O19   S    
C20   C38   S    
S3    O33   D    
C38   O3    A    
C34   O26   A    
S1    O29   S    
S2    O31   D    
Cr5   O9    S    
C33   O11   A    
C40   C41   T    
S3    O34   D    
C7    F1    S    
Cr3   O3    S    
C18   S2    S    
C39   O4    A    
C22   C24   S    
Cr3   O22   S    
Cr5   O15   S    
C3    C4    S    
Cr3   O4    S    
C9    C17   S    
C10   H12   S    
Cr1   O24   S    
C6    H11   S    
C25   H7    S    
C4    C5    S    
C36   O17   A    
C5    C8    S    
C6    C7    S    
C39   O24   A    
Cr1   O25   S    
Cr6   O18   S    
C2    C3    S    
C25   C26   S    
C23   O23   A    
C36   O16   A    
C21   H5    S    
C11   C13   S    
C14   H2    S    
C4    C42   S    
C2    C42   S    
O29   H15   S    
Cr2   O26   S    
C34   O25   A    
Cr5   O19   S    
S2    O30   D    
C19   C25   S    
C10   C11   S    
C31   O7    A    
S3    O35   S    
C20   C21   S    
C30   C37   S    
Cr1   O5    S    
C22   C26   S    
C27   C28   T    
C14   C15   S    
Cr2   O5    S    
C10   C16   S    
Cr5   O16   S    
S1    O27   D    
C21   C22   S    
C33   O6    A    
