data_mof_unit_67399.cif
_audit_creation_date              2012-12-11T19:54:14-0500
_audit_creation_method            fapswitch 2.2
_symmetry_space_group_name_H-M    P1
_symmetry_Int_Tables_number       1
_space_group_crystal_system       triclinic
_cell_length_a                    8.816085
_cell_length_b                    16.220649
_cell_length_c                    17.208136
_cell_angle_alpha                 109.453186
_cell_angle_beta                  83.237443
_cell_angle_gamma                 95.544633
_cell_volume                      2299.85313967

loop_
_atom_site_label
_atom_site_type_symbol
_atom_type_description
_atom_site_fract_x
_atom_site_fract_y
_atom_site_fract_z
_atom_type_partial_charge
Ba1   Ba    Ba6+2 0.325860 0.460280 0.530510 1.832378
Ba2   Ba    Ba6+2 0.863950 0.539650 0.469460 1.858432
C1    C     C_3   0.926224 0.180080 0.741159 -0.160019
C2    C     C_3   0.844052 0.476780 0.772649 0.034949
C3    C     C_2   0.770949 0.460960 0.849756 -0.174362
C4    C     C_3   0.533462 0.238114 0.707496 0.276396
C5    C     C_2   0.625667 0.483815 0.876397 -0.009453
C6    C     C_2   0.537834 0.515564 0.823490 -0.017664
C7    C     C_1   0.601658 0.516555 0.749895 0.137263
C8    C     C_R   0.411105 0.535795 0.140624 -0.024298
C9    C     C_R   0.354656 0.537667 0.221251 -0.034099
C10   C     C_R   0.571853 0.459890 0.230787 -0.003056
C11   C     C_R   0.632350 0.458146 0.149003 -0.164775
C12   C     C_3   0.911835 0.267639 0.728660 0.289254
C13   C     C_R   0.555334 0.501803 0.106638 -0.103953
C14   C     C_2   0.555756 0.477262 0.956650 -0.079114
C15   C     C_2   0.625531 0.512654 0.026786 0.045816
C16   C     C_3   0.470085 0.229963 0.792754 -0.185290
C17   C     C_R   0.434039 0.498431 0.262846 -0.123773
C18   C     C_2   0.388129 0.765631 0.516547 -0.309989
C19   C     C_R   0.814064 0.253368 0.486305 -0.271589
C20   C     C_2   0.201362 0.878508 0.569595 -0.097545
C21   C     C_2   0.233766 0.794855 0.557068 -0.021993
C22   C     C_2   0.502426 0.819655 0.495415 -0.006645
C23   C     C_3   0.042003 0.739965 0.774607 0.093678
C24   C     C_3   0.473369 0.918760 0.522444 -0.045492
C25   C     C_3   0.303795 0.934186 0.529011 0.218085
C26   C     C_2   0.567915 0.987699 0.490393 -0.052611
C27   C     C_2   0.662277 0.046762 0.541720 -0.118711
C28   C     C_3   0.611182 0.229420 0.226777 0.043482
C29   C     C_R   0.913543 0.100263 0.496606 0.154049
C30   C     C_R   0.759871 0.118185 0.520598 -0.007185
C31   C     C_R   0.015576 0.154790 0.464919 -0.117569
C32   C     C_R   0.966790 0.230076 0.456008 0.054410
C33   C     C_R   0.708039 0.198563 0.519191 -0.041294
C34   C     C_3   0.967140 0.825229 0.836002 -0.316089
C35   C     C_3   0.592359 0.243494 0.144101 -0.344655
C36   C     C_3   0.593909 0.753221 0.706185 0.262951
C37   C     C_3   0.521602 0.841567 0.750149 -0.235958
C38   C     C_3   0.072296 0.267479 0.233667 0.252635
C39   C     C_3   0.043079 0.192178 0.150791 -0.202197
C40   C     C_2   0.560601 0.905157 0.704431 0.793461
C41   C     C_2   0.558083 0.883248 0.839210 0.987605
C42   C     C_2   0.199969 0.326734 0.216618 0.782922
C43   C     C_2   0.179041 0.157545 0.089660 0.953373
C44   C     C_2   0.928137 0.665886 0.742313 0.661531
C45   C     C_3   0.727712 0.768689 0.285213 0.163027
C46   C     C_2   0.144434 0.707371 0.822673 0.946899
C47   C     C_2   0.898084 0.815706 0.917929 0.840196
C48   C     C_2   0.077672 0.906420 0.853877 0.981948
C49   C     C_2   0.919404 0.187926 0.830815 0.942266
C50   C     C_2   0.798665 0.683175 0.241413 0.868093
C51   C     C_2   0.839957 0.916131 0.254615 0.934078
C52   C     C_2   0.600116 0.845759 0.195908 0.933706
C53   C     C_2   0.328929 0.753270 0.279910 0.687883
C54   C     C_2   0.085466 0.794172 0.352509 0.877981
C55   C     C_2   0.763653 0.571477 0.026211 0.953713
C56   C     C_3   0.744391 0.830760 0.227499 -0.281205
C57   C     C_2   0.313847 0.562281 0.089373 0.915525
C58   C     C_2   0.763069 0.405014 0.102750 0.904622
C59   C     C_2   0.062091 0.919699 0.616526 0.973217
C60   C     C_2   0.408758 0.672236 0.489687 0.866389
C61   C     C_2   0.524532 0.007589 0.417476 0.930814
C62   C     C_2   0.363366 0.298619 0.842922 0.883209
C63   C     C_2   0.392882 0.142298 0.788565 0.937332
C64   C     C_2   0.710203 0.152056 0.208025 0.820071
C65   C     C_2   0.467069 0.194534 0.263679 0.962187
C66   C     C_3   0.166026 0.747433 0.269262 0.204013
C67   C     C_3   0.155060 0.797198 0.208299 -0.233444
C68   C     C_2   0.722943 0.470370 0.715515 -0.238764
H1    H     H_    0.562249 0.727581 0.642633 0.007423
H2    H     H_    0.522245 0.298174 0.151384 0.097123
H3    H     H_    0.706079 0.251670 0.112186 0.115378
H4    H     H_    0.534446 0.184863 0.101403 0.165621
H5    H     H_    0.719902 0.762841 0.703516 0.063060
H6    H     H_    0.396039 0.829204 0.750701 0.126321
H7    H     H_    0.484722 0.001696 0.674700 0.311587
H8    H     H_    0.666441 0.981432 0.924360 0.338377
H9    H     H_    0.304606 0.373159 0.128089 0.313494
H10   H     H_    0.967798 0.303520 0.257946 0.036952
H11   H     H_    0.991175 0.134223 0.165749 0.187656
H12   H     H_    0.034325 0.151593 0.707969 0.152907
H13   H     H_    0.335894 0.173674 0.999891 0.348062
H14   H     H_    0.808702 0.296865 0.766869 -0.082421
H15   H     H_    0.829091 0.135266 0.714276 0.007170
H16   H     H_    0.890006 0.559577 0.644023 0.289714
H17   H     H_    0.973715 0.644494 0.877447 0.285447
H18   H     H_    0.872656 0.837982 0.805332 0.067103
H19   H     H_    0.710078 0.788309 0.985034 0.389306
H20   H     H_    0.936698 0.980606 0.824000 0.342963
H21   H     H_    0.803408 0.157760 0.927022 0.328266
H22   H     H_    0.827829 0.563311 0.240018 0.341222
H23   H     H_    0.961472 0.213199 0.117681 0.059861
H24   H     H_    0.613105 0.743894 0.294430 0.020002
H25   H     H_    0.956368 0.005275 0.339981 0.342175
H26   H     H_    0.807322 0.796230 0.167910 0.111139
H27   H     H_    0.469155 0.812533 0.100152 0.350125
H28   H     H_    0.476999 0.844325 0.347000 0.304438
H29   H     H_    0.037784 0.909590 0.439497 0.352465
H30   H     H_    0.203921 0.865907 0.231361 0.166659
H31   H     H_    0.582015 0.306301 0.717492 -0.015707
H32   H     H_    0.992891 0.585978 0.016425 0.358301
H33   H     H_    0.424829 0.539431 0.846334 0.120965
H34   H     H_    0.570486 0.239731 0.829100 0.030264
H35   H     H_    0.293038 0.635852 0.017435 0.327196
H36   H     H_    0.443442 0.445231 0.959184 0.113576
H37   H     H_    0.858695 0.329864 0.992913 0.353912
H38   H     H_    0.722048 0.419502 0.655712 0.006328
H39   H     H_    0.910354 0.008606 0.630760 0.329226
H40   H     H_    0.626121 0.192578 0.682623 -0.086645
H41   H     H_    0.130401 0.134827 0.442772 0.166183
H42   H     H_    0.409056 0.664037 0.371786 0.222669
H43   H     H_    0.775630 0.312650 0.481338 0.053783
H44   H     H_    0.590009 0.053157 0.323029 0.379660
H45   H     H_    0.215654 0.763864 0.147120 0.167389
H46   H     H_    0.684389 0.035616 0.597677 0.094663
H47   H     H_    0.255562 0.405172 0.854933 0.337537
H48   H     H_    0.365049 0.046191 0.840184 0.370918
H49   H     H_    0.792432 0.192682 0.321212 0.263649
H50   H     H_    0.550053 0.218979 0.374194 0.267790
H51   H     H_    0.037124 0.798864 0.197195 0.101346
H52   H     H_    0.836995 0.435237 0.884928 0.142663
H53   H     H_    0.378536 0.490087 0.319199 0.140103
H54   H     H_    0.898594 0.254795 0.662054 -0.048610
O1    O     O_2   0.351410 0.559500 0.703710 -0.416111
O2    O     O_2   0.799731 0.811763 0.514263 -0.420552
O3    O     O_3   0.781922 0.809767 0.364673 -0.582869
O4    O     O_3   0.622300 0.553110 0.604480 -0.498733
O5    O     O_3   0.040530 0.390860 0.438530 -0.509012
O6    O     O_2   0.927940 0.718960 0.581060 -0.456636
O7    O     O_3   0.132623 0.764644 0.710344 -0.645200
O8    O     O_2   0.057470 0.502361 0.230310 -0.370021
O9    O     O_3   0.105142 0.660092 0.233561 -0.578512
O10   O     O_3   0.077860 0.395310 0.623380 -0.458018
O11   O     O_2   0.156619 0.479602 0.771941 -0.414917
O12   O     O_3   0.111230 0.229767 0.290665 -0.580726
O13   O     O_3   0.541956 0.697659 0.752278 -0.520428
O14   O     O_3   0.041387 0.323642 0.752688 -0.537294
O15   O     O_2   0.261760 0.281010 0.418880 -0.398185
O16   O     O_3   0.488390 0.347430 0.574410 -0.468952
O17   O     O_2   0.392130 0.186611 0.495838 -0.422408
O18   O     O_2   0.692943 0.920808 0.681208 -0.576461
O19   O     O_R   0.443633 0.951193 0.694368 -0.754271
O20   O     O_2   0.497986 0.852073 0.891698 -0.443040
O21   O     O_R   0.653369 0.959812 0.862916 -0.734717
O22   O     O_2   0.311614 0.339671 0.255178 -0.706314
O23   O     O_3   0.422791 0.216839 0.650320 -0.538641
O24   O     O_R   0.198246 0.358142 0.150471 -0.666214
O25   O     O_2   0.220751 0.084749 0.080149 -0.493379
O26   O     O_R   0.248203 0.204582 0.038786 -0.684327
O27   O     O_2   0.802566 0.666087 0.779365 -0.649625
O28   O     O_R   0.974532 0.590820 0.679622 -0.728985
O29   O     O_2   0.279008 0.730241 0.822175 -0.486316
O30   O     O_R   0.088519 0.656058 0.872597 -0.720337
O31   O     O_2   0.978005 0.827096 0.974642 -0.516680
O32   O     O_R   0.742483 0.792946 0.928308 -0.657926
O33   O     O_2   0.198111 0.906184 0.882131 -0.509007
O34   O     O_2   0.838300 0.440470 0.296230 -0.423584
O35   O     O_R   0.042371 0.983491 0.842301 -0.686311
O36   O     O_2   0.023543 0.227104 0.871984 -0.529411
O37   O     O_R   0.794703 0.148828 0.866487 -0.703105
O38   O     O_2   0.865010 0.667778 0.172560 -0.594358
O39   O     O_R   0.780984 0.618141 0.277500 -0.719442
O40   O     O_2   0.883593 0.953246 0.203837 -0.510983
O41   O     O_R   0.881600 0.952720 0.334838 -0.681820
O42   O     O_2   0.520657 0.905893 0.235786 -0.596553
O43   O     O_R   0.562858 0.793522 0.117034 -0.656851
O44   O     O_2   0.415963 0.714567 0.221982 -0.645066
O45   O     O_3   0.567380 0.446810 0.395500 -0.430453
O46   O     O_R   0.380140 0.809038 0.353870 -0.806816
O47   O     O_2   0.029896 0.753356 0.397817 -0.560738
O48   O     O_R   0.094642 0.885614 0.382802 -0.697918
O49   O     O_2   0.751622 0.643893 0.021088 -0.540754
O50   O     O_R   0.907876 0.541948 0.024355 -0.688183
O51   O     O_2   0.188246 0.524650 0.075587 -0.525574
O52   O     O_R   0.368425 0.626205 0.053287 -0.704751
O53   O     O_2   0.866371 0.393593 0.138340 -0.537519
O54   O     O_R   0.764019 0.363552 0.017274 -0.756803
O55   O     O_2   0.995341 0.896451 0.672568 -0.576903
O56   O     O_3   0.111820 0.604620 0.376600 -0.434811
O57   O     O_R   0.009509 0.988322 0.597478 -0.775940
O58   O     O_2   0.434668 0.636234 0.537816 -0.564246
O59   O     O_R   0.411203 0.625565 0.407108 -0.758390
O60   O     O_2   0.392240 0.994862 0.399459 -0.526680
O61   O     O_R   0.633078 0.045048 0.371601 -0.723827
O62   O     O_2   0.314159 0.300052 0.912896 -0.525403
O63   O     O_R   0.322309 0.361391 0.811886 -0.719330
O64   O     O_2   0.285294 0.112699 0.746554 -0.566531
O65   O     O_R   0.436669 0.098668 0.839278 -0.691389
O66   O     O_2   0.708760 0.093111 0.141446 -0.540736
O67   O     O_3   0.679848 0.302167 0.288080 -0.682930
O68   O     O_R   0.792225 0.141253 0.268530 -0.704549
O69   O     O_2   0.364173 0.158533 0.220705 -0.528953
O70   O     O_R   0.463267 0.185127 0.341268 -0.679418
O71   O     O_3   0.149150 0.609060 0.561440 -0.398578
O72   O     O_3   0.701290 0.652490 0.425560 -0.379428
P1    P     P_3+3 0.533580 0.585010 0.696460 1.143107
P2    P     P_3+3 0.097450 0.292710 0.397510 1.068940
P3    P     P_3+3 0.507431 0.235907 0.559225 1.001159
P4    P     P_3+3 0.656110 0.414920 0.303520 1.070525
P5    P     P_3+3 0.691216 0.769817 0.445343 1.057742
P6    P     P_3+3 0.024415 0.418887 0.728832 1.055646
P7    P     P_3+3 0.102163 0.720648 0.602473 1.076955
P8    P     P_3+3 0.166000 0.580616 0.270037 1.071964

loop_
_geom_bond_atom_site_label_1
_geom_bond_atom_site_label_2
_ccdc_geom_bond_type
C44   O28   S    
C35   H4    S    
C1    H15   S    
C26   C61   S    
C47   O32   S    
O23   P3    S    
Ba1   P2    S    
Ba1   O4    S    
C12   H14   S    
C52   O43   S    
C46   O29   D    
C2    C68   S    
C53   C66   S    
O15   P2    D    
C33   P3    S    
C5    C6    S    
C11   C58   S    
C34   H18   S    
C16   C63   S    
C38   O12   S    
C9    C17   A    
C24   C25   S    
C63   O65   S    
H44   O61   S    
Ba2   P4    S    
C66   O9    S    
Ba1   O71   S    
O16   P3    S    
Ba1   O1    S    
Ba1   Ba2   S    
C27   C30   S    
Ba1   O5    S    
C8    C13   A    
C36   C37   S    
H48   O65   S    
O71   P7    S    
C58   O54   S    
C49   O36   D    
Ba2   O5    S    
C43   O26   S    
C4    H31   S    
H20   O35   S    
C56   H26   S    
O4    P1    S    
C46   O30   S    
H8    O21   S    
Ba2   O6    S    
C60   O59   S    
C45   H24   S    
C39   H23   S    
O11   P6    D    
C18   C22   D    
C66   C67   S    
C61   O61   S    
H35   O52   S    
C64   O68   S    
C40   O18   D    
C42   O22   D    
C38   H10   S    
C49   O37   S    
C31   H41   S    
C37   C40   S    
C65   O70   S    
O7    P7    S    
C53   O46   S    
O12   P2    S    
C28   C65   S    
Ba1   O15   S    
C14   H36   S    
H13   O26   S    
O9    P8    S    
C44   O27   D    
C63   O64   D    
O1    P1    D    
O2    P5    D    
C54   O48   S    
C59   O57   S    
C4    H40   S    
C41   O20   D    
Ba2   O56   S    
C53   O44   D    
C52   O42   D    
H25   O41   S    
Ba2   O45   S    
C7    P1    S    
O10   P6    S    
H42   O59   S    
C36   H5    S    
C48   O33   D    
C4    C16   S    
Ba1   P1    S    
C22   P5    S    
O8    P8    D    
C12   H54   S    
C30   C33   A    
C12   O14   S    
H49   O68   S    
C43   O25   D    
C19   H43   S    
C57   O52   S    
H47   O63   S    
C3    C5    D    
C1    C49   S    
C6    C7    D    
H19   O32   S    
C37   C41   S    
C19   C32   A    
C50   O39   S    
C67   H45   S    
C58   O53   D    
H27   O43   S    
C17   H53   S    
C3    H52   S    
H50   O70   S    
C28   C35   S    
C21   P7    S    
H29   O48   S    
C45   C50   S    
H7    O19   S    
C41   O21   S    
H16   O28   S    
C60   O58   D    
C32   P2    S    
C2    P6    S    
C29   C30   A    
C18   C21   S    
C67   H51   S    
Ba2   O34   S    
C39   H11   S    
C1    H12   S    
C29   C31   A    
C31   C32   A    
C10   P4    S    
H17   O30   S    
C16   H34   S    
C37   H6    S    
C7    C68   D    
O3    P5    S    
C23   C46   S    
C28   O67   S    
C28   C64   S    
Ba1   O16   S    
O45   P4    S    
C55   O49   D    
H22   O39   S    
C51   O41   S    
C38   C39   S    
C27   H46   S    
O13   P1    S    
C59   O55   D    
C20   C25   S    
C11   C13   A    
H37   O54   S    
Ba1   O10   S    
C23   O7    S    
C34   C48   S    
C52   C56   S    
H39   O57   S    
O34   P4    D    
C13   C15   S    
C35   H3    S    
C36   H1    S    
C26   C27   D    
C61   O60   D    
C24   C26   S    
C47   O31   D    
C5    C14   S    
O5    P2    S    
C22   C24   S    
C2    C3    S    
O56   P8    S    
C51   C56   S    
C51   O40   D    
C45   O3    S    
H9    O24   S    
Ba2   O71   S    
C1    C12   S    
C48   O35   S    
H32   O50   S    
C57   O51   D    
C19   C33   A    
O67   P4    S    
C54   O47   D    
C54   C66   S    
C45   C56   S    
C4    O23   S    
O14   P6    S    
C16   C62   S    
C14   C15   D    
C64   O66   D    
C10   C17   A    
Ba1   O45   S    
C42   O24   S    
C36   O13   S    
C8    C57   S    
Ba2   O72   S    
C9    P8    S    
C18   C60   S    
C6    H33   S    
C62   O63   S    
C8    C9    A    
O6    P7    D    
C23   C34   S    
C55   O50   S    
H28   O46   S    
C67   H30   S    
C38   C42   S    
C10   C11   A    
C35   H2    S    
C50   O38   D    
C40   O19   S    
C39   C43   S    
C20   C21   D    
H21   O37   S    
C68   H38   S    
O17   P3    D    
O72   P5    S    
C65   O69   D    
C23   C44   S    
C62   O62   D    
C34   C47   S    
C15   C55   S    
C20   C59   S    
Ba2   O4    S    
