data_mof_unit_27557.cif
_audit_creation_date              2013-03-05T16:33:15-0500
_audit_creation_method            fapswitch 2.2
_symmetry_space_group_name_H-M    P1
_symmetry_Int_Tables_number       1
_space_group_crystal_system       triclinic
_cell_length_a                    27.741303
_cell_length_b                    10.927288
_cell_length_c                    9.526249
_cell_angle_alpha                 90.207013
_cell_angle_beta                  90.082097
_cell_angle_gamma                 89.412234
_cell_volume                      2887.58691113

loop_
_atom_site_label
_atom_site_type_symbol
_atom_site_description
_atom_site_fract_x
_atom_site_fract_y
_atom_site_fract_z
_atom_type_partial_charge
O1    O     O_R   0.500000 0.319640 0.618810 -0.597542
O2    O     O_R   0.500010 0.319680 0.381230 -0.507564
C1    C     C_R   0.499015 0.262299 0.499611 0.878811
O3    O     O_R   0.430260 0.500000 0.618780 -0.590718
O4    O     O_R   0.430270 0.500040 0.381190 -0.592796
C2    C     C_R   0.407373 0.500214 0.499959 0.833218
Cu1   Cu    Cu3+1 0.500000 0.499980 0.640670 0.952303
Cu2   Cu    Cu3+1 0.500000 0.500020 0.359330 0.978895
O5    O     O_R   0.499990 0.680320 0.618770 -0.580465
O6    O     O_R   0.500000 0.680360 0.381190 -0.588978
O7    O     O_R   0.569730 0.499960 0.618810 -0.583953
O8    O     O_R   0.569740 0.500000 0.381220 -0.595153
C3    C     C_R   0.499322 0.737723 0.500246 0.825696
C4    C     C_R   0.592518 0.497886 0.500028 0.826036
C5    C     C_R   0.178551 0.395484 0.538891 0.630355
O9    O     O_2   0.204665 0.292115 0.559365 -0.540763
N1    N     N_R   0.201295 0.501926 0.507138 -0.429908
C6    C     C_R   0.176191 0.608302 0.483616 0.603506
C7    C     C_R   0.278877 0.500462 0.631030 0.472402
C8    C     C_R   0.329263 0.497093 0.628576 -0.303656
C9    C     C_R   0.328172 0.505827 0.374311 -0.321580
C10   C     C_R   0.277621 0.504232 0.375289 0.485619
C11   C     C_R   0.253023 0.502762 0.504143 0.172539
C12   C     C_R   0.101391 0.501630 0.529883 -0.052825
C13   C     C_R   0.128320 0.393061 0.550140 -0.107767
C14   C     C_R   0.104852 0.285248 0.587007 -0.195550
C15   C     C_R   0.125317 0.612197 0.498024 -0.090954
C16   C     C_R   0.354263 0.500921 0.500667 -0.166411
H1    H     H_    0.346832 0.510741 0.274723 0.180243
H2    H     H_    0.125258 0.203105 0.612197 0.208151
C17   C     C_R   0.645403 0.492001 0.500250 -0.028889
C18   C     C_R   0.975760 0.383137 0.542824 0.036453
C19   C     C_R   0.972941 0.606802 0.561067 -0.000398
C20   C     C_R   0.948850 0.493955 0.548353 0.067863
C21   C     C_R   0.951217 0.273499 0.515562 -0.200288
C22   C     C_R   0.901109 0.271365 0.502409 -0.068895
C23   C     C_R   0.874091 0.381355 0.508357 -0.084683
C24   C     C_R   0.897841 0.491835 0.539993 -0.035928
C25   C     C_R   0.870524 0.599951 0.562051 -0.079866
C26   C     C_R   0.819457 0.591673 0.559902 0.558926
N2    N     N_R   0.797899 0.487873 0.513327 -0.469715
C27   C     C_R   0.824003 0.385872 0.480591 0.576724
C28   C     C_R   0.720136 0.431639 0.614170 -0.094042
C29   C     C_R   0.669947 0.435630 0.611973 -0.183925
C30   C     C_R   0.671809 0.542143 0.389096 -0.192135
C31   C     C_R   0.722123 0.539196 0.392126 -0.059332
C32   C     C_R   0.746341 0.484529 0.505131 0.344494
O10   O     O_2   0.801488 0.291104 0.418535 -0.493714
C33   C     C_R   0.026614 0.386243 0.560965 -0.064818
C34   C     C_R   0.050429 0.498903 0.541387 0.024690
C35   C     C_R   0.023384 0.608606 0.533073 0.068165
C36   C     C_R   0.054817 0.282021 0.598074 0.468499
H3    H     H_    0.650390 0.393810 0.696923 0.158516
H4    H     H_    0.738747 0.389178 0.701632 0.157160
H5    H     H_    0.970574 0.188225 0.501107 0.224786
O11   O     O_2   0.200693 0.708714 0.445671 -0.504466
C37   C     C_R   0.097191 0.720098 0.477571 -0.014346
H6    H     H_    0.348637 0.491741 0.727209 0.183167
C38   C     C_R   0.945651 0.712898 0.598308 -0.093302
C39   C     C_R   0.894779 0.710422 0.591751 -0.191807
O12   O     O_2   0.791200 0.684551 0.606115 -0.502071
C40   C     C_R   0.047056 0.715381 0.490222 -0.185845
H7    H     H_    0.653603 0.586109 0.301917 0.149210
H8    H     H_    0.742311 0.580555 0.307798 0.151941
H9    H     H_    0.026589 0.796888 0.464045 0.174810
C41   C     C_R   0.505758 0.063120 0.620876 -0.016359
C42   C     C_R   0.495063 0.129163 0.499263 -0.158992
C43   C     C_R   0.478027 0.063529 0.380743 0.499027
C44   C     C_R   0.479466 0.934757 0.381386 -0.287473
H10   H     H_    0.469226 0.885643 0.287122 0.174927
C45   C     C_R   0.495181 0.870722 0.501275 -0.144866
C46   C     C_R   0.504294 0.937348 0.623404 0.072073
C47   C     C_3   0.544253 0.927986 0.728347 -0.439426
C48   C     C_3   0.546364 0.067684 0.725432 -0.174994
H11   H     H_    0.531467 0.891807 0.830517 0.198375
H12   H     H_    0.576560 0.879890 0.685030 0.202752
H13   H     H_    0.535086 0.111204 0.826029 0.152797
C49   C     C_R   0.527137 0.417803 0.073740 0.285640
N3    N     N_R   0.500300 0.500930 0.147930 -0.203367
C50   C     C_R   0.469995 0.577027 0.074673 -0.078951
H14   H     H_    0.446414 0.639507 0.130903 0.138948
C51   C     C_R   0.469989 0.576971 0.925603 -0.070212
H15   H     H_    0.446399 0.639394 0.869652 0.139651
N4    N     N_R   0.500310 0.500890 0.852020 -0.183846
C52   C     C_R   0.527228 0.418246 0.925976 0.228890
C53   C     C_3   0.580712 0.404832 0.920008 -0.559699
C54   C     C_3   0.580852 0.404498 0.079304 -0.286259
H16   H     H_    0.591803 0.316727 0.870683 0.207768
H17   H     H_    0.598454 0.487073 0.876390 0.220763
H18   H     H_    0.598672 0.485951 0.125422 0.157838
O13   O     O_3   0.254499 0.493112 0.757114 -0.569080
C55   C     C_3   0.254681 0.609300 0.821844 -0.270210
H19   H     H_    0.237779 0.680108 0.753247 0.188954
H20   H     H_    0.291834 0.636525 0.851973 0.154729
H21   H     H_    0.233035 0.604820 0.919477 0.218692
C56   C     C_2   0.117889 0.841805 0.449327 0.950313
O14   O     O_2   0.106316 0.897300 0.343056 -0.572671
O15   O     O_R   0.148488 0.895782 0.547955 -0.709204
H22   H     H_    0.159550 0.979900 0.518068 0.346400
C57   C     C_2   0.969311 0.821725 0.660990 0.802554
O16   O     O_2   0.998671 0.808505 0.755792 -0.557588
O17   O     O_R   0.958240 0.938656 0.611031 -0.733248
H23   H     H_    0.974814 0.004959 0.666586 0.364884
C58   C     C_2   0.867262 0.826329 0.602702 1.042331
O18   O     O_2   0.845777 0.863363 0.499183 -0.496277
O19   O     O_R   0.863923 0.891129 0.729180 -0.693608
H24   H     H_    0.881120 0.848191 0.809271 0.305463
O20   O     O_3   0.463965 0.123334 0.259674 -0.534958
C59   C     C_3   0.413751 0.143553 0.265714 -0.290390
H25   H     H_    0.402418 0.193842 0.170031 0.191103
H26   H     H_    0.403560 0.201107 0.358006 0.143069
H27   H     H_    0.393913 0.055504 0.267421 0.154948
O21   O     O_3   0.251849 0.511851 0.251250 -0.560019
C60   C     C_3   0.254230 0.397531 0.182404 -0.277916
H28   H     H_    0.240642 0.322817 0.250569 0.177977
H29   H     H_    0.291491 0.376219 0.146185 0.155375
H30   H     H_    0.230786 0.401467 0.088060 0.216070
C61   C     C_2   0.594319 0.113144 0.672473 0.860217
O22   O     O_2   0.598436 0.155621 0.554545 -0.598576
O23   O     O_R   0.634421 0.105785 0.761050 -0.736345
H31   H     H_    0.664630 0.139263 0.716041 0.349099
C62   C     C_2   0.598356 0.285073 0.140405 0.940201
O24   O     O_2   0.641689 0.265154 0.149128 -0.543143
O25   O     O_R   0.565626 0.197409 0.186202 -0.712607
H32   H     H_    0.582157 0.121787 0.225583 0.350361
C63   C     C_2   0.877211 0.151918 0.500729 0.999126
O26   O     O_2   0.889549 0.073127 0.416484 -0.514830
O27   O     O_R   0.839599 0.131899 0.595420 -0.694663
H33   H     H_    0.818425 0.060965 0.568601 0.394779
O28   O     O_3   0.034779 0.179037 0.656686 -0.603180
C64   C     C_3   0.028135 0.200987 0.801535 -0.272865
H34   H     H_    0.000767 0.274468 0.819857 0.172204
H35   H     H_    0.062693 0.224321 0.854460 0.177703
H36   H     H_    0.014661 0.116335 0.851151 0.211692

loop_
_geom_bond_atom_site_label_1
_geom_bond_atom_site_label_2
_geom_bond_distance
_ccdc_geom_bond_type
C49   C54   1.496604 S    
C63   O26   1.221576 D    
C47   C48   1.528602 S    
C7    C8    1.398110 A    
C12   C15   1.418476 A    
C4    C17   1.467831 S    
C64   H36   1.108832 S    
O27   H33   1.009249 S    
C58   O19   1.398025 S    
C60   H28   1.114069 S    
C37   C40   1.397671 A    
C52   C53   1.490590 S    
Cu1   O7    1.945872 S    
N1    C11   1.435453 S    
C22   C23   1.410910 A    
O2    C1    1.292765 A    
C59   H26   1.114228 S    
C24   C25   1.412242 A    
O7    C4    1.296968 A    
C53   H16   1.110597 S    
C5    C13   1.398265 A    
O19   H24   1.013301 S    
C5    O9    1.350231 S    
C41   C48   1.503682 S    
O20   C59   1.409413 S    
C5    N1    1.364042 A    
N2    C27   1.358516 A    
C23   C27   1.414488 A    
C44   C45   1.407886 A    
O5    C3    1.293624 A    
C61   O22   1.223009 D    
C57   O16   1.223221 D    
C29   H3    1.080303 S    
C10   O21   1.382532 S    
C2    C16   1.473301 S    
C21   C22   1.395929 A    
C43   C44   1.407321 A    
C48   H13   1.112170 S    
C56   O15   1.398287 S    
Cu2   N3    2.013940 S    
O6    C3    1.293925 A    
C6    O11   1.347407 S    
Cu1   N4    2.013369 S    
C38   C39   1.413074 A    
C19   C38   1.422285 A    
C20   C24   1.417623 A    
C9    C10   1.402685 A    
C38   C57   1.487038 S    
C47   H11   1.111782 S    
C44   H10   1.083512 S    
C35   C40   1.406807 A    
O3    Cu1   1.945588 S    
C43   O20   1.381430 S    
C57   O17   1.396207 S    
C58   O18   1.219733 D    
C34   C35   1.410052 A    
C12   C34   1.418779 A    
C48   C61   1.512720 S    
C41   C46   1.375665 A    
C17   C29   1.403510 A    
C21   H5    1.079181 S    
C42   C43   1.418467 A    
C18   C21   1.407237 A    
Cu1   Cu2   2.680116 S    
C12   C13   1.409186 A    
C50   C51   1.420075 A    
C15   C37   1.421015 A    
C59   H27   1.113470 S    
O13   C55   1.409497 S    
C53   C54   1.517513 S    
C50   H14   1.081756 S    
C3    C45   1.456675 S    
C13   C14   1.398032 A    
C30   C31   1.396093 A    
C9    H1    1.083149 S    
C30   H7    1.082728 S    
C55   H21   1.109305 S    
C26   O12   1.348978 S    
C31   H8    1.082742 S    
O1    C1    1.295328 A    
C18   C20   1.416871 A    
C7    C11   1.404807 A    
C28   C29   1.392676 A    
C23   C24   1.412607 A    
C14   C36   1.393007 A    
C54   C62   1.506410 S    
C28   H4    1.082919 S    
Cu2   O8    1.945582 S    
C33   C36   1.420543 A    
C56   O14   1.222774 D    
C55   H20   1.112633 S    
N1    C6    1.367925 A    
N2    C32   1.433126 S    
C27   O10   1.348986 S    
N4    C52   1.363363 A    
C49   C52   1.407668 A    
O3    C2    1.297028 A    
C26   N2    1.360352 A    
C9    C16   1.404567 A    
O8    C4    1.295617 A    
C14   H2    1.083724 S    
C51   N4    1.368629 A    
C47   H12   1.113350 S    
C8    H6    1.083253 S    
C64   H34   1.112865 S    
C25   C26   1.420614 A    
C62   O25   1.397978 S    
O23   H31   1.014104 S    
O21   C60   1.409794 S    
Cu1   O5    1.982385 S    
C31   C32   1.400510 A    
C63   O27   1.399658 S    
C40   H9    1.081045 S    
O1    Cu1   1.980851 S    
C22   C63   1.470024 S    
C6    C15   1.418352 A    
C46   C47   1.494633 S    
C64   H35   1.113990 S    
C53   H17   1.111247 S    
O4    Cu2   1.945875 S    
C60   H29   1.112334 S    
C19   C35   1.425268 A    
C8    C16   1.403872 A    
C36   O28   1.380367 S    
O28   C64   1.411726 S    
C45   C46   1.394401 A    
C59   H25   1.109460 S    
C49   N3    1.364501 A    
O4    C2    1.298307 A    
C1    C42   1.460053 S    
C25   C39   1.415498 A    
C55   H19   1.113953 S    
O15   H22   1.013935 S    
C19   C20   1.413320 A    
C41   C42   1.397022 A    
O17   H23   1.009840 S    
C61   O23   1.397178 S    
C18   C33   1.421798 A    
C60   H30   1.109322 S    
C7    O13   1.382254 S    
N3    C50   1.368721 A    
Cu2   O6    1.980850 S    
C33   C34   1.416155 A    
C17   C30   1.404531 A    
C54   H18   1.111383 S    
O2    Cu2   1.982387 S    
C10   C11   1.405496 A    
C37   C56   1.479703 S    
C51   H15   1.081731 S    
C62   O24   1.222250 D    
C39   C58   1.475521 S    
C28   C32   1.398789 A    
O25   H32   1.013827 S    
