data_mof_unit_14532.cif
_audit_creation_date              2013-03-05T16:09:46-0500
_audit_creation_method            fapswitch 2.2
_symmetry_space_group_name_H-M    P1
_symmetry_Int_Tables_number       1
_space_group_crystal_system       triclinic
_cell_length_a                    13.108377
_cell_length_b                    10.668842
_cell_length_c                    9.830175
_cell_angle_alpha                 90.452074
_cell_angle_beta                  94.882386
_cell_angle_gamma                 88.900185
_cell_volume                      1369.49413099

loop_
_atom_site_label
_atom_site_type_symbol
_atom_site_description
_atom_site_fract_x
_atom_site_fract_y
_atom_site_fract_z
_atom_type_partial_charge
O1    O     O_R   0.499990 0.316750 0.614620 -0.627394
O2    O     O_R   0.500010 0.683250 0.385380 -0.627384
O3    O     O_R   0.499990 0.316780 0.385290 -0.635420
O4    O     O_R   0.500010 0.683220 0.614710 -0.635445
C1    C     C_R   0.503223 0.260151 0.499883 0.854501
C2    C     C_R   0.496774 0.739849 0.500117 0.854495
O5    O     O_R   0.346360 0.499970 0.595710 -0.609440
O6    O     O_R   0.653640 0.500030 0.404290 -0.609435
O7    O     O_R   0.346360 0.499990 0.366380 -0.632394
O8    O     O_R   0.653640 0.500010 0.633620 -0.632390
C3    C     C_R   0.298695 0.500973 0.476531 0.871836
C4    C     C_R   0.701305 0.499025 0.523469 0.871835
Zn1   Zn    Zn3+2 0.500000 0.499980 0.653120 0.946824
Zn2   Zn    Zn3+2 0.500000 0.500020 0.346880 0.946839
C5    C     C_R   0.811983 0.500284 0.533162 -0.097842
C6    C     C_R   0.188017 0.499707 0.466838 -0.097831
C7    C     C_R   0.033207 0.478031 0.320839 -0.214243
C8    C     C_R   0.966793 0.521953 0.679162 -0.214240
C9    C     C_R   0.137843 0.481549 0.337588 -0.223648
C10   C     C_R   0.862157 0.518440 0.662412 -0.223656
C11   C     C_R   0.131804 0.514285 0.583243 -0.084755
C12   C     C_R   0.868195 0.485700 0.416757 -0.084762
C13   C     C_R   0.024890 0.509121 0.566128 0.126057
C14   C     C_R   0.975110 0.490861 0.433873 0.126054
H1    H     H_    0.820498 0.531278 0.752081 0.169684
H2    H     H_    0.179502 0.468715 0.247919 0.169683
H3    H     H_    0.999113 0.464497 0.217782 0.163463
H4    H     H_    0.000887 0.535488 0.782219 0.163465
C15   C     C_R   0.571524 0.058601 0.421981 0.000368
C16   C     C_R   0.428462 0.941400 0.578009 0.000378
C17   C     C_R   0.565169 0.929729 0.422468 -0.154311
C18   C     C_R   0.434821 0.070272 0.577526 -0.154279
H5    H     H_    0.616781 0.873049 0.365649 0.183478
H6    H     H_    0.383210 0.126954 0.634344 0.183500
C19   C     C_R   0.495357 0.872367 0.500228 -0.158681
C20   C     C_R   0.504636 0.127633 0.499770 -0.158695
C21   C     C_R   0.506317 0.609723 0.073429 -0.075894
C22   C     C_R   0.493683 0.390277 0.926571 -0.075880
H7    H     H_    0.511547 0.697701 0.128516 0.143594
H8    H     H_    0.488453 0.302299 0.871484 0.143588
C23   C     C_R   0.506072 0.609704 0.929655 -0.062407
C24   C     C_R   0.493928 0.390296 0.070345 -0.062383
H9    H     H_    0.511004 0.697614 0.876989 0.142588
H10   H     H_    0.488996 0.302386 0.123011 0.142613
N1    N     N_R   0.499970 0.499970 0.857200 -0.083558
N2    N     N_R   0.500030 0.500030 0.142800 -0.083563
C25   C     C_R   0.818522 0.463234 0.277177 0.128465
C26   C     C_R   0.811891 0.340624 0.225029 -0.154140
C27   C     C_R   0.775222 0.319569 0.089276 -0.118167
C28   C     C_R   0.747339 0.420893 0.004100 -0.135374
C29   C     C_R   0.755307 0.543444 0.054747 -0.143507
C30   C     C_R   0.790497 0.564835 0.191071 -0.102525
H11   H     H_    0.837540 0.261951 0.288786 0.153536
H12   H     H_    0.769940 0.224836 0.049494 0.168699
H13   H     H_    0.719708 0.404264 0.898801 0.153305
H14   H     H_    0.734548 0.621848 0.988211 0.135278
H15   H     H_    0.797861 0.660107 0.228965 0.134031
C31   C     C_R   0.181478 0.536752 0.722824 0.128468
C32   C     C_R   0.209498 0.435152 0.808933 -0.102534
C33   C     C_R   0.244689 0.456546 0.945257 -0.143511
C34   C     C_R   0.252663 0.579100 0.995898 -0.135348
C35   C     C_R   0.224785 0.680423 0.910717 -0.118221
C36   C     C_R   0.188114 0.659364 0.774965 -0.154155
H16   H     H_    0.202129 0.339879 0.771044 0.134046
H17   H     H_    0.265444 0.378144 0.011796 0.135274
H18   H     H_    0.280294 0.595732 0.101196 0.153304
H19   H     H_    0.230073 0.775158 0.950494 0.168679
H20   H     H_    0.162467 0.738036 0.711204 0.153591
C37   C     C_2   0.650925 0.118317 0.346375 0.360172
H21   H     H_    0.669207 0.215922 0.363905 0.080914
O9    O     O_2   0.697698 0.058590 0.264369 -0.603128
C38   C     C_2   0.349047 0.881685 0.653595 0.360078
H22   H     H_    0.330826 0.784053 0.636149 0.080982
O10   O     O_2   0.302181 0.941449 0.735478 -0.603122

loop_
_geom_bond_atom_site_label_1
_geom_bond_atom_site_label_2
_geom_bond_distance
_ccdc_geom_bond_type
O5    Zn1   2.044777 S    
C22   H8    1.080316 S    
C13   C14   1.417909 A    
C17   H5    1.085656 S    
C6    C11   1.418752 A    
C25   C30   1.404509 A    
C29   C30   1.398110 A    
C30   H15   1.083009 S    
C16   C18   1.379106 A    
C23   H9    1.080535 S    
C3    C6    1.446127 S    
O5    C3    1.279989 A    
C25   C26   1.402739 A    
C4    C5    1.446124 S    
O6    C4    1.279989 A    
O7    Zn2   2.039256 S    
C35   C36   1.397339 A    
C12   C25   1.487557 S    
C21   N2    1.366486 A    
C37   O9    1.221820 D    
C32   C33   1.398110 A    
Zn2   N2    2.006176 S    
C27   H12   1.082157 S    
O2    C2    1.278661 A    
C18   C20   1.394355 A    
Zn1   N1    2.006177 S    
O7    C3    1.295262 A    
C15   C20   1.405837 A    
C32   H16   1.083014 S    
C34   C35   1.396525 A    
O3    Zn2   1.994015 S    
C24   H10   1.080535 S    
C35   H19   1.082161 S    
C6    C9    1.393974 A    
O1    C1    1.278658 A    
O8    C4    1.295262 A    
C17   C19   1.394358 A    
C38   O10   1.221839 D    
C26   C27   1.397341 A    
C7    C9    1.368673 A    
C33   H17   1.082191 S    
C22   C24   1.413053 A    
C8    C10   1.368672 A    
C37   H21   1.082226 S    
C11   C13   1.399346 A    
C21   C23   1.413053 A    
C26   H11   1.082567 S    
O2    Zn2   1.988217 S    
C12   C14   1.399348 A    
C7    C14   1.403908 A    
O1    Zn1   1.988217 S    
C10   H1    1.082165 S    
O4    C2    1.279599 A    
C8    C13   1.403908 A    
C7    H3    1.081665 S    
C1    C20   1.413573 S    
C16   C19   1.405850 A    
C11   C31   1.487555 S    
C8    H4    1.081665 S    
C2    C19   1.413575 S    
C9    H2    1.082165 S    
C21   H7    1.080316 S    
C29   H14   1.082188 S    
C24   N2    1.365669 A    
C31   C36   1.402742 A    
C27   C28   1.396519 A    
C15   C37   1.485323 S    
C23   N1    1.365669 A    
C36   H20   1.082569 S    
C38   H22   1.082221 S    
C22   N1    1.366487 A    
O6    Zn2   2.044776 S    
C28   C29   1.398002 A    
C31   C32   1.404511 A    
C15   C17   1.379097 A    
C34   H18   1.081597 S    
C5    C10   1.393975 A    
C5    C12   1.418753 A    
C16   C38   1.485345 S    
C28   H13   1.081597 S    
O4    Zn1   1.994014 S    
C33   C34   1.398008 A    
O3    C1    1.279597 A    
O8    Zn1   2.039256 S    
C18   H6    1.085654 S    
