data_mof_unit_44323.cif
_audit_creation_date              2012-12-10T20:39:57-0500
_audit_creation_method            fapswitch 2.2
_symmetry_space_group_name_H-M    P1
_symmetry_Int_Tables_number       1
_space_group_crystal_system       triclinic
_cell_length_a                    23.387394
_cell_length_b                    10.656498
_cell_length_c                    9.853034
_cell_angle_alpha                 89.898664
_cell_angle_beta                  90.452576
_cell_angle_gamma                 90.069717
_cell_volume                      2455.56694845

loop_
_atom_site_label
_atom_site_type_symbol
_atom_type_description
_atom_site_fract_x
_atom_site_fract_y
_atom_site_fract_z
_atom_type_partial_charge
C1    C     C_R   0.503718 0.260340 0.500219 0.854922
C2    C     C_R   0.970926 0.328822 0.688025 0.166160
C3    C     C_R   0.030768 0.329988 0.685527 -0.138726
C4    C     C_R   0.060534 0.408460 0.596763 -0.065275
C5    C     C_R   0.030415 0.489256 0.509075 -0.018004
C6    C     C_R   0.060493 0.567998 0.418926 -0.004351
C7    C     C_R   0.030532 0.650116 0.333072 -0.150678
C8    C     C_R   0.971242 0.654236 0.336201 -0.152725
C9    C     C_R   0.120278 0.407817 0.593106 0.603036
C10   C     C_R   0.120119 0.562209 0.416899 0.535390
C11   C     C_R   0.238534 0.571568 0.573138 -0.118870
C12   C     C_R   0.389649 0.496216 0.499643 0.859687
C13   C     C_R   0.297443 0.576248 0.570497 -0.201592
C14   C     C_R   0.327888 0.485866 0.498949 -0.106480
C15   C     C_R   0.299434 0.385828 0.432045 -0.119564
C16   C     C_R   0.238912 0.387234 0.425299 0.018746
C17   C     C_R   0.209210 0.479430 0.500261 0.262371
C18   C     C_R   0.762275 0.447675 0.399416 -0.131405
C19   C     C_R   0.703015 0.448531 0.395565 -0.221784
C20   C     C_R   0.672659 0.502437 0.502383 -0.077473
C21   C     C_R   0.701774 0.558076 0.611663 -0.196716
C22   C     C_R   0.761416 0.559891 0.615044 0.232094
C23   C     C_R   0.500951 0.739990 0.500008 0.898840
C24   C     C_R   0.791498 0.502398 0.508683 0.315348
C25   C     C_R   0.495240 0.064053 0.617947 0.155459
C26   C     C_R   0.513447 0.128777 0.503336 -0.199719
C27   C     C_R   0.540793 0.063450 0.396744 -0.034232
C28   C     C_R   0.536755 0.932723 0.396229 -0.182578
C29   C     C_R   0.508502 0.871468 0.502233 -0.151897
C30   C     C_R   0.493176 0.936713 0.617806 0.133138
C31   C     C_3   0.438777 0.932868 0.696212 -0.461284
C32   C     C_3   0.441098 0.075086 0.696845 -0.453420
C33   C     C_R   0.469415 0.411826 0.070770 0.229844
C34   C     C_R   0.610597 0.500608 0.500519 0.866498
C35   C     C_R   0.534227 0.579404 0.072534 -0.110117
C36   C     C_R   0.534262 0.579352 0.928449 -0.116907
C37   C     C_R   0.469240 0.412267 0.928115 0.220958
C38   C     C_3   0.406095 0.394072 0.921225 -0.483009
C39   C     C_3   0.406300 0.392282 0.075175 -0.517370
C40   C     C_R   0.881381 0.578373 0.427073 0.501554
C41   C     C_R   0.879484 0.414461 0.593217 0.512671
C42   C     C_R   0.939803 0.410151 0.599084 -0.033745
C43   C     C_R   0.970271 0.491511 0.511140 -0.054189
C44   C     C_R   0.940833 0.575336 0.424182 -0.005234
H1    H     H_    0.680927 0.405087 0.310727 0.166514
H2    H     H_    0.677982 0.601427 0.693064 0.156400
H3    H     H_    0.554548 0.879128 0.313237 0.196979
H4    H     H_    0.402302 0.894310 0.636252 0.208613
H5    H     H_    0.444856 0.890661 0.798573 0.214586
H6    H     H_    0.405859 0.119745 0.637686 0.215341
H7    H     H_    0.448726 0.114822 0.799626 0.207856
H8    H     H_    0.560946 0.645277 0.127387 0.156743
H9    H     H_    0.054348 0.268210 0.753131 0.195481
H10   H     H_    0.561033 0.645133 0.874361 0.152242
H11   H     H_    0.383351 0.476579 0.877652 0.227643
H12   H     H_    0.394081 0.302443 0.875544 0.205752
H13   H     H_    0.383165 0.472886 0.120490 0.227424
H14   H     H_    0.394999 0.298866 0.117396 0.208727
H15   H     H_    0.052759 0.711598 0.263435 0.196909
H16   H     H_    0.949319 0.718946 0.268782 0.194429
H17   H     H_    0.215195 0.641722 0.629585 0.152794
H18   H     H_    0.319486 0.650811 0.624418 0.152795
H19   H     H_    0.785732 0.404129 0.317732 0.154543
N1    N     N_R   0.852404 0.498964 0.510442 -0.352540
N2    N     N_R   0.148383 0.482382 0.502543 -0.339056
N3    N     N_R   0.499610 0.499140 0.142800 -0.114109
N4    N     N_R   0.499610 0.499180 0.857150 -0.112463
O1    O     O_R   0.500010 0.316790 0.614690 -0.601965
O2    O     O_2   0.847521 0.335287 0.667865 -0.563875
O3    O     O_2   0.150244 0.332698 0.678086 -0.538078
O4    O     O_2   0.149792 0.635257 0.330234 -0.548840
O5    O     O_R   0.500000 0.316760 0.385350 -0.641153
O6    O     O_R   0.416160 0.499980 0.614700 -0.613984
O7    O     O_R   0.416150 0.499940 0.385360 -0.623725
O8    O     O_R   0.500000 0.683240 0.614650 -0.618596
O9    O     O_R   0.499990 0.683210 0.385310 -0.614862
O10   O     O_R   0.583850 0.500060 0.614640 -0.616946
O11   O     O_R   0.583840 0.500020 0.385300 -0.628130
O12   O     O_2   0.852421 0.659887 0.347184 -0.554303
Zn1   Zn    Zn3+2 0.500000 0.500020 0.653130 0.955673
Zn2   Zn    Zn3+2 0.500000 0.499980 0.346870 0.947630
C45   C     C_3   0.942792 0.240885 0.787858 -0.752531
H20   H     H_    0.916765 0.169935 0.732744 0.271176
H21   H     H_    0.974572 0.188579 0.850299 0.211903
H22   H     H_    0.915834 0.294941 0.859196 0.261638
C46   C     C_3   0.792462 0.624430 0.729808 -0.859830
H23   H     H_    0.818163 0.555427 0.788481 0.263429
H24   H     H_    0.821265 0.697839 0.688542 0.246090
H25   H     H_    0.762281 0.670145 0.800739 0.238788
C47   C     C_2   0.573236 0.127896 0.287746 0.430865
H26   H     H_    0.587378 0.224139 0.300170 0.080828
O13   O     O_2   0.585686 0.073113 0.183314 -0.575132
C48   C     C_2   0.333136 0.276323 0.382024 0.309608
H27   H     H_    0.378165 0.285475 0.359809 0.105539
O14   O     O_2   0.311920 0.171924 0.372905 -0.562840
C49   C     C_2   0.207721 0.299546 0.332808 0.513627
H28   H     H_    0.229476 0.258856 0.246662 0.105457
O15   O     O_2   0.157630 0.272100 0.350027 -0.560439

loop_
_geom_bond_atom_site_label_1
_geom_bond_atom_site_label_2
_ccdc_geom_bond_type
O1    Zn1   S    
C28   H3    S    
C48   H27   S    
C12   O7    A    
C3    H9    S    
C41   C42   A    
C19   C20   A    
C23   O9    A    
C36   N4    A    
C7    C8    A    
C26   C27   A    
C33   C39   S    
C18   C24   A    
C23   C29   S    
C21   C22   A    
C28   C29   A    
C37   C38   S    
C34   O10   A    
C5    C6    A    
C46   H24   S    
C18   H19   S    
O10   Zn1   S    
C15   C16   A    
C39   H13   S    
C1    O1    A    
C27   C47   S    
C18   C19   A    
C13   H18   S    
C35   C36   A    
C16   C17   A    
C49   O15   D    
O8    Zn1   S    
O5    Zn2   S    
C20   C34   S    
C10   O4    S    
C25   C32   S    
C5    C43   A    
C24   N1    S    
C13   C14   A    
C31   H5    S    
C7    H15   S    
C33   N3    A    
C16   C49   S    
C1    O5    A    
C38   H11   S    
C9    O3    S    
C46   H23   S    
C35   N3    A    
C25   C26   A    
C39   H14   S    
C33   C37   A    
C43   C44   A    
C32   H7    S    
C6    C10   A    
C29   C30   A    
C47   O13   D    
C31   C32   S    
C30   C31   S    
C49   H28   S    
C40   O12   S    
C32   H6    S    
C12   C14   S    
C45   H21   S    
C31   H4    S    
C1    C26   S    
C22   C24   A    
C2    C45   S    
C42   C43   A    
O7    Zn2   S    
C3    C4    A    
C35   H8    S    
C41   O2    S    
C21   H2    S    
C10   N2    A    
C25   C30   A    
C11   C17   A    
N4    Zn1   S    
C8    C44   A    
C23   O8    A    
C4    C5    A    
C11   H17   S    
C46   H25   S    
O9    Zn2   S    
C15   C48   S    
C19   H1    S    
C6    C7    A    
C45   H22   S    
C17   N2    S    
C40   N1    A    
C2    C3    A    
C8    H16   S    
N3    Zn2   S    
C11   C13   A    
O11   Zn2   S    
C47   H26   S    
C38   C39   S    
C2    C42   A    
C37   N4    A    
O6    Zn1   S    
C22   C46   S    
C9    N2    A    
C36   H10   S    
C40   C44   A    
C38   H12   S    
C20   C21   A    
C48   O14   D    
C45   H20   S    
C27   C28   A    
C14   C15   A    
C41   N1    A    
C4    C9    A    
C12   O6    A    
C34   O11   A    
