data_mof_unit_51649.cif
_audit_creation_date              2012-12-10T20:40:01-0500
_audit_creation_method            fapswitch 2.2
_symmetry_space_group_name_H-M    P1
_symmetry_Int_Tables_number       1
_space_group_crystal_system       triclinic
_cell_length_a                    23.405886
_cell_length_b                    10.693088
_cell_length_c                    9.919524
_cell_angle_alpha                 89.480726
_cell_angle_beta                  87.990224
_cell_angle_gamma                 90.884221
_cell_volume                      2480.73312197

loop_
_atom_site_label
_atom_site_type_symbol
_atom_type_description
_atom_site_fract_x
_atom_site_fract_y
_atom_site_fract_z
_atom_type_partial_charge
C1    C     C_R   0.499940 0.260367 0.500363 0.892084
C2    C     C_R   0.969884 0.269176 0.484423 -0.160863
C3    C     C_R   0.029176 0.269511 0.488248 -0.165014
C4    C     C_R   0.059490 0.381939 0.505917 -0.004160
C5    C     C_R   0.029751 0.494969 0.521277 -0.021926
C6    C     C_R   0.060055 0.607912 0.538989 -0.032986
C7    C     C_R   0.030415 0.719840 0.554646 -0.217957
C8    C     C_R   0.970772 0.721327 0.552035 0.118377
C9    C     C_R   0.119142 0.384761 0.507092 0.502209
C10   C     C_R   0.119717 0.606066 0.539432 0.513716
C11   C     C_R   0.238096 0.542704 0.402703 -0.094627
C12   C     C_R   0.389445 0.499761 0.502227 0.862066
C13   C     C_R   0.297422 0.543645 0.397371 -0.210918
C14   C     C_R   0.327242 0.499059 0.507649 -0.041851
C15   C     C_R   0.297186 0.453765 0.623279 -0.220436
C16   C     C_R   0.237846 0.452635 0.628306 -0.095517
C17   C     C_R   0.208430 0.497130 0.518049 0.315498
C18   C     C_R   0.758389 0.430091 0.604580 -0.097191
C19   C     C_R   0.699201 0.432004 0.601721 -0.221868
C20   C     C_R   0.672570 0.494634 0.496672 -0.029725
C21   C     C_R   0.705640 0.555255 0.394674 -0.240482
C22   C     C_R   0.764872 0.552541 0.397142 -0.086621
C23   C     C_R   0.500116 0.739666 0.499511 0.883268
C24   C     C_R   0.791242 0.490591 0.502477 0.307903
C25   C     C_R   0.522931 0.063633 0.609708 0.125810
C26   C     C_R   0.503579 0.128676 0.498414 -0.128629
C27   C     C_R   0.491527 0.065253 0.379381 -0.215422
C28   C     C_R   0.491458 0.936655 0.379062 -0.230165
C29   C     C_R   0.504320 0.871650 0.496988 -0.091965
C30   C     C_R   0.523595 0.935750 0.608723 0.061982
C31   C     C_3   0.506682 0.923327 0.755416 -0.523283
C32   C     C_3   0.505649 0.066439 0.757490 0.245939
C33   C     C_R   0.462769 0.424590 0.074864 0.105696
C34   C     C_R   0.610518 0.499535 0.498237 0.859403
C35   C     C_R   0.542397 0.560690 0.063807 0.186431
C36   C     C_R   0.540343 0.563300 0.921082 -0.173661
C37   C     C_R   0.462775 0.424895 0.932871 0.159495
C38   C     C_3   0.399205 0.425966 0.930674 -0.481088
C39   C     C_3   0.398871 0.425509 0.084227 -0.109620
C40   C     C_R   0.879781 0.603393 0.528861 0.514715
C41   C     C_R   0.880464 0.382412 0.492959 0.499335
C42   C     C_R   0.939864 0.381218 0.498598 0.000354
C43   C     C_R   0.969718 0.494936 0.517969 -0.062437
C44   C     C_R   0.939769 0.608208 0.533238 -0.021240
H1    H     H_    0.947703 0.180903 0.469949 0.188538
H2    H     H_    0.674233 0.384868 0.681585 0.156321
H3    H     H_    0.686118 0.608247 0.316119 0.150803
H4    H     H_    0.790376 0.600260 0.318705 0.145070
H5    H     H_    0.478746 0.114021 0.289304 0.164270
H6    H     H_    0.477762 0.888922 0.289720 0.164096
H7    H     H_    0.464041 0.877269 0.772075 0.193460
H8    H     H_    0.540850 0.880736 0.814827 0.201865
H9    H     H_    0.051135 0.181628 0.476502 0.189747
H10   H     H_    0.572014 0.615118 0.860074 0.159363
H11   H     H_    0.382955 0.514321 0.887473 0.195324
H12   H     H_    0.381614 0.339050 0.886244 0.206502
H13   H     H_    0.381003 0.511553 0.129923 0.176500
H14   H     H_    0.053371 0.807338 0.568452 0.192421
H15   H     H_    0.215070 0.577265 0.317558 0.139697
H16   H     H_    0.319849 0.580741 0.308210 0.148619
H17   H     H_    0.319441 0.417867 0.708737 0.154874
H18   H     H_    0.214662 0.417264 0.717411 0.142579
H19   H     H_    0.778808 0.382831 0.686589 0.145564
N1    N     N_R   0.851999 0.492145 0.507923 -0.365306
N2    N     N_R   0.147662 0.495788 0.522755 -0.360899
N3    N     N_R   0.499610 0.499140 0.142800 -0.122455
N4    N     N_R   0.499610 0.499180 0.857150 -0.120230
O1    O     O_R   0.500010 0.316790 0.614690 -0.602906
O2    O     O_2   0.851183 0.275046 0.471558 -0.552803
O3    O     O_2   0.148585 0.278025 0.491152 -0.549593
O4    O     O_2   0.149741 0.713280 0.556203 -0.550725
O5    O     O_R   0.500000 0.316760 0.385350 -0.626927
O6    O     O_R   0.416160 0.499980 0.614700 -0.614689
O7    O     O_R   0.416150 0.499940 0.385360 -0.633728
O8    O     O_R   0.500000 0.683240 0.614650 -0.612770
O9    O     O_R   0.499990 0.683210 0.385310 -0.619004
O10   O     O_R   0.583850 0.500060 0.614640 -0.623186
O11   O     O_R   0.583840 0.500020 0.385300 -0.622977
O12   O     O_2   0.849026 0.708069 0.546262 -0.522659
Zn1   Zn    Zn3+2 0.500000 0.500020 0.653130 0.946263
Zn2   Zn    Zn3+2 0.500000 0.499980 0.346870 0.938230
N5    N     N_3   0.447890 0.115116 0.781971 -0.456747
H20   H     H_    0.419145 0.072414 0.717514 0.184577
H21   H     H_    0.434399 0.090993 0.880567 0.167647
C45   C     C_3   0.549643 0.129927 0.849219 -0.353480
C46   C     C_3   0.612505 0.108515 0.808657 -0.865751
H22   H     H_    0.622388 0.007417 0.808330 0.260968
H23   H     H_    0.622893 0.149559 0.707343 0.258145
H24   H     H_    0.640190 0.155276 0.882269 0.249017
H25   H     H_    0.542642 0.232400 0.848637 0.226682
H26   H     H_    0.541635 0.096084 0.954579 0.190652
C47   C     C_3   0.596831 0.616195 0.117411 -0.366009
C48   C     C_3   0.589611 0.743475 0.184025 -0.768476
H27   H     H_    0.547708 0.784336 0.161469 0.250198
H28   H     H_    0.594950 0.735482 0.294196 0.262248
H29   H     H_    0.623384 0.809873 0.145009 0.222214
H30   H     H_    0.618586 0.546670 0.178019 0.219359
H31   H     H_    0.628992 0.631256 0.033222 0.162484
N6    N     N_3   0.374149 0.309901 0.143325 -0.425021
H32   H     H_    0.395444 0.232255 0.103773 0.182040
H33   H     H_    0.381135 0.310241 0.246766 0.217685
N7    N     N_3   0.942444 0.838506 0.567568 -0.367792
H34   H     H_    0.957845 0.899268 0.490990 0.184319
H35   H     H_    0.953545 0.876540 0.659983 0.191166

loop_
_geom_bond_atom_site_label_1
_geom_bond_atom_site_label_2
_ccdc_geom_bond_type
O1    Zn1   S    
C22   H4    S    
C48   H27   S    
C12   O7    A    
C11   C13   A    
C41   C42   A    
C19   C20   A    
C23   O9    A    
C45   H26   S    
C19   H2    S    
C47   H31   S    
C7    C8    A    
C13   H16   S    
C45   C46   S    
C26   C27   A    
C33   C39   S    
C18   C24   A    
C23   C29   S    
C28   C29   A    
C37   C38   S    
C34   O10   A    
C30   C31   S    
C46   H23   S    
C18   H19   S    
C10   N2    A    
C15   C16   A    
C39   H13   S    
C1    O1    A    
C18   C19   A    
C28   H6    S    
C38   H11   S    
C31   C32   S    
C16   C17   A    
C33   N3    A    
O8    Zn1   S    
C31   H8    S    
C7    H14   S    
O5    Zn2   S    
C20   C34   S    
C10   O4    S    
C25   C32   S    
C5    C43   A    
C24   N1    S    
C21   C22   A    
C16   H18   S    
C11   H15   S    
C12   O6    A    
C47   H30   S    
C2    H1    S    
C38   C39   S    
C36   N4    A    
C1    O5    A    
C9    O3    S    
C23   O8    A    
C46   H22   S    
C35   N3    A    
C25   C26   A    
C33   C37   A    
C35   C36   A    
C43   C44   A    
C29   C30   A    
C39   N6    S    
N6    H32   S    
C15   H17   S    
C40   O12   S    
N7    H35   S    
N6    H33   S    
C12   C14   S    
C48   H29   S    
N5    H21   S    
C1    C26   S    
C22   C24   A    
C42   C43   A    
O7    Zn2   S    
C3    C4    A    
C41   O2    S    
O10   Zn1   S    
C25   C30   A    
C11   C17   A    
N4    Zn1   S    
C8    C44   A    
C31   H7    S    
C4    C5    A    
C46   H24   S    
O9    Zn2   S    
C6    C10   A    
C45   H25   S    
C6    C7    A    
C32   N5    S    
C17   N2    S    
C40   N1    A    
C2    C3    A    
C35   C47   S    
N3    Zn2   S    
C3    H9    S    
O11   Zn2   S    
C5    C6    A    
C2    C42   A    
C32   C45   S    
C37   N4    A    
C47   C48   S    
O6    Zn1   S    
N7    H34   S    
C9    N2    A    
C36   H10   S    
C40   C44   A    
C38   H12   S    
C20   C21   A    
C48   H28   S    
N5    H20   S    
C27   C28   A    
C14   C15   A    
C41   N1    A    
C4    C9    A    
C13   C14   A    
C8    N7    S    
C34   O11   A    
C27   H5    S    
C21   H3    S    
