data_mof_unit_67573.cif
_audit_creation_date              2012-12-10T16:47:32-0500
_audit_creation_method            fapswitch 2.2
_symmetry_space_group_name_H-M    P1
_symmetry_Int_Tables_number       1
_space_group_crystal_system       triclinic
_cell_length_a                    10.669373
_cell_length_b                    8.778796
_cell_length_c                    7.548158
_cell_angle_alpha                 102.775163
_cell_angle_beta                  94.35964
_cell_angle_gamma                 93.201719
_cell_volume                      685.574229047

loop_
_atom_site_label
_atom_site_type_symbol
_atom_type_description
_atom_site_fract_x
_atom_site_fract_y
_atom_site_fract_z
_atom_type_partial_charge
C1    C     C_R   0.494194 0.200717 0.454948 0.860869
C2    C     C_R   0.505969 0.799316 0.545111 0.870543
C3    C     C_R   0.260713 0.507681 0.502992 0.908635
C4    C     C_R   0.739196 0.492281 0.496863 0.902559
C5    C     C_3   0.048339 0.536395 0.674371 0.362566
C6    C     C_3   0.951286 0.463538 0.323850 0.326698
C7    C     C_3   0.962657 0.389400 0.582587 0.062552
C8    C     C_3   0.037096 0.610683 0.416502 0.055090
C9    C     C_3   0.875274 0.489101 0.492778 -0.319396
C10   C     C_3   0.124383 0.510857 0.506210 -0.309789
C11   C     C_3   0.961228 0.636963 0.583767 0.323331
C12   C     C_3   0.038445 0.362954 0.415000 0.271947
C13   C     C_2   0.472931 0.034908 0.437187 0.089741
C14   C     C_2   0.527264 0.965215 0.563143 0.076621
Cu1   Cu    Cu3+1 0.514140 0.517380 0.684380 1.080445
Cu2   Cu    Cu3+1 0.485860 0.482620 0.315620 1.068262
N1    N     N_2   0.464560 0.456420 0.038510 0.042492
N2    N     N_2   0.535440 0.543580 0.961490 0.045375
O1    O     O_R   0.509190 0.286130 0.619780 -0.546392
O2    O     O_R   0.490810 0.713870 0.380220 -0.552960
O3    O     O_R   0.485310 0.256770 0.308360 -0.576356
O4    O     O_R   0.514690 0.743230 0.691640 -0.577275
O5    O     O_R   0.328790 0.514640 0.655680 -0.560678
O6    O     O_R   0.671210 0.485360 0.344320 -0.566372
O7    O     O_R   0.304910 0.485280 0.344260 -0.565987
O8    O     O_R   0.695090 0.514720 0.655740 -0.542148
N3    N     N_2   0.919781 0.266402 0.667835 -0.330873
H1    H     H_    0.851382 0.189335 0.586387 0.291213
C15   C     C_3   0.018474 0.188455 0.746153 -0.343694
H2    H     H_    0.978680 0.124546 0.842602 0.303785
H3    H     H_    0.093551 0.274039 0.824721 0.224371
H4    H     H_    0.059823 0.104405 0.637904 0.228164
N4    N     N_2   0.080697 0.735872 0.335499 -0.368648
H5    H     H_    0.156088 0.708712 0.260579 0.342425
C16   C     C_3   0.982951 0.809365 0.248566 -0.363494
H6    H     H_    0.025349 0.880786 0.161513 0.300167
H7    H     H_    0.932562 0.885838 0.352766 0.230475
H8    H     H_    0.914840 0.720811 0.158506 0.230156
Cl1   Cl    Cl    0.111370 0.603792 0.902900 -0.588194
Cl2   Cl    Cl    0.889753 0.394977 0.093135 -0.531548
Cl3   Cl    Cl    0.904633 0.815093 0.699939 -0.614329
Cl4   Cl    Cl    0.096087 0.185547 0.299379 -0.610773
N5    N     N_2   0.367374 0.367126 0.927061 -0.291801
H9    H     H_    0.283199 0.414994 0.950423 0.289324
C17   C     C_3   0.358728 0.204755 0.937287 -0.440611
H10   H     H_    0.453680 0.161480 0.951934 0.270346
H11   H     H_    0.307214 0.133422 0.810049 0.191857
H12   H     H_    0.305797 0.189684 0.053972 0.269101
N6    N     N_2   0.632460 0.633043 0.073267 -0.289624
H13   H     H_    0.716677 0.584686 0.051836 0.293751
C18   C     C_3   0.641874 0.795103 0.061937 -0.447901
H14   H     H_    0.547140 0.839305 0.048610 0.269778
H15   H     H_    0.694130 0.808922 0.944204 0.269902
H16   H     H_    0.694527 0.866451 0.188235 0.184550
Cl5   Cl    Cl    0.354317 0.939955 0.264866 -0.600979
Cl6   Cl    Cl    0.645164 0.060555 0.736642 -0.597267

loop_
_geom_bond_atom_site_label_1
_geom_bond_atom_site_label_2
_ccdc_geom_bond_type
C2    O4    A    
Cu1   N2    S    
C4    O8    A    
N5    H9    S    
N1    N5    S    
C1    O3    A    
Cu2   O3    S    
Cu2   O7    S    
N3    C15   S    
C9    C11   S    
C14   Cl6   S    
C3    O5    A    
C16   H6    S    
Cu2   O2    S    
C18   H16   S    
C13   Cl5   S    
C6    C9    S    
Cu1   O5    S    
N1    N2    D    
C5    C10   S    
Cu2   O6    S    
C3    C10   S    
C13   C14   D    
Cu1   O1    S    
N5    C17   S    
C15   H2    S    
C12   Cl4   S    
C10   C12   S    
C8    C11   S    
C2    C14   S    
C8    C10   S    
N4    C16   S    
N4    H5    S    
C11   Cl3   S    
C15   H4    S    
C8    N4    S    
C5    Cl1   S    
C5    C11   S    
C6    C12   S    
C7    C12   S    
C4    O6    A    
C6    Cl2   S    
C1    O1    A    
C1    C13   S    
Cu1   Cu2   S    
C2    O2    A    
C18   H14   S    
C7    C9    S    
C3    O7    A    
C16   H8    S    
C7    N3    S    
C15   H3    S    
N6    H13   S    
C17   H11   S    
N3    H1    S    
C5    C7    S    
Cu1   O8    S    
C6    C8    S    
C17   H12   S    
C16   H7    S    
C4    C9    S    
C17   H10   S    
Cu1   O4    S    
N6    C18   S    
N2    N6    S    
Cu2   N1    S    
C18   H15   S    
