data_mof_unit_46910.cif
_audit_creation_date              2013-03-05T15:49:32-0500
_audit_creation_method            fapswitch 2.2
_symmetry_space_group_name_H-M    P1
_symmetry_Int_Tables_number       1
_space_group_crystal_system       triclinic
_cell_length_a                    25.196442
_cell_length_b                    7.225541
_cell_length_c                    22.180052
_cell_angle_alpha                 90.000097
_cell_angle_beta                  109.539193
_cell_angle_gamma                 90.001189
_cell_volume                      3805.51452854

loop_
_atom_site_label
_atom_site_type_symbol
_atom_site_description
_atom_site_fract_x
_atom_site_fract_y
_atom_site_fract_z
_atom_type_partial_charge
O1    O     O_R   0.554350 0.505270 0.581390 -0.590526
O2    O     O_R   0.445650 0.005270 0.418610 -0.590514
O3    O     O_R   0.553380 0.177580 0.454800 -0.552684
O4    O     O_R   0.446620 0.677580 0.545200 -0.552694
C1    C     C_R   0.564299 0.342399 0.435806 1.136179
C2    C     C_R   0.435704 0.842398 0.564197 1.136196
O5    O     O_R   0.560970 0.175640 0.583140 -0.561061
O6    O     O_R   0.439030 0.675640 0.416860 -0.561100
O7    O     O_R   0.453290 0.004120 0.547860 -0.551540
O8    O     O_R   0.546710 0.504120 0.452140 -0.551576
C3    C     C_R   0.577499 0.345616 0.607020 1.090661
C4    C     C_R   0.422499 0.845613 0.392981 1.090629
O9    O     O_3   0.464660 0.338800 0.488280 -0.264332
O10   O     O_3   0.535340 0.838800 0.511720 -0.264360
V1    V     V_3+5 0.506560 0.064420 0.502170 1.386281
V2    V     V_3+5 0.493440 0.564420 0.497830 1.386265
C5    C     C_R   0.139640 0.903363 0.286152 0.520965
C6    C     C_R   0.860364 0.403170 0.713854 0.520954
C7    C     C_R   0.118202 0.936519 0.171642 -0.506454
C8    C     C_R   0.881799 0.436498 0.828357 -0.506462
C9    C     C_R   0.393051 0.851701 0.274248 0.568110
C10   C     C_R   0.606943 0.351824 0.725752 0.568170
C11   C     C_R   0.353228 0.826961 0.213413 -0.246979
C12   C     C_R   0.646763 0.327140 0.786592 -0.247001
C13   C     C_R   0.296207 0.832997 0.204331 -0.068425
C14   C     C_R   0.703785 0.333127 0.795676 -0.068411
C15   C     C_R   0.276457 0.883820 0.254286 0.131695
C16   C     C_R   0.723541 0.383835 0.745714 0.131699
C17   C     C_R   0.316500 0.887515 0.318118 -0.164754
C18   C     C_R   0.683500 0.387462 0.681880 -0.164775
C19   C     C_R   0.217404 0.916473 0.242717 -0.076513
C20   C     C_R   0.782597 0.416439 0.757281 -0.076514
C21   C     C_R   0.198197 0.920693 0.295950 -0.309040
C22   C     C_R   0.801807 0.420538 0.704049 -0.309054
C23   C     C_R   0.237691 0.943627 0.357859 0.276658
C24   C     C_R   0.762317 0.443390 0.642135 0.276684
C25   C     C_R   0.295607 0.925408 0.368441 0.249792
C26   C     C_R   0.704399 0.425220 0.631552 0.249803
C27   C     C_R   0.176512 0.945457 0.180359 0.292002
C28   C     C_R   0.823489 0.445488 0.819636 0.292023
C29   C     C_R   0.100149 0.913443 0.224582 0.243570
C30   C     C_R   0.899852 0.413318 0.775423 0.243584
C31   C     C_R   0.376031 0.859188 0.328422 -0.266021
C32   C     C_R   0.623966 0.359204 0.671578 -0.266016
H1    H     H_    0.268200 0.797022 0.157331 0.185323
H2    H     H_    0.731788 0.297201 0.842683 0.185316
H3    H     H_    0.366513 0.803815 0.172352 0.161066
H4    H     H_    0.633474 0.304078 0.827656 0.161054
C33   C     C_R   0.107067 0.777477 0.865233 -0.084383
C34   C     C_R   0.892947 0.277464 0.134778 -0.084382
H5    H     H_    0.082895 0.655459 0.867669 0.170699
H6    H     H_    0.917115 0.155449 0.132335 0.170727
C35   C     C_R   0.141550 0.771562 0.827212 -0.048701
C36   C     C_R   0.858471 0.271542 0.172808 -0.048679
H7    H     H_    0.143683 0.644522 0.802220 0.194725
H8    H     H_    0.856340 0.144500 0.197799 0.194737
C37   C     C_R   0.173918 0.925637 0.822432 -0.089251
C38   C     C_R   0.826106 0.425613 0.177596 -0.089258
C39   C     C_R   0.169926 0.090468 0.855476 0.369067
C40   C     C_R   0.830096 0.590448 0.144552 0.369063
C41   C     C_R   0.135113 0.094346 0.893657 -0.150618
C42   C     C_R   0.864901 0.594333 0.106362 -0.150601
H9    H     H_    0.132137 0.221137 0.918379 0.181904
H10   H     H_    0.867874 0.721128 0.081641 0.181915
C43   C     C_R   0.103390 0.938882 0.899020 -0.172653
C44   C     C_R   0.896619 0.438873 0.100990 -0.172708
N1    N     N_R   0.265598 0.980243 0.807603 -0.018735
N2    N     N_R   0.734432 0.480220 0.192433 -0.018734
N3    N     N_R   0.300046 0.969375 0.773391 -0.029432
N4    N     N_R   0.699986 0.469352 0.226648 -0.029401
C45   C     C_R   0.283171 0.887853 0.714768 0.201806
C46   C     C_R   0.716861 0.387818 0.285269 0.201816
N5    N     N_R   0.230851 0.811327 0.692950 -0.028977
N6    N     N_R   0.769177 0.311276 0.307081 -0.028964
N7    N     N_R   0.196406 0.821381 0.727328 -0.029987
N8    N     N_R   0.803621 0.321331 0.272701 -0.029976
C47   C     C_R   0.212761 0.908909 0.784900 0.232977
C48   C     C_R   0.787266 0.408875 0.215132 0.232963
C49   C     C_R   0.317324 0.731904 0.634130 -0.213437
C50   C     C_R   0.682685 0.231853 0.365887 -0.213338
H11   H     H_    0.285530 0.626890 0.629727 0.193149
H12   H     H_    0.714464 0.126800 0.370278 0.193138
C51   C     C_R   0.354267 0.710832 0.599099 0.427067
C52   C     C_R   0.645729 0.210787 0.400903 0.427096
C53   C     C_R   0.397617 0.845510 0.604886 -0.481691
C54   C     C_R   0.602394 0.345512 0.395125 -0.481688
C55   C     C_R   0.403393 0.990571 0.649887 0.291278
C56   C     C_R   0.596642 0.490610 0.350142 0.291332
C57   C     C_R   0.363863 0.014171 0.681990 0.461581
C58   C     C_R   0.636188 0.514202 0.318057 0.461650
C59   C     C_R   0.321374 0.880608 0.675714 -0.152439
C60   C     C_R   0.678659 0.380591 0.324324 -0.152495
O11   O     O_R   0.953220 0.285790 0.047790 -0.605505
O12   O     O_R   0.046780 0.785790 0.952210 -0.605501
O13   O     O_R   0.939020 0.617570 0.916840 -0.590703
O14   O     O_R   0.060980 0.117570 0.083160 -0.590741
C61   C     C_R   0.924651 0.448367 0.892798 1.120915
C62   C     C_R   0.075350 0.948371 0.107202 1.120966
O15   O     O_R   0.946600 0.615450 0.045180 -0.574925
O16   O     O_R   0.053400 0.115450 0.954820 -0.574938
O17   O     O_R   0.054370 0.786770 0.081410 -0.564011
O18   O     O_R   0.945630 0.286770 0.918590 -0.564016
C63   C     C_R   0.934633 0.447130 0.061968 1.031845
C64   C     C_R   0.065369 0.947132 0.938034 1.031874
O19   O     O_3   0.035300 0.454160 0.011680 -0.290414
O20   O     O_3   0.964700 0.954160 0.988320 -0.290401
V3    V     V_3+5 0.993450 0.728620 0.997830 1.276115
V4    V     V_3+5 0.006550 0.228620 0.002170 1.276092
N9    N     N_R   0.041131 0.904284 0.216571 0.247178
O21   O     O_R   0.020511 0.008215 0.251261 -0.307061
O22   O     O_R   0.009088 0.779877 0.179514 -0.409959
N10   N     N_R   0.958871 0.404120 0.783437 0.247176
O23   O     O_R   0.979498 0.508022 0.748746 -0.307073
O24   O     O_R   0.990901 0.279678 0.820487 -0.409921
N11   N     N_R   0.198690 0.257066 0.848733 0.229478
O25   O     O_R   0.216166 0.373114 0.896162 -0.380571
O26   O     O_R   0.200066 0.306718 0.792873 -0.395776
N12   N     N_R   0.801335 0.757044 0.151303 0.229478
O27   O     O_R   0.783853 0.873093 0.103877 -0.380589
O28   O     O_R   0.799970 0.806691 0.207168 -0.395766
N13   N     N_R   0.345250 0.552298 0.557640 0.276197
O29   O     O_R   0.384312 0.427973 0.566360 -0.300423
O30   O     O_R   0.294127 0.509144 0.522310 -0.279456
N14   N     N_R   0.654709 0.052178 0.442324 0.276200
O31   O     O_R   0.615622 0.927908 0.433559 -0.300555
O32   O     O_R   0.705820 0.008902 0.477654 -0.279458
N15   N     N_R   0.451511 0.109809 0.666294 0.273339
O33   O     O_R   0.446277 0.284322 0.677423 -0.272420
O34   O     O_R   0.501617 0.038311 0.680434 -0.400840
N16   N     N_R   0.548517 0.609826 0.333714 0.273348
O35   O     O_R   0.553730 0.784279 0.322448 -0.272356
O36   O     O_R   0.498414 0.538257 0.319561 -0.400825
O37   O     O_3   0.368784 0.167789 0.720415 -0.676520
H13   H     H_    0.330341 0.213771 0.714625 0.333321
O38   O     O_3   0.631297 0.667846 0.279651 -0.676454
H14   H     H_    0.669749 0.713786 0.285460 0.333307
N17   N     N_R   0.219632 0.999284 0.410231 0.272758
O39   O     O_R   0.189970 0.149285 0.405732 -0.278583
O40   O     O_R   0.232763 0.901206 0.462390 -0.291911
N18   N     N_R   0.780381 0.498915 0.589753 0.272757
O41   O     O_R   0.810044 0.648902 0.594219 -0.278562
O42   O     O_R   0.767250 0.400735 0.537616 -0.291951
O43   O     O_3   0.119599 0.860316 0.335210 -0.623752
H15   H     H_    0.145503 0.767709 0.362886 0.351011
O44   O     O_3   0.880406 0.360018 0.664805 -0.623755
H16   H     H_    0.854502 0.267371 0.637147 0.351000
N19   N     N_R   0.193183 0.011057 0.128147 0.223852
O45   O     O_R   0.226469 0.153436 0.136163 -0.365461
O46   O     O_R   0.174022 0.932971 0.072133 -0.442771
N20   N     N_R   0.806819 0.511194 0.871836 0.223867
O47   O     O_R   0.773541 0.653598 0.863797 -0.365464
O48   O     O_R   0.825973 0.433181 0.927863 -0.442772
O49   O     O_3   0.449031 0.874096 0.281659 -0.679632
H17   H     H_    0.453707 0.874259 0.238973 0.352470
O50   O     O_3   0.550963 0.374258 0.718336 -0.679645
H18   H     H_    0.546282 0.374465 0.761019 0.352431
N21   N     N_R   0.332234 0.923851 0.432455 0.197592
O51   O     O_R   0.343278 0.763347 0.459576 -0.425837
O52   O     O_R   0.339665 0.073150 0.467105 -0.337478
N22   N     N_R   0.667774 0.423587 0.567537 0.197546
O53   O     O_R   0.656712 0.263043 0.540446 -0.425734
O54   O     O_R   0.660362 0.572826 0.532859 -0.337660

loop_
_geom_bond_atom_site_label_1
_geom_bond_atom_site_label_2
_geom_bond_distance
_ccdc_geom_bond_type
O17   V3    2.016395 S    
O15   C63   1.335596 A    
C33   C35   1.399307 A    
O4    V2    1.998311 S    
N21   O51   1.293177 A    
C15   C17   1.437931 A    
N19   O45   1.301385 A    
N1    C47   1.357620 A    
C56   N16   1.431649 S    
C50   C52   1.406115 A    
C6    O44   1.379578 S    
O2    C4    1.331302 A    
O11   C63   1.332590 A    
C2    O7    1.341821 A    
C55   N15   1.431606 S    
O44   H16   0.991265 S    
O38   H14   0.990934 S    
O5    C3    1.347146 A    
N17   O40   1.301556 A    
C7    C29   1.403809 A    
C34   C36   1.399305 A    
C2    C53   1.521598 S    
C33   C43   1.405962 A    
C7    C27   1.417790 A    
C10   C12   1.397790 A    
N19   O46   1.301434 A    
C12   C14   1.383128 A    
C4    C31   1.519684 S    
C6    C30   1.396915 A    
O11   V4    1.977267 S    
C46   C60   1.495789 S    
C54   C56   1.420884 A    
C37   C39   1.419531 A    
O20   V3    1.767156 S    
C38   C40   1.419533 A    
O43   H15   0.991263 S    
O16   C64   1.335590 A    
C18   C26   1.411023 A    
C40   C42   1.408629 A    
C25   N21   1.411117 S    
C41   H9    1.083100 S    
C30   N10   1.438934 S    
N12   O27   1.301448 A    
C42   H10   1.083100 S    
C9    C31   1.405464 A    
C55   C57   1.415101 A    
C10   C32   1.405480 A    
C8    C61   1.477750 S    
N11   O26   1.301434 A    
O1    C3    1.331301 A    
C34   H6    1.083106 S    
C19   C21   1.418259 A    
O18   V4    2.016410 S    
C57   C59   1.413184 A    
C49   C59   1.397362 A    
C61   O18   1.329587 A    
O5    V1    2.025749 S    
O14   V4    2.025771 S    
O12   C64   1.332591 A    
O6    V2    2.025774 S    
C29   N9    1.438946 S    
C17   C31   1.454212 A    
N5    N7    1.335126 A    
C18   C32   1.454213 A    
C5    C21   1.423130 A    
N10   O24   1.300589 A    
N10   O23   1.301262 A    
C7    C62   1.477744 S    
C5    C29   1.396924 A    
C10   O50   1.373911 S    
C35   H7    1.082900 S    
N2    C48   1.357615 A    
O19   V4    1.767128 S    
C36   H8    1.082901 S    
O12   V3    1.977256 S    
C39   C41   1.408634 A    
O16   V4    1.998601 S    
C42   C44   1.406559 A    
C53   C55   1.420866 A    
C15   C19   1.442241 A    
C12   H4    1.083246 S    
C37   C47   1.486755 S    
C16   C20   1.442249 A    
C57   O37   1.379518 S    
N18   O41   1.301293 A    
C46   N6    1.360507 A    
C45   N5    1.360508 A    
C35   C37   1.404837 A    
C33   H5    1.083106 S    
O14   C62   1.334527 A    
N1    N3    1.332650 A    
C20   C22   1.418270 A    
C50   C60   1.397347 A    
N16   O36   1.301738 A    
N15   O34   1.301653 A    
C34   C44   1.405967 A    
C58   C60   1.413173 A    
O6    C4    1.347147 A    
C28   N20   1.437928 S    
C3    C32   1.519673 S    
O1    V2    2.017520 S    
C51   N13   1.438610 S    
C40   N12   1.438462 S    
O2    V1    2.017506 S    
N7    C47   1.359557 A    
N13   O29   1.298378 A    
O13   V3    2.025746 S    
C1    C54   1.521621 S    
C39   N11   1.438462 S    
C51   C53   1.436194 A    
C56   C58   1.415144 A    
C9    C11   1.397790 A    
O37   H13   0.990924 S    
N20   O48   1.301433 A    
O4    C2    1.322481 A    
C52   N14   1.438619 S    
N6    N8    1.335133 A    
C17   C25   1.411018 A    
N15   O33   1.300044 A    
C13   H1    1.077139 S    
C20   C28   1.437092 A    
O3    V1    1.998292 S    
N14   O32   1.302049 A    
C36   C38   1.404833 A    
C23   C25   1.404570 A    
N20   O47   1.301385 A    
C44   C63   1.491496 S    
N8    C48   1.359566 A    
O3    C1    1.322481 A    
C8    C30   1.403806 A    
O13   C61   1.334536 A    
N18   O42   1.301559 A    
C13   C15   1.406770 A    
C62   O17   1.329588 A    
O15   V3    1.998582 S    
N17   O39   1.301290 A    
C14   C16   1.406773 A    
N3    C45   1.359645 A    
C5    O43   1.379577 S    
N22   O53   1.293194 A    
C11   H3    1.083247 S    
N9    O22   1.300590 A    
N16   O35   1.300209 A    
O7    V1    1.981967 S    
C26   N22   1.411122 S    
C1    O8    1.341834 A    
O8    V2    1.981980 S    
N9    O21   1.301259 A    
C23   N17   1.439341 S    
C24   C26   1.404566 A    
C49   C51   1.406116 A    
C58   O38   1.379521 S    
C6    C22   1.423130 A    
C8    C28   1.417791 A    
C16   C18   1.437931 A    
C21   C23   1.410379 A    
C50   H12   1.083838 S    
C19   C27   1.437083 A    
C22   C24   1.410377 A    
C24   N18   1.439343 S    
C49   H11   1.083835 S    
N12   O28   1.301434 A    
N13   O30   1.302042 A    
C38   C48   1.486754 S    
C41   C43   1.406561 A    
C11   C13   1.383122 A    
C45   C59   1.495802 S    
N21   O52   1.301230 A    
O9    V2    1.767924 S    
C27   N19   1.437929 S    
O50   H18   0.992411 S    
N2    N4    1.332641 A    
C9    O49   1.373898 S    
O10   V1    1.767953 S    
C52   C54   1.436209 A    
N4    C46   1.359644 A    
C43   C64   1.491502 S    
O49   H17   0.992407 S    
C14   H2    1.077141 S    
N11   O25   1.301447 A    
N22   O54   1.301235 A    
N14   O31   1.298398 A    
