data_mof_unit_30487.cif
_audit_creation_date              2012-12-10T18:45:02-0500
_audit_creation_method            fapswitch 2.2
_symmetry_space_group_name_H-M    P1
_symmetry_Int_Tables_number       1
_space_group_crystal_system       triclinic
_cell_length_a                    19.447133
_cell_length_b                    18.165417
_cell_length_c                    10.798831
_cell_angle_alpha                 89.884215
_cell_angle_beta                  89.963094
_cell_angle_gamma                 90.050105
_cell_volume                      3814.84201731

loop_
_atom_site_label
_atom_site_type_symbol
_atom_type_description
_atom_site_fract_x
_atom_site_fract_y
_atom_site_fract_z
_atom_type_partial_charge
C1    C     C_R   0.367576 0.500009 0.499402 0.760654
C2    C     C_R   0.292127 0.499976 0.498366 -0.041954
C3    C     C_R   0.964423 0.552916 0.430558 -0.179902
C4    C     C_R   0.036023 0.552957 0.430572 -0.180176
C5    C     C_R   0.072275 0.499713 0.498393 0.097804
C6    C     C_R   0.928005 0.499763 0.498712 0.099573
C7    C     C_R   0.035949 0.446472 0.566330 -0.180105
C8    C     C_R   0.964347 0.446561 0.566655 -0.180031
C9    C     C_R   0.457280 0.720807 0.578086 0.087091
C10   C     C_R   0.542383 0.720986 0.421203 0.076040
C11   C     C_R   0.456396 0.798069 0.579219 -0.291423
C12   C     C_R   0.632440 0.500042 0.499887 0.764830
C13   C     C_R   0.543071 0.798251 0.419435 -0.292153
C14   C     C_R   0.499787 0.837641 0.499348 0.103285
C15   C     C_R   0.500263 0.500169 0.262607 0.806103
C16   C     C_R   0.498484 0.499925 0.737425 0.808362
C17   C     C_R   0.538648 0.959759 0.588117 0.083333
C18   C     C_R   0.461112 0.959932 0.410295 0.083846
C19   C     C_R   0.537059 0.037405 0.588503 -0.216712
C20   C     C_R   0.462587 0.037618 0.410257 -0.215803
C21   C     C_R   0.499814 0.077669 0.499470 0.065552
C22   C     C_R   0.499825 0.920033 0.499266 0.046512
C23   C     C_R   0.852256 0.499843 0.498995 0.109800
C24   C     C_R   0.443725 0.201566 0.453228 -0.285168
C25   C     C_R   0.556120 0.201413 0.546217 -0.283962
C26   C     C_R   0.445167 0.278875 0.452995 0.083842
C27   C     C_R   0.554785 0.278726 0.546851 0.083598
C28   C     C_R   0.499889 0.160966 0.499621 0.136893
C29   C     C_R   0.619445 0.455518 0.127677 -0.152036
C30   C     C_R   0.618927 0.456481 0.870063 -0.152520
C31   C     C_R   0.678045 0.434439 0.062577 -0.138868
C32   C     C_R   0.677814 0.435010 0.933965 -0.143754
C33   C     C_R   0.558440 0.477508 0.934392 0.059941
C34   C     C_R   0.147904 0.499782 0.498395 0.108471
C35   C     C_R   0.558782 0.477226 0.064554 0.060113
C36   C     C_R   0.499515 0.500650 0.128793 -0.164703
C37   C     C_R   0.498271 0.499582 0.871373 -0.157633
C38   C     C_R   0.439756 0.525294 0.066142 0.042929
C39   C     C_R   0.438231 0.522256 0.935331 0.115449
C40   C     C_R   0.744168 0.433447 0.490371 -0.204649
C41   C     C_R   0.255809 0.433771 0.483563 -0.195386
C42   C     C_R   0.815758 0.433394 0.489908 -0.175535
C43   C     C_R   0.184218 0.433685 0.483720 -0.171340
C44   C     C_3   0.378594 0.555169 0.139765 -0.376716
C45   C     C_R   0.816003 0.566373 0.508378 -0.173111
C46   C     C_3   0.380657 0.639670 0.144908 -0.332482
C47   C     C_3   0.321923 0.669993 0.223233 -0.852037
C48   C     C_3   0.372522 0.540020 0.862666 -0.419804
C49   C     C_3   0.335237 0.470324 0.817445 -0.340393
C50   C     C_3   0.305777 0.423866 0.922857 -0.812168
C51   C     C_3   0.583598 0.921300 0.682704 -0.406034
C52   C     C_3   0.548045 0.917723 0.809199 -0.337333
C53   C     C_3   0.592613 0.877288 0.903601 -0.859818
C54   C     C_3   0.416799 0.921568 0.314715 -0.409414
C55   C     C_3   0.452174 0.920833 0.187902 -0.331899
C56   C     C_R   0.184158 0.565942 0.513426 -0.168933
C57   C     C_3   0.409604 0.878212 0.093412 -0.873034
C58   C     C_R   0.744406 0.566476 0.508521 -0.184479
C59   C     C_R   0.255729 0.566015 0.513889 -0.208786
C60   C     C_R   0.707918 0.500002 0.499621 -0.033394
Cu1   Cu    Cu3+1 0.500000 0.573360 0.500000 0.923833
Cu2   Cu    Cu3+1 0.500000 0.426640 0.500000 0.927814
H1    H     H_    0.423661 0.690518 0.639678 0.107572
H2    H     H_    0.598104 0.308433 0.584668 0.117312
H3    H     H_    0.622668 0.455300 0.227634 0.132467
H4    H     H_    0.621720 0.456790 0.770080 0.131656
H5    H     H_    0.723945 0.418137 0.112203 0.135058
H6    H     H_    0.723523 0.419112 0.883406 0.133671
H7    H     H_    0.717296 0.381404 0.482801 0.144117
H8    H     H_    0.282629 0.382055 0.471544 0.141533
H9    H     H_    0.842592 0.381464 0.480895 0.124351
H10   H     H_    0.157188 0.382109 0.470874 0.124595
H11   H     H_    0.843037 0.618247 0.517146 0.124531
H12   H     H_    0.575878 0.690821 0.359509 0.119679
H13   H     H_    0.157089 0.617408 0.526717 0.125649
H14   H     H_    0.717713 0.618571 0.516237 0.148404
H15   H     H_    0.282471 0.617659 0.527685 0.142288
H16   H     H_    0.937524 0.593804 0.375917 0.126573
H17   H     H_    0.063110 0.593925 0.376200 0.126976
H18   H     H_    0.062976 0.405516 0.620650 0.126938
H19   H     H_    0.937391 0.405708 0.621450 0.125112
H20   H     H_    0.271589 0.651658 0.185764 0.251080
H21   H     H_    0.327162 0.650888 0.320343 0.267609
H22   H     H_    0.323505 0.731073 0.222443 0.234644
H23   H     H_    0.421992 0.826744 0.641463 0.127039
H24   H     H_    0.430165 0.658258 0.185579 0.239763
H25   H     H_    0.376997 0.663191 0.050176 0.203015
H26   H     H_    0.329074 0.535764 0.101623 0.195198
H27   H     H_    0.377427 0.533098 0.235449 0.192112
H28   H     H_    0.347092 0.405964 0.987071 0.259093
H29   H     H_    0.266257 0.455487 0.974409 0.239442
H30   H     H_    0.280880 0.374004 0.883895 0.233723
H31   H     H_    0.291924 0.487296 0.756917 0.214578
H32   H     H_    0.370323 0.435709 0.761346 0.231128
H33   H     H_    0.335619 0.574506 0.914292 0.193541
H34   H     H_    0.577260 0.827072 0.356718 0.129762
H35   H     H_    0.385149 0.574891 0.781401 0.167913
H36   H     H_    0.601763 0.819712 0.873312 0.258316
H37   H     H_    0.642748 0.905846 0.914787 0.251415
H38   H     H_    0.566193 0.876066 0.994632 0.241475
H39   H     H_    0.537768 0.974329 0.843461 0.216763
H40   H     H_    0.498172 0.888365 0.800312 0.216285
H41   H     H_    0.597167 0.864792 0.652344 0.210308
H42   H     H_    0.633103 0.951582 0.691298 0.187530
H43   H     H_    0.405637 0.819469 0.121141 0.256282
H44   H     H_    0.357220 0.902099 0.085696 0.253414
H45   H     H_    0.565268 0.066169 0.659945 0.133614
H46   H     H_    0.434700 0.881197 0.001311 0.242219
H47   H     H_    0.459354 0.978183 0.154150 0.216339
H48   H     H_    0.503559 0.894591 0.196087 0.216117
H49   H     H_    0.404565 0.864248 0.343035 0.211218
H50   H     H_    0.366624 0.950600 0.307469 0.186599
H51   H     H_    0.434396 0.066579 0.338884 0.133063
H52   H     H_    0.398258 0.174252 0.418472 0.121989
H53   H     H_    0.601566 0.173988 0.580806 0.122285
H54   H     H_    0.401898 0.308701 0.415282 0.115834
N1    N     N_R   0.500000 0.683620 0.500000 -0.167549
N2    N     N_R   0.500000 0.316380 0.500000 -0.167980
O1    O     O_R   0.400190 0.561980 0.499980 -0.591945
O2    O     O_R   0.599810 0.561980 0.500020 -0.584259
O3    O     O_R   0.400190 0.438070 0.500040 -0.598636
O4    O     O_R   0.599810 0.438070 0.499960 -0.601690
O5    O     O_R   0.500000 0.561970 0.319650 -0.584650
O6    O     O_R   0.500000 0.561970 0.680350 -0.586486
O7    O     O_R   0.500010 0.438060 0.319710 -0.576968
O8    O     O_R   0.499990 0.438060 0.680290 -0.581042

loop_
_geom_bond_atom_site_label_1
_geom_bond_atom_site_label_2
_ccdc_geom_bond_type
C57   H43   S    
C34   C56   A    
C43   H10   S    
C23   C45   A    
C48   H33   S    
Cu1   O1    S    
C9    N1    A    
C35   C36   A    
C3    C6    A    
C59   H15   S    
C58   H14   S    
C7    C8    A    
C53   H37   S    
C25   C28   A    
C24   H52   S    
C48   H35   S    
C52   H40   S    
C23   C42   A    
C15   O5    A    
Cu1   O6    S    
C40   C60   A    
C19   C21   A    
C24   C26   A    
C25   H53   S    
C20   H51   S    
C11   C14   A    
C2    C41   A    
C51   H41   S    
C45   H11   S    
C1    C2    S    
C1    O1    A    
C47   H20   S    
C17   C19   A    
C12   O2    A    
C50   H28   S    
C47   H21   S    
C49   H32   S    
C16   C37   S    
C32   H6    S    
C40   C42   A    
C57   H44   S    
C56   H13   S    
C9    H1    S    
C13   C14   A    
C55   H47   S    
Cu1   O2    S    
C41   C43   A    
C17   C51   S    
C7    H18   S    
C44   C46   S    
C26   H54   S    
C53   H38   S    
C52   H39   S    
C45   C58   A    
C40   H7    S    
C13   H34   S    
Cu1   N1    S    
C51   C52   S    
C26   N2    A    
C4    H17   S    
Cu2   O8    S    
C2    C59   A    
C6    C8    A    
C51   H42   S    
C33   C37   A    
C8    H19   S    
C31   H5    S    
C38   C44   S    
C31   C32   A    
C5    C34   S    
C54   H50   S    
C46   C47   S    
C47   H22   S    
C9    C11   A    
C30   H4    S    
C29   H3    S    
C50   H30   S    
C48   C49   S    
C21   C28   S    
C55   C57   S    
C55   H48   S    
C3    C4    A    
C15   C36   S    
Cu2   O4    S    
C52   C53   S    
C5    C7    A    
C46   H25   S    
C27   N2    A    
C54   C55   S    
C30   C33   A    
C18   C22   A    
C34   C43   A    
C24   C28   A    
C4    C5    A    
C10   C13   A    
Cu2   O7    S    
C53   H36   S    
C25   C27   A    
C29   C35   A    
C17   C22   A    
C56   C59   A    
Cu1   O5    S    
C14   C22   S    
C36   C38   A    
C16   O6    A    
C37   C39   A    
C10   N1    A    
C30   C32   A    
C10   H12   S    
C38   C39   A    
C16   O8    A    
C11   H23   S    
C6    C23   S    
C42   H9    S    
C33   C35   A    
C54   H49   S    
C18   C20   A    
Cu1   Cu2   S    
C1    O3    A    
Cu2   N2    S    
C27   H2    S    
C18   C54   S    
C12   C60   S    
C50   H29   S    
C57   H46   S    
C12   O4    A    
C20   C21   A    
C29   C31   A    
C49   C50   S    
C15   O7    A    
C39   C48   S    
C49   H31   S    
C44   H26   S    
C3    H16   S    
C58   C60   A    
Cu2   O3    S    
C44   H27   S    
C41   H8    S    
C46   H24   S    
C19   H45   S    
