data_mof_unit_32189.cif
_audit_creation_date              2012-12-11T14:42:01-0500
_audit_creation_method            fapswitch 2.2
_symmetry_space_group_name_H-M    P1
_symmetry_Int_Tables_number       1
_space_group_crystal_system       triclinic
_cell_length_a                    19.200119
_cell_length_b                    11.10693
_cell_length_c                    18.835697
_cell_angle_alpha                 89.761958
_cell_angle_beta                  89.947717
_cell_angle_gamma                 88.518769
_cell_volume                      4015.41665901

loop_
_atom_site_label
_atom_site_type_symbol
_atom_type_description
_atom_site_fract_x
_atom_site_fract_y
_atom_site_fract_z
_atom_type_partial_charge
C1    C     C_R   0.724834 0.960125 0.854950 0.533959
C2    C     C_R   0.271935 0.953178 0.148018 0.539984
C3    C     C_R   0.224835 0.460125 0.854951 0.533972
C4    C     C_R   0.771934 0.453178 0.148018 0.539992
C5    C     C_R   0.691449 0.450786 0.044341 -0.134423
C6    C     C_R   0.303524 0.426706 0.957017 -0.127289
C7    C     C_R   0.191440 0.950748 0.044350 -0.134432
C8    C     C_R   0.803516 0.926518 0.956995 -0.127260
C9    C     C_R   0.747247 0.398899 0.082245 -0.015477
C10   C     C_R   0.236471 0.433340 0.929440 -0.003717
C11   C     C_R   0.247255 0.898899 0.082244 -0.015507
C12   C     C_R   0.736463 0.933354 0.929441 -0.003603
C13   C     C_R   0.787694 0.307949 0.051192 -0.093855
C14   C     C_R   0.178815 0.439799 0.975300 -0.095821
C15   C     C_R   0.287728 0.807994 0.051179 -0.093938
C16   C     C_R   0.678832 0.940042 0.975318 -0.095762
C17   C     C_R   0.783860 0.287125 0.979051 0.130460
C18   C     C_R   0.187750 0.431547 0.048083 0.139206
C19   C     C_R   0.283892 0.787178 0.979040 0.130460
C20   C     C_R   0.687778 0.931732 0.048100 0.139231
C21   C     C_R   0.729955 0.343441 0.937900 0.003369
C22   C     C_R   0.254735 0.415287 0.075979 0.020235
C23   C     C_R   0.229964 0.843450 0.937899 0.003388
C24   C     C_R   0.754753 0.915260 0.075971 0.020295
C25   C     C_R   0.529238 0.273846 0.524857 0.171644
C26   C     C_R   0.533598 0.250367 0.453110 0.178696
C27   C     C_R   0.029227 0.773851 0.524864 0.171643
C28   C     C_R   0.033589 0.750373 0.453116 0.178697
C29   C     C_R   0.498290 0.154786 0.426078 -0.019280
C30   C     C_R   0.507539 0.180912 0.571577 -0.010191
C31   C     C_R   0.998284 0.654792 0.426082 -0.019278
C32   C     C_R   0.007531 0.680915 0.571584 -0.010176
C33   C     C_R   0.474195 0.063586 0.472234 0.118234
C34   C     C_R   0.478394 0.077715 0.545195 0.124366
C35   C     C_R   0.974192 0.563590 0.472238 0.118237
C36   C     C_R   0.978391 0.577717 0.545199 0.124367
C37   C     C_R   0.802187 0.326978 0.529593 0.018707
C38   C     C_R   0.179764 0.384325 0.455022 0.000784
C39   C     C_R   0.302185 0.826971 0.529590 0.018713
C40   C     C_R   0.679763 0.884329 0.455020 0.000780
C41   C     C_R   0.792724 0.327813 0.456166 -0.003190
C42   C     C_R   0.179787 0.369348 0.529594 -0.035037
C43   C     C_R   0.292723 0.827808 0.456164 -0.003189
C44   C     C_R   0.679785 0.869351 0.529593 -0.035043
C45   C     C_R   0.527330 0.178186 0.848286 0.536304
C46   C     C_R   0.444521 0.181247 0.141730 0.550534
C47   C     C_R   0.027329 0.678189 0.848285 0.536323
C48   C     C_R   0.944536 0.681242 0.141728 0.550475
C49   C     C_R   0.753367 0.421259 0.425028 0.051108
C50   C     C_R   0.232738 0.431188 0.569277 0.009574
C51   C     C_R   0.253366 0.921255 0.425027 0.051106
C52   C     C_R   0.732737 0.931188 0.569277 0.009574
C53   C     C_R   0.710952 0.497083 0.468193 0.172617
C54   C     C_R   0.266714 0.517128 0.529728 0.099781
C55   C     C_R   0.210950 0.997077 0.468191 0.172620
C56   C     C_R   0.766715 0.017126 0.529728 0.099786
C57   C     C_R   0.712100 0.484407 0.541351 -0.089763
C58   C     C_R   0.290416 0.476009 0.463974 -0.112657
C59   C     C_R   0.212097 0.984397 0.541349 -0.089762
C60   C     C_R   0.790416 0.976009 0.463973 -0.112653
C61   C     C_R   0.755604 0.398402 0.572959 0.007973
C62   C     C_R   0.242382 0.416281 0.422164 -0.004823
C63   C     C_R   0.255602 0.898395 0.572957 0.007976
C64   C     C_R   0.742382 0.916282 0.422164 -0.004819
C65   C     C_R   0.725365 0.316703 0.860911 0.554106
C66   C     C_R   0.262533 0.363326 0.147176 0.557592
C67   C     C_R   0.225367 0.816707 0.860912 0.554109
C68   C     C_R   0.762537 0.863317 0.147173 0.557654
C69   C     C_R   0.725302 0.958075 0.645723 0.562358
C70   C     C_R   0.272039 0.956611 0.352803 0.574149
C71   C     C_R   0.225303 0.458074 0.645724 0.562361
C72   C     C_R   0.772039 0.456612 0.352804 0.574163
C73   C     C_R   0.531874 0.179685 0.643944 0.608757
C74   C     C_R   0.468639 0.173232 0.355874 0.593637
C75   C     C_R   0.031873 0.679685 0.643950 0.608768
C76   C     C_R   0.968638 0.673233 0.355875 0.593615
C77   C     C_R   0.740399 0.361119 0.646038 0.585555
C78   C     C_R   0.259978 0.361702 0.353407 0.547724
C79   C     C_R   0.240398 0.861117 0.646037 0.585558
C80   C     C_R   0.759979 0.861701 0.353407 0.547749
C81   C     C_2   0.484557 0.170395 0.912484 -0.129601
C82   C     C_2   0.466067 0.170549 0.066967 -0.112942
C83   C     C_2   0.984559 0.670409 0.912484 -0.129627
C84   C     C_2   0.966100 0.670531 0.066970 -0.112983
C85   C     C_2   0.459298 0.069534 0.026944 -0.063930
C86   C     C_2   0.477264 0.067472 0.950013 -0.071355
C87   C     C_2   0.959280 0.569543 0.026934 -0.063982
C88   C     C_2   0.977242 0.567483 0.950003 -0.071351
C89   C     C_R   0.680760 0.420648 0.973266 -0.064741
C90   C     C_R   0.313237 0.424983 0.030210 -0.061541
C91   C     C_R   0.180753 0.920614 0.973274 -0.064760
C92   C     C_R   0.813247 0.924805 0.030186 -0.061550
Cr1   Cr    Cr6+3 0.769270 0.163730 0.750710 1.122119
Cr2   Cr    Cr6+3 0.230730 0.163730 0.249290 1.127977
Cr3   Cr    Cr6+3 0.269270 0.663730 0.750710 1.122104
Cr4   Cr    Cr6+3 0.730730 0.663730 0.249290 1.127951
Cr5   Cr    Cr6+3 0.612620 0.009790 0.748780 1.109529
Cr6   Cr    Cr6+3 0.387380 0.009790 0.251220 1.134575
Cr7   Cr    Cr6+3 0.112620 0.509790 0.748780 1.109516
Cr8   Cr    Cr6+3 0.887380 0.509790 0.251220 1.134594
Cr9   Cr    Cr6+3 0.614160 0.322500 0.747710 1.109381
Cr10  Cr    Cr6+3 0.385840 0.322500 0.252290 1.109919
Cr11  Cr    Cr6+3 0.114160 0.822500 0.747710 1.109383
Cr12  Cr    Cr6+3 0.885840 0.822500 0.252290 1.109928
H1    H     H_    0.676924 0.538826 0.573635 0.179283
H2    H     H_    0.344762 0.481022 0.449598 0.174078
H3    H     H_    0.176919 0.038813 0.573633 0.179287
H4    H     H_    0.844763 0.981018 0.449599 0.174078
H5    H     H_    0.485604 0.252086 0.043676 0.122037
H6    H     H_    0.466154 0.256070 0.933609 0.106298
H7    H     H_    0.985688 0.752036 0.043689 0.122076
H8    H     H_    0.966180 0.756091 0.933623 0.106318
H9    H     H_    0.657968 0.518689 0.069099 0.167808
H10   H     H_    0.348023 0.430840 0.921611 0.165658
H11   H     H_    0.157944 0.018619 0.069116 0.167839
H12   H     H_    0.848009 0.930537 0.921576 0.165527
H13   H     H_    0.827602 0.260885 0.081720 0.192120
H14   H     H_    0.126885 0.456117 0.954757 0.160195
H15   H     H_    0.327656 0.760966 0.081697 0.192125
H16   H     H_    0.626924 0.956589 0.954790 0.160026
O1    O     O_R   0.784320 0.290430 0.830510 -0.442370
O2    O     O_R   0.215680 0.290430 0.169490 -0.459782
O3    O     O_R   0.284320 0.790430 0.830510 -0.442368
O4    O     O_R   0.715680 0.790430 0.169490 -0.459851
O5    O     O_R   0.554640 0.080370 0.673500 -0.447256
O6    O     O_R   0.445360 0.080370 0.326500 -0.455671
O7    O     O_R   0.054640 0.580370 0.673500 -0.447264
O8    O     O_R   0.945360 0.580370 0.326500 -0.455674
O9    O     O_R   0.543920 0.282180 0.666790 -0.471862
O10   O     O_R   0.456080 0.282180 0.333210 -0.459911
O11   O     O_R   0.043920 0.782180 0.666790 -0.471875
O12   O     O_R   0.956080 0.782180 0.333210 -0.459916
O13   O     O_R   0.679040 0.374160 0.674430 -0.470753
O14   O     O_R   0.320960 0.374160 0.325570 -0.491455
O15   O     O_R   0.179040 0.874160 0.674430 -0.470761
O16   O     O_R   0.820960 0.874160 0.325570 -0.491449
O17   O     O_3   0.665350 0.165340 0.749070 -0.312503
O18   O     O_3   0.334650 0.165340 0.250930 -0.328409
O19   O     O_3   0.165350 0.665340 0.749070 -0.312494
O20   O     O_3   0.834650 0.665340 0.250930 -0.328401
O21   O     O_R   0.762640 0.040960 0.825200 -0.492279
O22   O     O_R   0.237360 0.040960 0.174800 -0.501077
O23   O     O_R   0.262640 0.540960 0.825200 -0.492321
O24   O     O_R   0.737360 0.540960 0.174800 -0.501103
O25   O     O_R   0.667400 0.923970 0.829950 -0.505493
O26   O     O_R   0.332600 0.923970 0.170050 -0.511060
O27   O     O_R   0.167400 0.423970 0.829950 -0.505536
O28   O     O_R   0.832600 0.423970 0.170050 -0.511015
O29   O     O_R   0.553960 0.081340 0.821780 -0.494393
O30   O     O_R   0.446040 0.081340 0.178220 -0.458991
O31   O     O_R   0.053960 0.581340 0.821780 -0.494383
O32   O     O_R   0.946040 0.581340 0.178220 -0.459006
O33   O     O_R   0.543180 0.283240 0.826740 -0.503618
O34   O     O_R   0.456820 0.283240 0.173260 -0.467753
O35   O     O_R   0.043180 0.783240 0.826740 -0.503615
O36   O     O_R   0.956820 0.783240 0.173260 -0.467784
O37   O     O_R   0.678360 0.375140 0.822710 -0.499623
O38   O     O_R   0.321640 0.375140 0.177290 -0.518201
O39   O     O_R   0.178360 0.875140 0.822710 -0.499617
O40   O     O_R   0.821640 0.875140 0.177290 -0.518165
O41   O     O_R   0.785050 0.289380 0.670560 -0.483799
O42   O     O_R   0.214950 0.289380 0.329440 -0.476850
O43   O     O_R   0.285050 0.789380 0.670560 -0.483792
O44   O     O_R   0.714950 0.789380 0.329440 -0.476851
O45   O     O_R   0.763320 0.039990 0.676930 -0.474281
O46   O     O_R   0.236680 0.039990 0.323070 -0.450765
O47   O     O_R   0.263320 0.539990 0.676930 -0.474281
O48   O     O_R   0.736680 0.539990 0.323070 -0.450764
O49   O     O_R   0.668130 0.922920 0.670000 -0.500962
O50   O     O_R   0.331870 0.922920 0.330000 -0.481438
O51   O     O_R   0.168130 0.422920 0.670000 -0.500955
O52   O     O_R   0.831870 0.422920 0.330000 -0.481431
C93   C     C_1   0.448246 0.953094 0.059624 0.313600
N1    N     N_1   0.443000 0.858738 0.084936 -0.198654
C94   C     C_1   0.489196 0.950485 0.916796 0.277657
N2    N     N_1   0.498919 0.857582 0.890454 -0.182721
C95   C     C_1   0.948178 0.453108 0.059597 0.313595
N3    N     N_1   0.942902 0.358747 0.084893 -0.198586
C96   C     C_1   0.989125 0.450499 0.916767 0.277615
N4    N     N_1   0.998808 0.357599 0.890410 -0.182767
C97   C     C_1   0.824912 0.234623 0.411500 0.301106
N5    N     N_1   0.851150 0.164623 0.374040 -0.228113
C98   C     C_1   0.123086 0.305064 0.561890 0.298954
N6    N     N_1   0.077732 0.253695 0.587522 -0.148402
C99   C     C_1   0.324913 0.734621 0.411496 0.301094
N7    N     N_1   0.351152 0.664621 0.374036 -0.228131
C100  C     C_1   0.623079 0.805069 0.561888 0.298949
N8    N     N_1   0.577721 0.753704 0.587522 -0.148391
Br1   Br    Br    0.641634 0.605959 0.431572 -0.377759
Br2   Br    Br    0.193521 0.641308 0.522126 -0.560317
Br3   Br    Br    0.141634 0.105958 0.431572 -0.377753
Br4   Br    Br    0.693526 0.141309 0.522129 -0.560315
C101  C     C_1   0.621192 0.476746 0.938422 0.246646
N9    N     N_1   0.573355 0.522104 0.910948 -0.206695
C102  C     C_1   0.382266 0.449562 0.055729 0.244317
N10   N     N_1   0.437430 0.472785 0.075253 -0.225987
C103  C     C_1   0.121170 0.976677 0.938437 0.246638
N11   N     N_1   0.073322 0.022009 0.910970 -0.206689
C104  C     C_1   0.882284 0.949385 0.055682 0.244334
N12   N     N_1   0.937451 0.972627 0.075186 -0.226008
Br5   Br    Br    0.861873 0.194218 0.942438 -0.457033
Br6   Br    Br    0.108757 0.455990 0.108872 -0.456963
Br7   Br    Br    0.361937 0.694356 0.942418 -0.457130
Br8   Br    Br    0.608862 0.956512 0.108930 -0.457064
Br9   Br    Br    0.539327 0.439447 0.552652 -0.357078
Br10  Br    Br    0.590476 0.340085 0.389363 -0.356322
Br11  Br    Br    0.039306 0.939458 0.552656 -0.357074
Br12  Br    Br    0.090471 0.840090 0.389371 -0.356357
Br13  Br    Br    0.443466 0.913129 0.440167 -0.416257
Br14  Br    Br    0.437284 0.965115 0.610403 -0.440683
Br15  Br    Br    0.943462 0.413135 0.440163 -0.416255
Br16  Br    Br    0.937296 0.465114 0.610401 -0.440696
C105  C     C_1   0.853804 0.240830 0.557844 0.350122
N13   N     N_1   0.894994 0.172447 0.579855 -0.166440
C106  C     C_1   0.118495 0.376956 0.410991 0.334834
N14   N     N_1   0.073698 0.369651 0.370498 -0.149774
C107  C     C_1   0.353802 0.740822 0.557842 0.350119
N15   N     N_1   0.394993 0.672438 0.579852 -0.166451
C108  C     C_1   0.618495 0.876957 0.410988 0.334839
N16   N     N_1   0.573700 0.869651 0.370494 -0.149774

loop_
_geom_bond_atom_site_label_1
_geom_bond_atom_site_label_2
_ccdc_geom_bond_type
C58   C62   A    
C57   H1    S    
C87   C88   S    
C56   Br4   S    
C3    O27   A    
C55   C59   A    
Cr8   O52   S    
C64   C80   S    
C14   C18   A    
C1    O25   A    
C35   C36   A    
C84   C87   D    
C38   C106  S    
C106  N14   T    
Cr7   O19   S    
C68   O4    A    
C32   C75   S    
Cr4   O48   S    
C99   N7    T    
C63   C79   S    
C105  N13   T    
Cr8   O32   S    
C71   O51   A    
C15   C19   A    
C4    O24   A    
C50   C54   A    
Cr6   O18   S    
C72   O52   A    
C56   C60   A    
Cr1   O1    S    
C38   C42   A    
Cr3   O43   S    
C70   O46   A    
Cr1   O17   S    
C85   C86   S    
C49   C53   A    
Cr7   O51   S    
C43   C99   S    
C23   C67   S    
C4    O28   A    
C29   C33   A    
Cr5   O49   S    
C86   C94   S    
Cr10  O18   S    
C7    H11   S    
C57   C61   A    
C35   Br15  S    
C80   O44   A    
C9    C13   A    
C52   C69   S    
C34   Br14  S    
C46   C82   S    
C33   Br13  S    
C6    H10   S    
C90   C102  S    
C12   C16   A    
C91   C103  S    
C61   C77   S    
C14   H14   S    
C49   C72   S    
C85   C93   S    
C66   O2    A    
C26   C29   A    
C8    C92   A    
C51   C70   S    
C65   O1    A    
C103  N11   T    
C92   C104  S    
Cr8   O20   S    
Cr10  O34   S    
C45   O29   A    
C81   C86   D    
C60   H4    S    
C16   C20   A    
C5    H9    S    
C44   C52   A    
C83   C88   D    
C48   O36   A    
Cr9   O37   S    
C104  N12   T    
C71   O47   A    
C37   C41   A    
C72   O48   A    
C41   C97   S    
C26   Br10  S    
C1    C12   S    
C77   O13   A    
C79   O15   A    
Cr12  O40   S    
C25   Br9   S    
C2    C11   S    
C24   C92   A    
C41   C49   A    
C62   C78   S    
C59   H3    S    
Cr11  O39   S    
C77   O41   A    
C46   O34   A    
C73   O9    A    
C84   H7    S    
C30   C34   A    
C93   N1    T    
Cr2   O22   S    
C82   H5    S    
C20   C24   A    
C3    O23   A    
C20   Br8   S    
Cr5   O5    S    
C10   C14   A    
C79   O43   A    
C108  N16   T    
C30   C73   S    
C53   C57   A    
C19   C23   A    
C39   C43   A    
C29   C74   S    
Cr6   O26   S    
C51   C55   A    
C25   C26   A    
C97   N5    T    
C24   C68   S    
Cr7   O31   S    
C17   C21   A    
Cr4   O44   S    
C67   O3    A    
C58   H2    S    
Cr2   O18   S    
C55   Br3   S    
C7    C11   A    
C98   N6    T    
Cr10  O14   S    
C5    C9    A    
Cr11  O19   S    
C87   C95   S    
C37   C61   A    
C94   N2    T    
Cr9   O33   S    
C8    C12   A    
C89   C101  S    
C19   Br7   S    
C33   C34   A    
C22   C90   A    
C18   Br6   S    
C50   C71   S    
C69   O49   A    
Cr12  O36   S    
C17   Br5   S    
C78   O14   A    
C2    O22   A    
C42   C50   A    
Cr7   O7    S    
Cr2   O2    S    
Cr4   O4    S    
Cr11  O35   S    
C46   O30   A    
C36   Br16  S    
Cr1   O41   S    
C78   O42   A    
C11   C15   A    
C74   O10   A    
C40   C108  S    
Cr9   O9    S    
C76   O8    A    
C23   C91   A    
Cr3   O19   S    
C45   O33   A    
Cr4   O24   S    
C82   C85   D    
C32   C36   A    
C7    C91   A    
C66   O38   A    
Cr1   O21   S    
C88   C96   S    
Cr6   O30   S    
Cr6   O6    S    
Cr3   O3    S    
C25   C30   A    
Cr7   O27   S    
Cr9   O17   S    
Cr12  O16   S    
C21   C65   S    
C27   C32   A    
Cr8   O8    S    
Cr5   O25   S    
C95   N3    T    
C39   C107  S    
C28   C31   A    
C45   C81   S    
Cr3   O23   S    
C21   C89   A    
C47   O31   A    
C47   C83   S    
Cr2   O46   S    
Cr3   O47   S    
C37   C105  S    
Cr4   O20   S    
C13   H13   S    
C22   C66   S    
C18   C22   A    
Cr9   O13   S    
C42   C98   S    
C2    O26   A    
C65   O37   A    
C39   C63   A    
C59   C63   A    
C40   C64   A    
C13   C17   A    
Cr11  O15   S    
C60   C64   A    
C16   H16   S    
C107  N15   T    
C100  N8    T    
C3    C10   S    
C6    C90   A    
C102  N10   T    
C76   O12   A    
C43   C51   A    
C31   C76   S    
C74   O6    A    
C47   O35   A    
Cr8   O28   S    
C73   O5    A    
C31   C35   A    
C15   H15   S    
C54   Br2   S    
C27   Br11  S    
C70   O50   A    
C48   O32   A    
C69   O45   A    
Cr5   O17   S    
Cr10  O38   S    
C80   O16   A    
C1    O21   A    
C6    C10   A    
C8    H12   S    
C44   C100  S    
Cr1   O45   S    
C96   N4    T    
Cr6   O50   S    
C48   C84   S    
C40   C44   A    
C54   C58   A    
C81   H6    S    
C75   O11   A    
C28   Br12  S    
C53   Br1   S    
C101  N9    T    
Cr12  O12   S    
C27   C28   A    
Cr5   O29   S    
C83   H8    S    
C67   O39   A    
C4    C9    S    
C68   O40   A    
Cr11  O11   S    
C5    C89   A    
Cr2   O42   S    
C52   C56   A    
Cr12  O20   S    
C38   C62   A    
C75   O7    A    
Cr10  O10   S    
