data_mof_unit_56378.cif
_audit_creation_date              2012-12-11T15:41:13-0500
_audit_creation_method            fapswitch 2.2
_symmetry_space_group_name_H-M    P1
_symmetry_Int_Tables_number       1
_space_group_crystal_system       triclinic
_cell_length_a                    18.982726
_cell_length_b                    11.012758
_cell_length_c                    18.773213
_cell_angle_alpha                 89.890136
_cell_angle_beta                  89.720417
_cell_angle_gamma                 90.128829
_cell_volume                      3924.51692853

loop_
_atom_site_label
_atom_site_type_symbol
_atom_type_description
_atom_site_fract_x
_atom_site_fract_y
_atom_site_fract_z
_atom_type_partial_charge
C1    C     C_R   0.727230 0.955026 0.853592 0.563995
C2    C     C_R   0.275375 0.960787 0.144167 0.558765
C3    C     C_R   0.227230 0.455027 0.853592 0.563995
C4    C     C_R   0.775375 0.460788 0.144167 0.558770
C5    C     C_R   0.701459 0.468784 0.036525 -0.052624
C6    C     C_R   0.308456 0.448145 0.957882 -0.050121
C7    C     C_R   0.201456 0.968774 0.036527 -0.052624
C8    C     C_R   0.808464 0.948120 0.957877 -0.050128
C9    C     C_R   0.693504 0.458625 0.963542 0.068287
C10   C     C_R   0.319466 0.416684 0.028576 -0.016414
C11   C     C_R   0.193502 0.958616 0.963544 0.068294
C12   C     C_R   0.819474 0.916659 0.028571 -0.016427
C13   C     C_R   0.816835 0.412428 0.951006 -0.123102
C14   C     C_R   0.225708 0.270195 0.021488 -0.122132
C15   C     C_R   0.316834 0.912430 0.951007 -0.123100
C16   C     C_R   0.725701 0.770199 0.021490 -0.122127
C17   C     C_R   0.823893 0.414951 0.024509 0.333092
C18   C     C_R   0.216007 0.298633 0.949636 0.353871
C19   C     C_R   0.323892 0.914953 0.024509 0.333094
C20   C     C_R   0.716000 0.798636 0.949638 0.353873
C21   C     C_3   0.630138 0.418425 0.051528 -0.289569
C22   C     C_3   0.326688 0.578250 0.971025 -0.238016
C23   C     C_3   0.130138 0.918408 0.051531 -0.289570
C24   C     C_3   0.826718 0.078216 0.971015 -0.238016
C25   C     C_3   0.621437 0.405290 0.971673 -0.239388
C26   C     C_3   0.339058 0.543692 0.048274 -0.219336
C27   C     C_3   0.121436 0.905273 0.971675 -0.239395
C28   C     C_3   0.839089 0.043658 0.048264 -0.219333
C29   C     C_R   0.750032 0.422794 0.920282 -0.024263
C30   C     C_R   0.274095 0.335188 0.063129 -0.048744
C31   C     C_R   0.250031 0.922791 0.920283 -0.024258
C32   C     C_R   0.774096 0.835181 0.063128 -0.048746
C33   C     C_R   0.499505 0.172957 0.424369 -0.012602
C34   C     C_R   0.506114 0.164512 0.572596 0.023629
C35   C     C_R   0.999494 0.672952 0.424375 -0.012536
C36   C     C_R   0.006099 0.664507 0.572603 0.023600
C37   C     C_R   0.481037 0.272354 0.466083 -0.068584
C38   C     C_R   0.484826 0.269784 0.537813 -0.062836
C39   C     C_R   0.981022 0.772347 0.466089 -0.068599
C40   C     C_R   0.984807 0.769777 0.537819 -0.062863
C41   C     C_R   0.516780 0.056486 0.532098 0.196666
C42   C     C_R   0.517261 0.063319 0.457474 0.207741
C43   C     C_R   0.016762 0.556479 0.532106 0.196658
C44   C     C_R   0.017245 0.563311 0.457481 0.207725
C45   C     C_R   0.529960 0.177118 0.850889 0.545060
C46   C     C_R   0.470554 0.178308 0.149530 0.551822
C47   C     C_R   0.029960 0.677118 0.850889 0.545057
C48   C     C_R   0.970553 0.678308 0.149530 0.551821
C49   C     C_3   0.502618 0.402154 0.460446 0.352233
C50   C     C_3   0.505717 0.402039 0.540796 0.308972
C51   C     C_3   0.002592 0.902151 0.460454 0.352247
C52   C     C_3   0.005684 0.902037 0.540804 0.308978
C53   C     C_R   0.750674 0.413253 0.422357 0.054679
C54   C     C_R   0.242137 0.433652 0.571851 0.002067
C55   C     C_R   0.250677 0.913256 0.422357 0.054675
C56   C     C_R   0.742132 0.933662 0.571847 0.002053
C57   C     C_R   0.781470 0.475423 0.478487 -0.120903
C58   C     C_R   0.193566 0.360833 0.537033 -0.022416
C59   C     C_R   0.281508 0.975377 0.478485 -0.120917
C60   C     C_R   0.693557 0.860852 0.537028 -0.022423
C61   C     C_R   0.771056 0.442855 0.547986 0.061956
C62   C     C_R   0.193705 0.350453 0.464351 0.109258
C63   C     C_R   0.271090 0.942816 0.547982 0.061905
C64   C     C_R   0.693695 0.850475 0.464346 0.109259
C65   C     C_R   0.693250 0.282972 0.510513 -0.061940
C66   C     C_R   0.288730 0.495949 0.456070 -0.071186
C67   C     C_R   0.193199 0.783056 0.510519 -0.061940
C68   C     C_R   0.788723 0.995965 0.456066 -0.071089
C69   C     C_R   0.702966 0.318878 0.438649 0.354689
C70   C     C_R   0.287773 0.507595 0.530405 0.330513
C71   C     C_R   0.202913 0.818967 0.438655 0.354702
C72   C     C_R   0.787768 0.007606 0.530402 0.330477
C73   C     C_3   0.855162 0.514041 0.490739 -0.250596
C74   C     C_3   0.178716 0.229751 0.549560 -0.182874
C75   C     C_3   0.355205 0.013956 0.490733 -0.250513
C76   C     C_3   0.678701 0.729771 0.549552 -0.182857
C77   C     C_3   0.844603 0.475035 0.567838 0.134711
C78   C     C_3   0.180130 0.216608 0.469616 0.149721
C79   C     C_3   0.344637 0.974964 0.567836 0.134765
C80   C     C_3   0.680112 0.716633 0.469608 0.149731
C81   C     C_R   0.730877 0.342262 0.565206 0.035154
C82   C     C_R   0.244532 0.410992 0.423175 -0.048738
C83   C     C_R   0.230875 0.842270 0.565207 0.035094
C84   C     C_R   0.744526 0.911006 0.423170 -0.048681
C85   C     C_R   0.738176 0.364702 0.852222 0.562997
C86   C     C_R   0.276210 0.313278 0.140022 0.552058
C87   C     C_R   0.238176 0.864701 0.852222 0.562995
C88   C     C_R   0.776211 0.813276 0.140022 0.552062
C89   C     C_R   0.727321 0.958757 0.646157 0.577737
C90   C     C_R   0.270208 0.951010 0.350624 0.589429
C91   C     C_R   0.227322 0.458754 0.646158 0.577718
C92   C     C_R   0.770208 0.451010 0.350625 0.589433
C93   C     C_R   0.531925 0.175752 0.643803 0.608220
C94   C     C_R   0.472180 0.176819 0.353467 0.596604
C95   C     C_R   0.031920 0.675752 0.643806 0.608186
C96   C     C_R   0.972178 0.676818 0.353469 0.596643
C97   C     C_R   0.724789 0.308154 0.639461 0.576248
C98   C     C_R   0.259657 0.363053 0.353002 0.566675
C99   C     C_R   0.224789 0.808156 0.639460 0.576240
C100  C     C_R   0.759655 0.863057 0.353000 0.566703
C101  C     C_2   0.499359 0.165237 0.922098 -0.118947
C102  C     C_2   0.502925 0.173511 0.079091 -0.127055
C103  C     C_2   0.999357 0.665237 0.922097 -0.118946
C104  C     C_2   0.002923 0.673511 0.079091 -0.127060
C105  C     C_2   0.506356 0.070741 0.041570 -0.117432
C106  C     C_2   0.519283 0.072214 0.964341 -0.146979
C107  C     C_2   0.006352 0.570740 0.041569 -0.117439
C108  C     C_2   0.019279 0.572213 0.964339 -0.146982
C109  C     C_R   0.764941 0.438271 0.068704 0.008253
C110  C     C_R   0.253076 0.396891 0.918783 0.026100
C111  C     C_R   0.264940 0.938268 0.068705 0.008250
C112  C     C_R   0.753076 0.896885 0.918782 0.026102
Cr1   Cr    Cr6+3 0.769260 0.163750 0.750730 1.089389
Cr2   Cr    Cr6+3 0.230740 0.163750 0.249270 1.094037
Cr3   Cr    Cr6+3 0.269260 0.663750 0.750730 1.089383
Cr4   Cr    Cr6+3 0.730740 0.663750 0.249270 1.094010
Cr5   Cr    Cr6+3 0.612640 0.009910 0.748780 1.120336
Cr6   Cr    Cr6+3 0.387360 0.009910 0.251220 1.127064
Cr7   Cr    Cr6+3 0.112640 0.509910 0.748780 1.120330
Cr8   Cr    Cr6+3 0.887360 0.509910 0.251220 1.127079
Cr9   Cr    Cr6+3 0.614190 0.322400 0.747710 1.108881
Cr10  Cr    Cr6+3 0.385810 0.322400 0.252290 1.090950
Cr11  Cr    Cr6+3 0.114190 0.822400 0.747710 1.108890
Cr12  Cr    Cr6+3 0.885810 0.822400 0.252290 1.090979
H1    H     H_    0.500432 0.983626 0.067908 0.229569
H2    H     H_    0.548089 0.995572 0.942530 0.183032
H3    H     H_    0.000428 0.483625 0.067907 0.229573
H4    H     H_    0.048085 0.495570 0.942529 0.183027
H5    H     H_    0.554019 0.414969 0.432818 0.208897
H6    H     H_    0.465546 0.460307 0.567049 0.217191
H7    H     H_    0.053993 0.914979 0.432830 0.209014
H8    H     H_    0.965503 0.960291 0.567053 0.217201
H9    H     H_    0.658762 0.207374 0.523077 0.113500
H10   H     H_    0.326133 0.548111 0.424867 0.232112
H11   H     H_    0.158668 0.707519 0.523087 0.113535
H12   H     H_    0.826124 0.048131 0.424863 0.232142
H13   H     H_    0.861541 0.613473 0.483043 0.147567
H14   H     H_    0.126204 0.214144 0.574305 0.253889
H15   H     H_    0.361598 0.113384 0.483033 0.147563
H16   H     H_    0.626189 0.714168 0.574298 0.253889
H17   H     H_    0.892503 0.455165 0.461221 0.201284
H18   H     H_    0.222577 0.182679 0.576476 0.168375
H19   H     H_    0.392534 0.955057 0.461217 0.201344
H20   H     H_    0.722560 0.682692 0.576466 0.168395
H21   H     H_    0.876380 0.394738 0.583330 0.228780
H22   H     H_    0.225434 0.166568 0.448213 0.112538
H23   H     H_    0.376402 0.894659 0.583335 0.228797
H24   H     H_    0.725412 0.666594 0.448200 0.112553
H25   H     H_    0.514244 0.259839 0.053608 0.104818
H26   H     H_    0.469606 0.241260 0.943275 0.112180
H27   H     H_    0.014242 0.759838 0.053607 0.104818
H28   H     H_    0.969605 0.741260 0.943274 0.112180
H29   H     H_    0.862317 0.387484 0.919165 0.173558
H30   H     H_    0.191226 0.203937 0.045968 0.164130
H31   H     H_    0.362317 0.887490 0.919165 0.173557
H32   H     H_    0.691215 0.703950 0.045972 0.164134
H33   H     H_    0.094396 0.987244 0.075349 0.165392
H34   H     H_    0.781023 0.140045 0.963897 0.140865
H35   H     H_    0.594399 0.487265 0.075346 0.165391
H36   H     H_    0.280983 0.640057 0.963905 0.140840
H37   H     H_    0.632402 0.330294 0.080424 0.140495
H38   H     H_    0.375628 0.606309 0.942655 0.169314
H39   H     H_    0.132405 0.830277 0.080426 0.140494
H40   H     H_    0.875660 0.106249 0.942641 0.169301
H41   H     H_    0.619202 0.308976 0.954385 0.131266
H42   H     H_    0.395203 0.551233 0.064272 0.166929
H43   H     H_    0.119205 0.808959 0.954387 0.131261
H44   H     H_    0.895236 0.051171 0.064258 0.166909
H45   H     H_    0.579889 0.465130 0.949414 0.180937
H46   H     H_    0.300766 0.586056 0.085697 0.164521
H47   H     H_    0.079887 0.965109 0.949417 0.180928
H48   H     H_    0.800806 0.086043 0.085689 0.164544
O1    O     O_R   0.784290 0.290360 0.830540 -0.524625
O2    O     O_R   0.215710 0.290360 0.169460 -0.500212
O3    O     O_R   0.284290 0.790360 0.830540 -0.524624
O4    O     O_R   0.715710 0.790360 0.169460 -0.500207
O5    O     O_R   0.554690 0.080440 0.673480 -0.453801
O6    O     O_R   0.445310 0.080440 0.326520 -0.466272
O7    O     O_R   0.054690 0.580440 0.673480 -0.453813
O8    O     O_R   0.945310 0.580440 0.326520 -0.466289
O9    O     O_R   0.543980 0.282110 0.666770 -0.465762
O10   O     O_R   0.456020 0.282110 0.333230 -0.467833
O11   O     O_R   0.043980 0.782110 0.666770 -0.465736
O12   O     O_R   0.956020 0.782110 0.333230 -0.467803
O13   O     O_R   0.679070 0.374030 0.674430 -0.429604
O14   O     O_R   0.320930 0.374030 0.325570 -0.475326
O15   O     O_R   0.179070 0.874030 0.674430 -0.429622
O16   O     O_R   0.820930 0.874030 0.325570 -0.475312
O17   O     O_3   0.665360 0.165350 0.749070 -0.334451
O18   O     O_3   0.334640 0.165350 0.250930 -0.321288
O19   O     O_3   0.165360 0.665350 0.749070 -0.334444
O20   O     O_3   0.834640 0.665350 0.250930 -0.321296
O21   O     O_R   0.762610 0.041070 0.825230 -0.519176
O22   O     O_R   0.237390 0.041070 0.174770 -0.529451
O23   O     O_R   0.262610 0.541070 0.825230 -0.519176
O24   O     O_R   0.737390 0.541070 0.174770 -0.529457
O25   O     O_R   0.667390 0.924160 0.829970 -0.441057
O26   O     O_R   0.332610 0.924160 0.170030 -0.434848
O27   O     O_R   0.167390 0.424160 0.829970 -0.441064
O28   O     O_R   0.832610 0.424160 0.170030 -0.434839
O29   O     O_R   0.553980 0.081420 0.821780 -0.490341
O30   O     O_R   0.446020 0.081420 0.178220 -0.468818
O31   O     O_R   0.053980 0.581420 0.821780 -0.490346
O32   O     O_R   0.946020 0.581420 0.178220 -0.468825
O33   O     O_R   0.543210 0.283170 0.826740 -0.515166
O34   O     O_R   0.456790 0.283170 0.173260 -0.522165
O35   O     O_R   0.043210 0.783170 0.826740 -0.515164
O36   O     O_R   0.956790 0.783170 0.173260 -0.522161
O37   O     O_R   0.678350 0.375000 0.822720 -0.478592
O38   O     O_R   0.321650 0.375000 0.177280 -0.490686
O39   O     O_R   0.178350 0.875000 0.822720 -0.478587
O40   O     O_R   0.821650 0.875000 0.177280 -0.490681
O41   O     O_R   0.785060 0.289300 0.670580 -0.456143
O42   O     O_R   0.214940 0.289300 0.329420 -0.456625
O43   O     O_R   0.285060 0.789300 0.670580 -0.456143
O44   O     O_R   0.714940 0.789300 0.329420 -0.456641
O45   O     O_R   0.763330 0.040090 0.676940 -0.459080
O46   O     O_R   0.236670 0.040090 0.323060 -0.483559
O47   O     O_R   0.263330 0.540090 0.676940 -0.459080
O48   O     O_R   0.736670 0.540090 0.323060 -0.483610
O49   O     O_R   0.668160 0.923110 0.670000 -0.478839
O50   O     O_R   0.331840 0.923110 0.330000 -0.493111
O51   O     O_R   0.168160 0.423110 0.670000 -0.478841
O52   O     O_R   0.831840 0.423110 0.330000 -0.493063
F1    F     F_    0.949131 0.974602 0.434757 -0.598676
F2    F     F_    0.073722 0.922925 0.563707 -0.641151
F3    F     F_    0.449159 0.474618 0.434756 -0.598647
F4    F     F_    0.573761 0.422898 0.563693 -0.641191
F5    F     F_    0.669452 0.258061 0.385921 -0.640701
F6    F     F_    0.331975 0.588957 0.561087 -0.605555
F7    F     F_    0.169335 0.758243 0.385931 -0.640741
F8    F     F_    0.831970 0.088966 0.561085 -0.605547
Cl1   Cl    Cl    0.846896 0.596815 0.630322 -0.616313
Cl2   Cl    Cl    0.097964 0.168306 0.433964 -0.411336
Cl3   Cl    Cl    0.346936 0.096754 0.630313 -0.616302
Cl4   Cl    Cl    0.597944 0.668334 0.433959 -0.411340
F9    F     F_    0.887746 0.387012 0.051817 -0.642282
F10   F     F_    0.165116 0.238530 0.913232 -0.614556
F11   F     F_    0.387746 0.887020 0.051816 -0.642283
F12   F     F_    0.665103 0.738545 0.913238 -0.614559
Cl5   Cl    Cl    0.526161 0.911533 0.571701 -0.505293
Cl6   Cl    Cl    0.538553 0.935216 0.405645 -0.433727
Cl7   Cl    Cl    0.026149 0.411527 0.571709 -0.505224
Cl8   Cl    Cl    0.038539 0.435204 0.405656 -0.433712

loop_
_geom_bond_atom_site_label_1
_geom_bond_atom_site_label_2
_ccdc_geom_bond_type
C58   C62   A    
C73   C77   S    
C39   C51   S    
C4    C109  S    
C65   C69   A    
C67   C83   A    
Cr2   O18   S    
C55   C59   A    
Cr6   O50   S    
C6    C110  A    
C41   C42   A    
C80   Cl4   S    
Cr5   O49   S    
C3    O27   A    
C34   C93   S    
Cr9   O33   S    
Cr4   O44   S    
C53   C69   A    
C33   C94   S    
C94   O10   A    
C99   O15   A    
C77   Cl1   S    
C9    C25   S    
C73   H17   S    
C35   C96   S    
Cr3   O43   S    
C15   C19   A    
C60   C64   A    
C74   H14   S    
C44   Cl8   S    
C5    C9    A    
C37   C38   A    
C75   C79   S    
C99   O43   A    
C47   O35   A    
C12   C28   S    
Cr7   O27   S    
C33   C42   A    
C104  H27   S    
C13   C29   A    
C100  O16   A    
C14   C30   A    
Cr12  O12   S    
C55   C90   S    
C19   F11   S    
Cr1   O41   S    
Cr8   O20   S    
C1    C112  S    
Cr9   O17   S    
C22   H38   S    
C24   H34   S    
Cr10  O14   S    
C97   O13   A    
C3    C110  S    
C48   C104  S    
C101  H26   S    
C95   O7    A    
C102  C105  D    
C46   O34   A    
C94   O6    A    
C57   C73   S    
C87   O3    A    
C92   O48   A    
Cr2   O42   S    
C16   C32   A    
C64   C84   A    
C7    C11   A    
Cr11  O11   S    
C50   H6    S    
Cr8   O28   S    
C20   C112  A    
Cr10  O10   S    
C93   O9    A    
C28   H48   S    
C100  O44   A    
C61   C77   S    
Cr7   O31   S    
C56   C72   A    
Cr11  O39   S    
C16   H32   S    
C85   O1    A    
C107  C108  S    
Cr10  O38   S    
C3    O23   A    
C103  C108  D    
Cr9   O37   S    
C8    C12   A    
Cr4   O48   S    
C24   C28   S    
C21   H35   S    
C15   H31   S    
C78   Cl2   S    
Cr3   O19   S    
C10   C26   S    
C76   H16   S    
C74   H18   S    
C46   O30   A    
C11   C31   A    
Cr8   O52   S    
C83   C99   S    
Cr12  O36   S    
C91   O47   A    
C64   C80   S    
Cr3   O47   S    
Cr6   O30   S    
C34   C41   A    
C87   O39   A    
Cr2   O46   S    
Cr5   O29   S    
Cr11  O15   S    
Cr1   O45   S    
C34   C38   A    
Cr5   O5    S    
C11   C27   S    
Cr10  O18   S    
Cr2   O2    S    
C23   H39   S    
C12   C32   A    
C2    C111  S    
C47   C103  S    
C82   C98   S    
C47   O31   A    
C51   C52   S    
C68   C84   A    
C76   C80   S    
C92   O52   A    
C31   C87   S    
C42   Cl6   S    
C39   C40   A    
Cr12  O16   S    
C53   C57   A    
C45   C101  S    
C63   C79   S    
Cr12  O40   S    
C43   Cl7   S    
C40   C52   S    
C49   H5    S    
C15   C31   A    
C60   C76   S    
C96   O8    A    
C56   C60   A    
C63   C83   A    
C68   C72   A    
C2    O22   A    
Cr9   O13   S    
C52   H8    S    
C80   H24   S    
C35   C39   A    
C43   C44   A    
C70   F6    S    
C51   F1    S    
C67   H11   S    
C24   H40   S    
C69   F5    S    
C66   C82   A    
C37   C49   S    
C10   C30   A    
C65   C81   A    
C29   C85   S    
C54   C70   A    
C36   C40   A    
C16   C20   A    
C48   O36   A    
C53   C92   S    
Cr7   O51   S    
Cr1   O1    S    
Cr3   O3    S    
Cr10  O34   S    
C17   F9    S    
C108  H4    S    
C68   H12   S    
C57   C61   A    
C35   C44   A    
C13   H29   S    
C106  H2    S    
C22   C26   S    
C75   H19   S    
C103  H28   S    
C76   H20   S    
Cr4   O4    S    
C52   F2    S    
C56   C89   S    
C50   F4    S    
C23   C27   S    
C96   O12   A    
Cr8   O32   S    
C32   C88   S    
C30   C86   S    
Cr11  O19   S    
Cr11  O35   S    
Cr6   O26   S    
C27   H47   S    
Cr12  O20   S    
Cr5   O25   S    
C58   C74   S    
Cr9   O9    S    
C54   C58   A    
C25   H45   S    
C101  C106  D    
C4    O24   A    
C97   O41   A    
C21   C25   S    
C26   H42   S    
C45   O33   A    
Cr2   O22   S    
C49   F3    S    
C2    O26   A    
Cr1   O21   S    
C14   C18   A    
C62   C78   S    
C18   C110  A    
C1    O25   A    
C86   O38   A    
Cr7   O19   S    
C75   H15   S    
C17   C109  A    
C6    C10   A    
C22   H36   S    
C79   H23   S    
C90   O50   A    
C38   C50   S    
C19   C111  A    
Cr6   O6    S    
Cr1   O17   S    
C105  C106  S    
C48   O32   A    
C28   H44   S    
C59   C63   A    
C88   O4    A    
C105  H1    S    
C107  H3    S    
Cr3   O23   S    
C25   H41   S    
C8    C112  A    
Cr8   O8    S    
C93   O5    A    
C79   Cl3   S    
C54   C91   S    
C98   O14   A    
C71   F7    S    
C20   F12   S    
C14   H30   S    
C89   O49   A    
C9    C29   A    
Cr6   O18   S    
C36   C95   S    
C95   O11   A    
C66   C70   A    
C77   H21   S    
C73   H13   S    
C7    C23   S    
C23   H33   S    
C74   C78   S    
C8    C24   S    
C7    C111  A    
C33   C37   A    
C67   C71   A    
C62   C82   A    
C98   O42   A    
C65   H9    S    
C90   O46   A    
C59   C75   S    
C84   C100  S    
C78   H22   S    
C102  H25   S    
C89   O45   A    
C13   C17   A    
Cr4   O24   S    
C4    O28   A    
C5    C21   S    
C85   O37   A    
C26   H46   S    
Cr5   O17   S    
C45   O29   A    
C49   C50   S    
C88   O40   A    
C51   H7    S    
C41   Cl5   S    
Cr7   O7    S    
C81   C97   S    
C1    O21   A    
Cr4   O20   S    
C36   C43   A    
C61   C81   A    
C5    C109  A    
C86   O2    A    
C66   H10   S    
C91   O51   A    
C104  C107  D    
C55   C71   A    
C72   F8    S    
C18   F10   S    
C27   H43   S    
C46   C102  S    
C21   H37   S    
C6    C22   S    
