data_mof_unit_19282.cif
_audit_creation_date              2012-12-10T17:30:26-0500
_audit_creation_method            fapswitch 2.2
_symmetry_space_group_name_H-M    P1
_symmetry_Int_Tables_number       1
_space_group_crystal_system       triclinic
_cell_length_a                    12.085201
_cell_length_b                    12.835873
_cell_length_c                    14.963373
_cell_angle_alpha                 91.31753
_cell_angle_beta                  88.191423
_cell_angle_gamma                 95.032259
_cell_volume                      2310.60408685

loop_
_atom_site_label
_atom_site_type_symbol
_atom_type_description
_atom_site_fract_x
_atom_site_fract_y
_atom_site_fract_z
_atom_type_partial_charge
C1    C     C_R   0.523463 0.700418 0.499096 0.947883
C2    C     C_R   0.368235 0.133398 0.458911 0.300327
C3    C     C_R   0.454414 0.865431 0.467412 -0.237564
C4    C     C_R   0.545590 0.134568 0.532571 -0.237547
C5    C     C_R   0.454214 0.972182 0.479429 -0.009581
C6    C     C_R   0.545792 0.027818 0.520550 -0.009579
C7    C     C_R   0.945290 0.398858 0.416415 0.412741
C8    C     C_R   0.054711 0.601146 0.583580 0.412805
C9    C     C_R   0.832055 0.412544 0.422675 -0.091994
C10   C     C_R   0.167945 0.587459 0.577321 -0.091798
C11   C     C_R   0.862183 0.540206 0.539138 0.537730
C12   C     C_R   0.476537 0.299581 0.500899 0.947957
C13   C     C_R   0.137817 0.459794 0.460862 0.537699
C14   C     C_R   0.978832 0.536172 0.530992 -0.184805
C15   C     C_R   0.021169 0.463830 0.469006 -0.184730
C16   C     C_R   0.501963 0.500164 0.672574 0.988210
C17   C     C_R   0.498038 0.499837 0.327428 0.988281
C18   C     C_R   0.544066 0.417552 0.184519 0.387158
C19   C     C_R   0.455997 0.582521 0.815476 0.387574
C20   C     C_R   0.492729 0.496133 0.232029 -0.236104
C21   C     C_R   0.507300 0.503911 0.767973 -0.236261
C22   C     C_R   0.435411 0.569848 0.189852 0.356775
C23   C     C_R   0.391262 0.653031 0.959418 0.540426
C24   C     C_R   0.564689 0.430250 0.810153 0.356807
C25   C     C_R   0.439124 0.572454 0.096419 -0.033208
C26   C     C_R   0.561050 0.427699 0.903586 -0.033392
C27   C     C_R   0.497132 0.497911 0.046865 -0.066626
C28   C     C_R   0.503044 0.502245 0.953140 -0.066804
C29   C     C_R   0.550191 0.419843 0.090994 -0.094645
C30   C     C_R   0.449977 0.580309 0.909009 -0.094342
C31   C     C_R   0.390048 0.650657 0.052078 -0.289118
C32   C     C_R   0.610218 0.349554 0.947933 -0.288569
C33   C     C_3   0.509423 0.260196 0.251066 -0.187896
C34   C     C_R   0.608996 0.347183 0.040585 0.540206
C35   C     C_3   0.490496 0.739796 0.748774 -0.187742
C36   C     C_3   0.224596 0.701578 0.917845 -0.185123
C37   C     C_3   0.775677 0.299409 0.082802 -0.184671
C38   C     C_R   0.460046 0.187194 0.499930 -0.176435
C39   C     C_R   0.539955 0.812806 0.500058 -0.176471
C40   C     C_R   0.637099 0.976602 0.547797 0.372477
C41   C     C_R   0.362907 0.023398 0.452182 0.372442
C42   C     C_R   0.631768 0.866603 0.541073 0.300293
H1    H     H_    0.350420 0.711866 0.088252 0.183257
H2    H     H_    0.451834 0.800836 0.712258 0.186979
H3    H     H_    0.557788 0.711600 0.704571 0.136526
H4    H     H_    0.526381 0.776993 0.810542 0.181316
H5    H     H_    0.023134 0.276585 0.395902 0.376304
H6    H     H_    0.976862 0.723418 0.604088 0.376272
H7    H     H_    0.306877 0.645530 0.216872 0.340417
H8    H     H_    0.693242 0.354619 0.783077 0.340452
H9    H     H_    0.186949 0.699625 0.986665 0.130210
H10   H     H_    0.206595 0.624647 0.882921 0.170911
H11   H     H_    0.184391 0.760778 0.880320 0.206940
H12   H     H_    0.649957 0.288401 0.911777 0.183421
H13   H     H_    0.792874 0.375887 0.118615 0.171701
H14   H     H_    0.813775 0.302654 0.014145 0.129861
H15   H     H_    0.816117 0.239915 0.119801 0.206775
H16   H     H_    0.256074 0.149531 0.371066 0.346520
H17   H     H_    0.743923 0.850470 0.628921 0.346536
H18   H     H_    0.795814 0.997058 0.567665 0.350508
H19   H     H_    0.204191 0.002939 0.432321 0.350503
H20   H     H_    0.256860 0.388699 0.406393 0.400080
H21   H     H_    0.743141 0.611301 0.593607 0.400074
H22   H     H_    0.614421 0.178342 0.565178 0.251190
H23   H     H_    0.385582 0.821656 0.434807 0.251192
H24   H     H_    0.225510 0.635089 0.618462 0.206238
H25   H     H_    0.774490 0.364918 0.381533 0.206186
H26   H     H_    0.442103 0.288357 0.295258 0.136688
H27   H     H_    0.548019 0.199085 0.287538 0.187040
H28   H     H_    0.473600 0.223104 0.189237 0.181221
N1    N     N_R   0.207800 0.519350 0.516680 -0.196800
N2    N     N_R   0.792200 0.480650 0.483320 -0.196762
O1    O     O_R   0.421700 0.658830 0.504450 -0.627455
O2    O     O_3   0.407862 0.658495 0.769311 -0.570275
O3    O     O_3   0.977349 0.319811 0.360373 -0.711077
O4    O     O_3   0.022651 0.680197 0.639618 -0.710950
O5    O     O_3   0.381234 0.641097 0.241813 -0.740309
O6    O     O_3   0.618838 0.358978 0.758196 -0.740245
O7    O     O_3   0.339784 0.731009 0.919100 -0.578403
O8    O     O_3   0.660658 0.269301 0.080864 -0.578440
O9    O     O_3   0.289346 0.189851 0.422241 -0.771842
O10   O     O_3   0.710655 0.810150 0.577747 -0.771851
O11   O     O_3   0.729194 0.035385 0.580180 -0.772645
O12   O     O_R   0.578300 0.341170 0.495550 -0.627419
O13   O     O_3   0.270813 0.964616 0.419797 -0.772685
O14   O     O_3   0.179827 0.398912 0.393412 -0.728054
O15   O     O_3   0.820173 0.601087 0.606589 -0.728049
O16   O     O_R   0.609310 0.646410 0.493750 -0.603668
O17   O     O_R   0.390690 0.353590 0.506250 -0.603669
O18   O     O_R   0.406180 0.506230 0.637500 -0.604916
O19   O     O_R   0.593820 0.493770 0.362500 -0.605015
O20   O     O_R   0.593800 0.493820 0.626800 -0.606834
O21   O     O_R   0.406200 0.506180 0.373200 -0.606826
O22   O     O_3   0.592102 0.341508 0.230674 -0.570632
Zn1   Zn    Zn3+2 0.374730 0.508290 0.507150 0.993383
Zn2   Zn    Zn3+2 0.625270 0.491710 0.492850 0.993336

loop_
_geom_bond_atom_site_label_1
_geom_bond_atom_site_label_2
_ccdc_geom_bond_type
C25   C31   A    
O16   Zn2   S    
C35   O2    S    
C26   C32   A    
C16   C21   S    
C27   C29   A    
H6    O4    S    
C17   O19   A    
C9    N2    A    
C8    O4    S    
C37   H13   S    
C33   O22   S    
O18   Zn1   S    
C16   O18   A    
H20   O14   S    
C31   H1    S    
C19   C21   A    
C24   C26   A    
C5    C6    A    
H18   O11   S    
N1    Zn1   S    
C2    C41   A    
O20   Zn2   S    
C17   C20   S    
C12   O12   A    
O12   Zn2   S    
C36   H11   S    
C34   O8    S    
O19   Zn2   S    
C37   H14   S    
C11   O15   S    
C22   C25   A    
C42   O10   S    
C13   O14   S    
H17   O10   S    
C36   H10   S    
C33   H27   S    
C10   N1    A    
C1    O16   A    
C40   C42   A    
C3    C39   A    
O21   Zn1   S    
C40   O11   S    
C3    H23   S    
H8    O6    S    
C32   H12   S    
C39   C42   A    
C10   H24   S    
C37   O8    S    
C23   C30   A    
C12   O17   A    
C4    C6    A    
H16   O9    S    
C11   N2    A    
C7    O3    S    
C13   N1    A    
C29   C34   A    
C32   C34   A    
O17   Zn1   S    
C9    H25   S    
C2    C38   A    
C18   C29   A    
C35   H2    S    
C36   H9    S    
H19   O13   S    
C33   H28   S    
C24   O6    S    
C20   C22   A    
C16   O20   A    
C13   C15   A    
C18   O22   S    
C6    C40   A    
C17   O21   A    
O1    Zn1   S    
C35   H3    S    
C7    C9    A    
C5    C41   A    
C8    C14   A    
H21   O15   S    
C19   O2    S    
C22   O5    S    
C4    C38   A    
C3    C5    A    
C36   O7    S    
C25   C27   A    
C41   O13   S    
C4    H22   S    
C26   C28   A    
C1    O1    A    
C28   C30   A    
H5    O3    S    
C19   C30   A    
C7    C15   A    
C11   C14   A    
H7    O5    S    
C18   C20   A    
C12   C38   S    
C1    C39   S    
N2    Zn2   S    
C8    C10   A    
C21   C24   A    
C27   C28   A    
C14   C15   A    
C2    O9    S    
C23   O7    S    
C35   H4    S    
C37   H15   S    
C33   H26   S    
C23   C31   A    
