data_mof_unit_23811.cif
_audit_creation_date              2012-12-10T18:19:55-0500
_audit_creation_method            fapswitch 2.2
_symmetry_space_group_name_H-M    P1
_symmetry_Int_Tables_number       1
_space_group_crystal_system       triclinic
_cell_length_a                    10.638516
_cell_length_b                    10.626327
_cell_length_c                    9.420974
_cell_angle_alpha                 90.365665
_cell_angle_beta                  90.04826
_cell_angle_gamma                 89.931096
_cell_volume                      1065.0027337

loop_
_atom_site_label
_atom_site_type_symbol
_atom_type_description
_atom_site_fract_x
_atom_site_fract_y
_atom_site_fract_z
_atom_type_partial_charge
C1    C     C_R   0.500934 0.259603 0.499642 0.807792
C2    C     C_R   0.499065 0.740397 0.500358 0.807793
C3    C     C_3   0.465207 0.959817 0.629854 -0.183166
C4    C     C_3   0.534788 0.040183 0.370146 -0.183171
C5    C     C_3   0.584913 0.575358 0.051266 -0.033419
C6    C     C_3   0.415087 0.424642 0.948734 -0.033416
C7    C     C_3   0.477232 0.611390 0.950315 -0.029553
C8    C     C_3   0.522768 0.388610 0.049684 -0.029551
C9    C     C_3   0.607777 0.463949 0.949443 -0.023190
C10   C     C_3   0.392223 0.536051 0.050557 -0.023187
C11   C     C_R   0.259708 0.498768 0.500023 0.858115
C12   C     C_R   0.740292 0.501231 0.499977 0.858115
C13   C     C_3   0.041277 0.458471 0.628772 -0.338513
C14   C     C_3   0.958723 0.541525 0.371228 -0.338532
C15   C     C_3   0.957672 0.384686 0.522673 0.530652
C16   C     C_3   0.042329 0.615308 0.477327 0.530642
C17   C     C_3   0.876793 0.502172 0.499539 -0.163060
C18   C     C_3   0.123207 0.497823 0.500460 -0.163064
C19   C     C_3   0.960154 0.576969 0.603497 -0.103375
C20   C     C_3   0.039846 0.423026 0.396501 -0.103386
C21   C     C_3   0.581210 0.040761 0.596404 0.027824
C22   C     C_3   0.418786 0.959239 0.403596 0.027829
C23   C     C_3   0.616213 0.956504 0.468838 -0.215901
C24   C     C_3   0.383782 0.043497 0.531162 -0.215902
C25   C     C_3   0.498977 0.877074 0.500732 -0.030195
C26   C     C_3   0.501019 0.122926 0.499268 -0.030196
Cu1   Cu    Cu3+1 0.500030 0.499990 0.643150 0.960706
Cu2   Cu    Cu3+1 0.499970 0.500010 0.356850 0.960704
H1    H     H_    0.077337 0.425253 0.732644 0.165688
H2    H     H_    0.922663 0.574746 0.267358 0.165685
H3    H     H_    0.711054 0.918599 0.444406 0.127321
H4    H     H_    0.288941 0.081403 0.555593 0.127322
H5    H     H_    0.437726 0.924842 0.736211 0.147020
H6    H     H_    0.562270 0.075158 0.263789 0.147020
H7    H     H_    0.457783 0.705341 0.904319 0.127526
H8    H     H_    0.542217 0.294659 0.095681 0.127525
H9    H     H_    0.656348 0.638768 0.099295 0.124156
H10   H     H_    0.343652 0.361232 0.900705 0.124158
H11   H     H_    0.698550 0.433292 0.902458 0.145630
H12   H     H_    0.301450 0.566708 0.097542 0.145626
N1    N     N_3   0.500090 0.499970 0.858290 -0.166979
N2    N     N_3   0.499910 0.500030 0.141710 -0.166978
O1    O     O_R   0.500060 0.316850 0.620870 -0.584153
O2    O     O_R   0.499940 0.683150 0.379130 -0.584153
O3    O     O_R   0.500000 0.316860 0.379090 -0.588175
O4    O     O_R   0.500000 0.683140 0.620910 -0.588174
O5    O     O_R   0.316880 0.499960 0.620870 -0.587681
O6    O     O_R   0.683120 0.500040 0.379130 -0.587681
O7    O     O_R   0.316830 0.499970 0.379090 -0.576042
O8    O     O_R   0.683170 0.500030 0.620910 -0.576041
O9    O     O_3   0.902329 0.265348 0.541762 -0.576890
C27   C     C_3   0.994718 0.178994 0.585964 -0.291319
H13   H     H_    0.028099 0.201742 0.694957 0.172631
H14   H     H_    0.075170 0.174641 0.510873 0.138143
H15   H     H_    0.952059 0.083857 0.588968 0.192346
O10   O     O_3   0.097666 0.734651 0.458253 -0.576899
C28   C     C_3   0.005290 0.820984 0.413971 -0.291315
H16   H     H_    0.924752 0.825267 0.488937 0.138098
H17   H     H_    0.972048 0.798265 0.304924 0.172705
H18   H     H_    0.047905 0.916140 0.411079 0.192308
C29   C     C_1   0.914189 0.661214 0.716213 0.269052
N3    N     N_1   0.877727 0.727561 0.804954 -0.301030
C30   C     C_1   0.085812 0.338789 0.283778 0.269009
N4    N     N_1   0.122275 0.272450 0.195030 -0.301030
C31   C     C_1   0.669456 0.087246 0.704374 0.274580
N5    N     N_1   0.738532 0.124020 0.789974 -0.276478
C32   C     C_1   0.330540 0.912755 0.295625 0.274584
N6    N     N_1   0.261465 0.875981 0.210025 -0.276510

loop_
_geom_bond_atom_site_label_1
_geom_bond_atom_site_label_2
_ccdc_geom_bond_type
C7    C10   S    
C21   C26   S    
C11   C18   S    
C5    H9    S    
C10   N2    S    
C11   O5    A    
C12   O6    A    
C24   H4    S    
C2    O4    A    
C13   C18   S    
C22   C24   S    
C13   H1    S    
C24   C26   S    
C28   H17   S    
C3    H5    S    
C9    H11   S    
O10   C28   S    
C22   C25   S    
C10   H12   S    
C8    H8    S    
C1    O1    A    
C2    O2    A    
C8    C9    S    
C6    N1    S    
C12   C17   S    
C6    H10   S    
C15   O9    S    
Cu1   O8    S    
C23   C25   S    
C14   C17   S    
C3    C24   S    
C14   H2    S    
C27   H14   S    
C15   C20   S    
C4    H6    S    
Cu2   O3    S    
C13   C19   S    
O9    C27   S    
C14   C20   S    
C3    C25   S    
C5    C7    S    
C4    C23   S    
C28   H18   S    
C6    C8    S    
Cu2   O2    S    
C32   N6    T    
C23   H3    S    
C16   O10   S    
C5    C9    S    
C11   O7    A    
C4    C22   S    
Cu2   O7    S    
Cu1   N1    S    
C4    C26   S    
Cu1   O4    S    
C13   C15   S    
C1    C26   S    
C14   C16   S    
C3    C21   S    
C27   H13   S    
C5    N2    S    
Cu1   O5    S    
C15   C17   S    
Cu2   O6    S    
C21   C31   S    
C7    H7    S    
C8    N2    S    
C6    C10   S    
C12   O8    A    
C27   H15   S    
C9    N1    S    
C20   C30   S    
C21   C23   S    
C1    O3    A    
C28   H16   S    
C19   C29   S    
C16   C19   S    
Cu2   N2    S    
C17   C19   S    
C2    C25   S    
C18   C20   S    
C7    N1    S    
C29   N3    T    
C22   C32   S    
C30   N4    T    
Cu1   O1    S    
C16   C18   S    
C31   N5    T    
Cu1   Cu2   S    
