data_mof_unit_31293.cif
_audit_creation_date              2012-12-10T17:51:27-0500
_audit_creation_method            fapswitch 2.2
_symmetry_space_group_name_H-M    P1
_symmetry_Int_Tables_number       1
_space_group_crystal_system       triclinic
_cell_length_a                    14.740163
_cell_length_b                    14.839944
_cell_length_c                    17.251367
_cell_angle_alpha                 106.945233
_cell_angle_beta                  72.648706
_cell_angle_gamma                 115.827849
_cell_volume                      3184.27771677

loop_
_atom_site_label
_atom_site_type_symbol
_atom_type_description
_atom_site_fract_x
_atom_site_fract_y
_atom_site_fract_z
_atom_type_partial_charge
C1    C     C_R   0.119078 0.687953 0.515833 0.888525
C2    C     C_R   0.880293 0.311637 0.489115 0.837173
C3    C     C_R   0.185987 0.794305 0.541251 -0.034358
C4    C     C_R   0.812394 0.201849 0.484406 -0.069921
C5    C     C_R   0.219666 0.939158 0.654619 -0.005800
C6    C     C_R   0.787860 0.028083 0.410854 -0.015480
C7    C     C_R   0.151429 0.849975 0.615553 -0.329538
C8    C     C_R   0.850876 0.130565 0.429869 -0.299625
C9    C     C_R   0.289655 0.832969 0.501238 -0.056632
C10   C     C_R   0.709190 0.168085 0.528367 -0.048317
C11   C     C_R   0.362818 0.909456 0.548143 -0.058342
C12   C     C_R   0.644745 0.062157 0.514624 -0.041691
C13   C     C_R   0.327288 0.964436 0.625636 0.091822
C14   C     C_R   0.683385 0.992103 0.452884 0.099086
C15   C     C_R   0.470325 0.932558 0.520745 0.013629
C16   C     C_R   0.540240 0.024068 0.557093 0.015104
C17   C     C_R   0.505163 0.068075 0.637931 -0.312095
C18   C     C_R   0.510104 0.861487 0.466495 -0.354479
C19   C     C_R   0.400114 0.037683 0.673531 0.434950
C20   C     C_R   0.616282 0.888211 0.436903 0.459574
C21   C     C_R   0.296167 0.327236 0.359900 0.366110
C22   C     C_R   0.725545 0.696416 0.616144 0.367972
C23   C     C_R   0.987832 0.501612 0.653315 0.793627
C24   C     C_R   0.013343 0.500328 0.346993 0.810520
C25   C     C_R   0.209582 0.353649 0.385870 0.367641
C26   C     C_R   0.799190 0.654899 0.604576 0.372442
C27   C     C_R   0.287895 0.492357 0.487120 0.512690
C28   C     C_R   0.708081 0.505689 0.517285 0.510727
C29   C     C_R   0.381801 0.473669 0.459216 -0.239435
C30   C     C_R   0.635257 0.548414 0.520876 -0.239070
C31   C     C_R   0.384367 0.389597 0.393967 -0.050209
C32   C     C_R   0.644563 0.644720 0.572550 -0.049411
C33   C     C_R   0.472515 0.534159 0.493878 0.086153
C34   C     C_R   0.554287 0.499476 0.474560 0.089295
C35   C     C_R   0.558391 0.424428 0.403679 -0.347194
C36   C     C_R   0.489005 0.632685 0.540259 -0.347564
C37   C     C_R   0.475602 0.369580 0.363197 0.503194
C38   C     C_R   0.573804 0.688732 0.578531 0.527395
C39   C     C_R   0.979836 0.497645 0.740233 -0.168254
C40   C     C_R   0.027794 0.514627 0.261841 -0.088040
C41   C     C_R   0.061927 0.487688 0.757473 -0.141702
C42   C     C_R   0.952576 0.536789 0.245722 -0.273012
C43   C     C_R   0.059689 0.475569 0.835059 -0.001154
C44   C     C_R   0.963682 0.562435 0.171285 -0.004123
C45   C     C_R   0.975043 0.478698 0.899334 -0.002607
C46   C     C_R   0.049978 0.560585 0.108226 0.111891
C47   C     C_R   0.890626 0.488268 0.884402 -0.006949
C48   C     C_R   0.129232 0.542096 0.123207 -0.045306
C49   C     C_R   0.891853 0.495810 0.803889 -0.079950
C50   C     C_R   0.118031 0.518593 0.200363 -0.075375
C51   C     C_2   0.978506 0.480802 0.984111 -0.317060
C52   C     C_2   0.048263 0.559712 0.023310 -0.069488
Cu1   Cu    Cu3+1 0.916740 0.524770 0.521640 1.028790
Cu2   Cu    Cu3+1 0.083260 0.475230 0.478360 1.028063
H1    H     H_    0.128336 0.486814 0.709131 0.209324
H2    H     H_    0.884577 0.536758 0.292638 0.166130
H3    H     H_    0.559786 0.121854 0.676065 0.183327
H4    H     H_    0.459093 0.782958 0.450774 0.152725
H5    H     H_    0.628556 0.411162 0.375910 0.180173
H6    H     H_    0.439678 0.670417 0.543111 0.180339
H7    H     H_    0.105152 0.621555 0.992267 0.211568
H8    H     H_    0.920882 0.419697 0.015703 0.158524
H9    H     H_    0.929510 0.156585 0.395749 0.198131
H10   H     H_    0.070585 0.823470 0.643839 0.196349
N1    N     N_R   0.208390 0.438070 0.445820 -0.233285
N2    N     N_R   0.791610 0.561930 0.554180 -0.234239
O1    O     O_R   0.020090 0.662480 0.528530 -0.563376
O2    O     O_R   0.979910 0.337520 0.471470 -0.575431
O3    O     O_R   0.160710 0.620650 0.491980 -0.515921
O4    O     O_R   0.839290 0.379350 0.508020 -0.496167
O5    O     O_R   0.921540 0.523360 0.633990 -0.623187
O6    O     O_R   0.078460 0.476640 0.366010 -0.623319
O7    O     O_R   0.062170 0.481520 0.597440 -0.535697
O8    O     O_R   0.937830 0.518480 0.402560 -0.558332
O9    O     O_3   0.483654 0.296984 0.292666 -0.641488
H11   H     H_    0.551574 0.291817 0.280259 0.318383
O10   O     O_3   0.588656 0.787176 0.621385 -0.637405
H12   H     H_    0.532593 0.806000 0.619565 0.323350
O11   O     O_3   0.694353 0.406534 0.480362 -0.713802
H13   H     H_    0.620213 0.364540 0.495575 0.304733
O12   O     O_3   0.269914 0.557347 0.559681 -0.705254
H14   H     H_    0.296275 0.546409 0.601334 0.323709
O13   O     O_3   0.881754 0.713712 0.642243 -0.754756
H15   H     H_    0.895676 0.668899 0.665063 0.343944
O14   O     O_3   0.123653 0.287017 0.354180 -0.761858
H16   H     H_    0.093602 0.326716 0.341210 0.354360
O15   O     O_3   0.295828 0.239973 0.301766 -0.629516
H17   H     H_    0.232716 0.207181 0.278495 0.369220
O16   O     O_3   0.732018 0.788242 0.669552 -0.625144
H18   H     H_    0.785107 0.810805 0.702695 0.367519
C53   C     C_2   0.201340 0.499563 0.215942 0.403943
H19   H     H_    0.184566 0.429351 0.234586 0.066930
O17   O     O_2   0.289496 0.562523 0.207862 -0.479602
C54   C     C_2   0.799634 0.497065 0.786708 0.558403
H20   H     H_    0.805821 0.557476 0.759929 0.057302
O18   O     O_2   0.715113 0.430681 0.803873 -0.475395
C55   C     C_2   0.803787 0.494449 0.954708 0.525962
H21   H     H_    0.781480 0.452789 0.004004 0.056263
O19   O     O_2   0.758920 0.549091 0.960035 -0.482439
C56   C     C_2   0.221363 0.541245 0.057161 0.422662
H22   H     H_    0.257857 0.489802 0.052706 0.101141
O20   O     O_2   0.259399 0.600012 0.008803 -0.509561
C57   C     C_2   0.882993 0.591474 0.162661 0.386192
H23   H     H_    0.808587 0.570869 0.204350 0.078617
O21   O     O_2   0.899598 0.642037 0.111746 -0.488988
C58   C     C_2   0.145440 0.457041 0.847499 0.444687
H24   H     H_    0.138566 0.432444 0.903030 0.090266
O22   O     O_2   0.224671 0.467997 0.795386 -0.513249
O23   O     O_3   0.368457 0.074529 0.755929 -0.679513
H25   H     H_    0.428994 0.124851 0.779841 0.349306
O24   O     O_3   0.654726 0.813674 0.394110 -0.687679
H26   H     H_    0.597480 0.745874 0.389975 0.333908
C59   C     C_2   0.666466 0.244274 0.582682 0.418139
H27   H     H_    0.594738 0.242088 0.575714 0.077211
O25   O     O_2   0.708082 0.306078 0.638429 -0.503401
C60   C     C_2   0.317659 0.805888 0.409031 0.389422
H28   H     H_    0.392397 0.849238 0.375947 0.110960
O26   O     O_2   0.256330 0.738860 0.368188 -0.509638
C61   C     C_2   0.173403 0.002441 0.724055 0.516210
H29   H     H_    0.101112 0.966137 0.763999 0.053253
O27   O     O_2   0.211263 0.095330 0.733605 -0.478068
C62   C     C_2   0.834265 0.965940 0.340462 0.505786
H30   H     H_    0.910928 0.970866 0.337246 0.066151
O28   O     O_2   0.791235 0.915568 0.282485 -0.463004

loop_
_geom_bond_atom_site_label_1
_geom_bond_atom_site_label_2
_ccdc_geom_bond_type
C15   C18   A    
O15   H17   S    
C21   O15   S    
C26   O13   S    
C29   C33   A    
C27   C29   A    
C2    C4    S    
O24   H26   S    
C4    C8    A    
C55   H21   S    
C39   C41   A    
Cu2   N1    S    
Cu1   Cu2   S    
C21   C31   A    
C22   C32   A    
C5    C61   S    
C3    C9    A    
C35   C37   A    
C2    O2    A    
C52   H7    S    
C23   C39   S    
Cu2   O2    S    
C58   H24   S    
C45   C51   S    
C15   C16   A    
C20   O24   S    
C46   C52   S    
C33   C36   A    
C60   H28   S    
C35   H5    S    
C34   C35   A    
C28   O11   S    
C41   H1    S    
C42   H2    S    
C11   C15   A    
C18   H4    S    
C12   C16   A    
C16   C17   A    
C32   C38   A    
C49   C54   S    
Cu2   O3    S    
C5    C13   A    
O10   H12   S    
C45   C47   A    
C37   O9    S    
C41   C43   A    
C51   H8    S    
C42   C44   A    
C23   O7    A    
Cu1   O4    S    
C56   O20   D    
C55   O19   D    
C44   C57   S    
C44   C46   A    
O12   H14   S    
C61   O27   D    
C48   C56   S    
C46   C48   A    
C30   C34   A    
C51   C52   D    
C26   N2    A    
C14   C20   A    
C27   O12   S    
C25   N1    A    
C47   C49   A    
C53   H19   S    
C5    C7    A    
C13   C19   A    
C6    C8    A    
O14   H16   S    
C53   O17   D    
C1    O3    A    
C31   C37   A    
C1    C3    S    
C43   C58   S    
C28   N2    A    
O9    H11   S    
C27   N1    A    
C23   O5    A    
C6    C14   A    
Cu2   O7    S    
C43   C45   A    
O13   H15   S    
C25   O14   S    
C33   C34   A    
C57   O21   D    
C54   O18   D    
Cu1   N2    S    
C9    C11   A    
C10   C59   S    
C10   C12   A    
C39   C49   A    
C12   C14   A    
C6    C62   S    
C62   O28   D    
C36   C38   A    
Cu1   O5    S    
C24   O6    A    
C59   H27   S    
C21   C25   A    
C24   C40   S    
C9    C60   S    
C40   C42   A    
C36   H6    S    
C61   H29   S    
C1    O1    A    
C38   O10   S    
C3    C7    A    
C47   C55   S    
C28   C30   A    
O16   H18   S    
C29   C31   A    
O23   H25   S    
C30   C32   A    
C11   C13   A    
C24   O8    A    
C19   O23   S    
C58   O22   D    
C40   C50   A    
C48   C50   A    
C56   H22   S    
C17   C19   A    
C22   O16   S    
C60   O26   D    
C18   C20   A    
C54   H20   S    
Cu1   O1    S    
C7    H10   S    
C8    H9    S    
O11   H13   S    
C50   C53   S    
Cu2   O6    S    
C22   C26   A    
C57   H23   S    
C62   H30   S    
C2    O4    A    
C4    C10   A    
C17   H3    S    
C59   O25   D    
Cu1   O8    S    
