data_mof_unit_15650.cif
_audit_creation_date              2012-12-10T19:01:21-0500
_audit_creation_method            fapswitch 2.2
_symmetry_space_group_name_H-M    P1
_symmetry_Int_Tables_number       1
_space_group_crystal_system       triclinic
_cell_length_a                    9.546511
_cell_length_b                    10.820792
_cell_length_c                    15.537493
_cell_angle_alpha                 89.865934
_cell_angle_beta                  74.236566
_cell_angle_gamma                 90.028378
_cell_volume                      1544.66743907

loop_
_atom_site_label
_atom_site_type_symbol
_atom_type_description
_atom_site_fract_x
_atom_site_fract_y
_atom_site_fract_z
_atom_type_partial_charge
C1    C     C_R   0.999185 0.262332 0.501683 0.801426
C2    C     C_R   0.673848 0.490614 0.907938 0.091450
C3    C     C_R   0.775046 0.521937 0.956439 0.166694
C4    C     C_R   0.524480 0.471225 0.954230 0.067024
C5    C     C_R   0.476747 0.494344 0.047836 0.066355
C6    C     C_R   0.581898 0.524441 0.093493 -0.221362
C7    C     C_R   0.727963 0.536970 0.048616 -0.239540
C8    C     C_R   0.421959 0.427085 0.910556 -0.221452
C9    C     C_R   0.276917 0.409400 0.956491 -0.242211
C10   C     C_R   0.227662 0.436527 0.047150 0.165558
C11   C     C_R   0.326082 0.482158 0.093324 0.095617
C12   C     C_R   0.918017 0.500168 0.672024 0.795737
C13   C     C_R   0.080770 0.416893 0.092587 -0.217986
C14   C     C_R   0.030564 0.440568 0.183889 -0.200154
C15   C     C_R   0.269993 0.513155 0.183912 -0.252590
C16   C     C_R   0.120884 0.063682 0.510539 0.118428
C17   C     C_R   0.995042 0.129220 0.510529 -0.096969
C18   C     C_R   0.863367 0.064299 0.522941 -0.218034
C19   C     C_R   0.863490 0.935451 0.522694 -0.216717
C20   C     C_R   0.995279 0.870796 0.510066 -0.098249
C21   C     C_R   0.121038 0.936494 0.510191 0.134017
C22   C     C_3   0.269919 0.930663 0.446927 -0.478482
C23   C     C_R   0.999328 0.737691 0.501419 0.801894
C24   C     C_3   0.269948 0.070966 0.447590 -0.456729
C25   C     C_R   0.592513 0.592590 0.458304 0.257964
C26   C     C_R   0.552917 0.415823 0.548492 -0.082703
C27   C     C_R   0.404014 0.415864 0.548543 -0.087715
C28   C     C_R   0.445212 0.592122 0.457830 0.266026
C29   C     C_3   0.484943 0.621038 0.360403 -0.525479
C30   C     C_3   0.642912 0.624810 0.361635 -0.503541
C31   C     C_R   0.081691 0.498858 0.327965 0.798382
C32   C     C_R   0.872314 0.502567 0.770126 -0.049553
C33   C     C_R   0.126019 0.487135 0.230193 -0.049949
C34   C     C_R   0.922788 0.539028 0.912086 -0.214374
C35   C     C_R   0.971449 0.528295 0.819514 -0.197935
C36   C     C_R   0.725365 0.483382 0.814355 -0.251169
Cu1   Cu    Cu3+1 0.140670 0.499980 0.500000 0.940364
Cu2   Cu    Cu3+1 0.859330 0.500020 0.500000 0.937303
H1    H     H_    0.804468 0.560003 0.086478 0.150539
H2    H     H_    0.005588 0.380094 0.057931 0.142599
H3    H     H_    0.761800 0.112375 0.528519 0.159594
H4    H     H_    0.761985 0.887221 0.528122 0.163164
H5    H     H_    0.350663 0.889623 0.478465 0.196234
H6    H     H_    0.269770 0.890948 0.381003 0.192749
H7    H     H_    0.350302 0.110914 0.479852 0.194124
H8    H     H_    0.270476 0.112684 0.382005 0.202431
H9    H     H_    0.591884 0.346199 0.586391 0.132912
H10   H     H_    0.331386 0.346322 0.586491 0.137094
H11   H     H_    0.461884 0.541854 0.321330 0.211141
H12   H     H_    0.335594 0.558887 0.220213 0.136815
H13   H     H_    0.442610 0.711914 0.345641 0.192491
H14   H     H_    0.709410 0.550946 0.320377 0.214463
H15   H     H_    0.691202 0.718957 0.350606 0.195601
H16   H     H_    0.918389 0.419769 0.218461 0.149083
H17   H     H_    0.202708 0.373801 0.920631 0.147581
H18   H     H_    0.000405 0.562771 0.948930 0.145414
H19   H     H_    0.085573 0.543597 0.786520 0.157163
H20   H     H_    0.652383 0.466757 0.773734 0.149626
H21   H     H_    0.450708 0.400821 0.841187 0.138539
N1    N     N_R   0.648210 0.500930 0.499430 -0.183450
N2    N     N_R   0.352300 0.500890 0.499430 -0.183096
O1    O     O_R   0.118810 0.319640 0.500000 -0.580744
O2    O     O_R   0.881230 0.319680 0.499990 -0.588079
O3    O     O_R   0.055580 0.499970 0.629840 -0.585971
O4    O     O_R   0.818000 0.500010 0.629830 -0.586405
O5    O     O_R   0.118770 0.680320 0.500010 -0.577728
O6    O     O_R   0.881190 0.680360 0.500000 -0.583937
O7    O     O_R   0.182000 0.499990 0.370170 -0.581250
O8    O     O_R   0.944420 0.500030 0.370160 -0.584382
H22   H     H_    0.556009 0.535453 0.164768 0.144343

loop_
_geom_bond_atom_site_label_1
_geom_bond_atom_site_label_2
_ccdc_geom_bond_type
C27   H10   S    
C8    C9    A    
C2    C4    A    
C19   H4    S    
C34   H18   S    
C16   C21   A    
C9    H17   S    
C25   N1    A    
C9    C10   A    
C3    C7    A    
C19   C20   A    
C20   C23   S    
C35   H19   S    
C4    C8    A    
C24   H8    S    
Cu1   O5    S    
C14   C33   A    
C31   C33   S    
C2    C3    A    
Cu2   O8    S    
C16   C24   S    
C29   H11   S    
C13   C14   A    
C28   N2    A    
C25   C28   A    
C26   C27   A    
C29   C30   S    
C26   N1    A    
C30   H14   S    
C26   H9    S    
Cu2   N1    S    
C24   H7    S    
C1    O2    A    
C23   O5    A    
C28   C29   S    
C14   H16   S    
Cu1   Cu2   S    
C5    C11   A    
C6    C7    A    
C36   H20   S    
C8    H21   S    
C29   H13   S    
C5    C6    A    
C12   O3    A    
C30   H15   S    
Cu2   O2    S    
C15   H12   S    
C16   C17   A    
C10   C11   A    
C1    C17   S    
C2    C36   A    
Cu2   O6    S    
Cu1   O7    S    
C32   C36   A    
C31   O8    A    
Cu1   O3    S    
C20   C21   A    
C1    O1    A    
C17   C18   A    
C34   C35   A    
C12   O4    A    
C18   H3    S    
C23   O6    A    
C25   C30   S    
C6    H22   S    
Cu1   O1    S    
C22   H6    S    
C18   C19   A    
C13   H2    S    
C7    H1    S    
Cu1   N2    S    
C27   N2    A    
C3    C34   A    
C21   C22   S    
Cu2   O4    S    
C11   C15   A    
C31   O7    A    
C15   C33   A    
C12   C32   S    
C32   C35   A    
C22   H5    S    
C22   C24   S    
C4    C5    A    
C10   C13   A    
