data_mof_unit_37062.cif
_audit_creation_date              2012-12-10T19:46:53-0500
_audit_creation_method            fapswitch 2.2
_symmetry_space_group_name_H-M    P1
_symmetry_Int_Tables_number       1
_space_group_crystal_system       triclinic
_cell_length_a                    10.937152
_cell_length_b                    10.885016
_cell_length_c                    13.108399
_cell_angle_alpha                 90.503445
_cell_angle_beta                  91.051757
_cell_angle_gamma                 89.348997
_cell_volume                      1560.14791827

loop_
_atom_site_label
_atom_site_type_symbol
_atom_type_description
_atom_site_fract_x
_atom_site_fract_y
_atom_site_fract_z
_atom_type_partial_charge
C1    C     C_R   0.500745 0.259630 0.499318 0.891733
C2    C     C_R   0.500200 0.740451 0.500466 0.908230
C3    C     C_R   0.872922 0.503967 0.502573 -0.088767
C4    C     C_R   0.126958 0.493971 0.496570 -0.085282
C5    C     C_R   0.941781 0.510652 0.594381 0.047793
C6    C     C_R   0.057973 0.488161 0.404328 0.049577
C7    C     C_R   0.728758 0.220913 0.207732 0.209215
C8    C     C_R   0.369447 0.813163 0.838110 0.207381
C9    C     C_R   0.635330 0.165139 0.262612 0.215405
C10   C     C_R   0.429232 0.871171 0.757602 0.185896
C11   C     C_R   0.660078 0.124014 0.363325 0.105829
C12   C     C_R   0.371579 0.877618 0.660142 0.144930
C13   C     C_R   0.775976 0.142648 0.407785 -0.155850
C14   C     C_R   0.256315 0.824807 0.644462 -0.172953
C15   C     C_R   0.867143 0.199647 0.353391 -0.186332
C16   C     C_R   0.197963 0.767565 0.724760 -0.200769
C17   C     C_R   0.844374 0.237808 0.253480 -0.232725
C18   C     C_R   0.254212 0.761586 0.821049 -0.148359
C19   C     C_R   0.567230 0.933099 0.426536 0.441536
C20   C     C_R   0.427012 0.066809 0.569363 0.436096
C21   C     C_R   0.498816 0.872990 0.500572 -0.274339
C22   C     C_R   0.497184 0.127294 0.496837 -0.276829
C23   C     C_R   0.259453 0.495942 0.498723 0.832815
C24   C     C_R   0.740511 0.503482 0.501081 0.838203
C25   C     C_R   0.432007 0.939214 0.574249 -0.165988
C26   C     C_R   0.567583 0.061357 0.425190 -0.158322
C27   C     C_1   0.500228 0.500088 0.173556 0.135171
C28   C     C_1   0.500011 0.499821 0.826451 0.158988
C29   C     C_1   0.500365 0.499984 0.050707 0.060373
C30   C     C_1   0.500207 0.499710 0.949307 0.047317
C31   C     C_R   0.137773 0.559363 0.132026 -0.222584
C32   C     C_R   0.836382 0.447185 0.860878 -0.223407
C33   C     C_R   0.097171 0.572096 0.231982 -0.291809
C34   C     C_R   0.877824 0.429866 0.761691 -0.295148
C35   C     C_R   0.111784 0.475356 0.301502 0.139011
C36   C     C_R   0.886961 0.529805 0.695819 0.126293
C37   C     C_R   0.168801 0.365007 0.269576 0.134424
C38   C     C_R   0.850840 0.648112 0.729091 0.137902
C39   C     C_R   0.209741 0.353179 0.169015 -0.267749
C40   C     C_R   0.810586 0.664872 0.829677 -0.291380
C41   C     C_R   0.191186 0.448321 0.099131 0.541504
C42   C     C_R   0.807455 0.564790 0.897594 0.537328
C43   C     C_R   0.931569 0.494608 0.408900 -0.242039
C44   C     C_R   0.068059 0.503106 0.590260 -0.267367
Cu1   Cu    Cu3+1 0.499990 0.499990 0.592680 0.997800
Cu2   Cu    Cu3+1 0.500010 0.500010 0.407320 0.975515
H1    H     H_    0.795579 0.113014 0.485135 0.136402
H2    H     H_    0.211587 0.828446 0.570113 0.129849
H3    H     H_    0.955297 0.214551 0.389483 0.176518
H4    H     H_    0.108619 0.728200 0.712528 0.177862
H5    H     H_    0.127648 0.635824 0.080222 0.141983
H6    H     H_    0.830613 0.368927 0.910877 0.149675
H7    H     H_    0.053532 0.657424 0.255240 0.161683
H8    H     H_    0.904569 0.338537 0.736553 0.154149
H9    H     H_    0.254018 0.268735 0.144494 0.161815
H10   H     H_    0.781901 0.755574 0.854449 0.144689
H11   H     H_    0.878523 0.490183 0.338231 0.169814
H12   H     H_    0.120705 0.507395 0.661123 0.156822
H13   H     H_    0.916137 0.281641 0.211719 0.151364
H14   H     H_    0.207894 0.717154 0.882745 0.151275
N1    N     N_1   0.500030 0.500030 0.268070 -0.148169
N2    N     N_1   0.499970 0.499970 0.731930 -0.133481
O1    O     O_R   0.499980 0.319630 0.578260 -0.533435
O2    O     O_R   0.500020 0.680370 0.421740 -0.562431
O3    O     O_R   0.500000 0.319650 0.421740 -0.608607
O4    O     O_R   0.500000 0.680350 0.578260 -0.592927
O5    O     O_R   0.319630 0.500000 0.578260 -0.580812
O6    O     O_R   0.680370 0.500000 0.421740 -0.576791
O7    O     O_R   0.319650 0.500020 0.421740 -0.576974
O8    O     O_R   0.680350 0.499980 0.578260 -0.584105
O9    O     O_3   0.234824 0.434400 0.001353 -0.589690
C45   C     C_3   0.135657 0.432705 0.931231 -0.320699
H15   H     H_    0.089089 0.523832 0.926828 0.155827
H16   H     H_    0.069347 0.359839 0.950195 0.162027
H17   H     H_    0.171209 0.411307 0.854284 0.194613
O10   O     O_3   0.769872 0.575158 0.998092 -0.604850
C46   C     C_3   0.813235 0.683249 0.045976 -0.376374
H18   H     H_    0.812323 0.669907 0.129759 0.194790
H19   H     H_    0.751375 0.762124 0.028183 0.170309
H20   H     H_    0.909234 0.703900 0.025545 0.158459
O11   O     O_3   0.652441 0.866540 0.370727 -0.576019
C47   C     C_3   0.607384 0.844251 0.270680 -0.272560
H21   H     H_    0.505549 0.844696 0.263509 0.141789
H22   H     H_    0.639572 0.751849 0.246049 0.188514
H23   H     H_    0.646545 0.911430 0.217619 0.161076
O12   O     O_3   0.362663 0.132523 0.642295 -0.564013
C48   C     C_3   0.244855 0.159947 0.602682 -0.281033
H24   H     H_    0.195099 0.075441 0.579033 0.150142
H25   H     H_    0.249372 0.224430 0.537788 0.157575
H26   H     H_    0.191189 0.206108 0.663251 0.183050
N3    N     N_3   0.183346 0.264455 0.338500 -0.638416
H27   H     H_    0.276766 0.246902 0.348399 0.219081
H28   H     H_    0.145025 0.186607 0.303975 0.208022
N4    N     N_3   0.857966 0.750697 0.661246 -0.602391
H29   H     H_    0.787767 0.741715 0.606601 0.227230
H30   H     H_    0.841194 0.833023 0.700496 0.210131
N5    N     N_3   0.705644 0.260939 0.105421 -0.566495
H31   H     H_    0.725247 0.354578 0.102297 0.241256
H32   H     H_    0.766933 0.214623 0.057939 0.202136
N6    N     N_3   0.424356 0.806702 0.937951 -0.604146
H33   H     H_    0.438797 0.896429 0.964231 0.235726
H34   H     H_    0.509814 0.763529 0.931833 0.231946
N7    N     N_3   0.516536 0.153368 0.215555 -0.576156
H35   H     H_    0.489787 0.061823 0.217699 0.194292
H36   H     H_    0.454186 0.204982 0.257705 0.224055
N8    N     N_3   0.548675 0.920847 0.775555 -0.627915
H37   H     H_    0.545297 0.014988 0.760725 0.251734
H38   H     H_    0.608896 0.879120 0.724464 0.212540

loop_
_geom_bond_atom_site_label_1
_geom_bond_atom_site_label_2
_ccdc_geom_bond_type
C48   H24   S    
C20   C25   A    
C27   C29   S    
C45   H16   S    
C23   O7    A    
N5    H31   S    
C24   O8    A    
C39   C41   A    
C46   H18   S    
C3    C43   A    
C35   C37   A    
C16   H4    S    
N8    H37   S    
C5    C36   S    
Cu1   N2    S    
C6    C35   S    
C7    C9    A    
C23   O5    A    
C19   C26   A    
C32   H6    S    
Cu2   O7    S    
C27   N1    T    
C39   H9    S    
C44   H12   S    
C7    C17   A    
C20   O12   S    
Cu1   O5    S    
C1    O3    A    
C31   C33   A    
C7    N5    S    
C41   O9    S    
C40   C42   A    
C1    C22   S    
C3    C24   S    
C45   H17   S    
C1    O1    A    
N5    H32   S    
C2    O2    A    
O11   C47   S    
C46   H19   S    
C33   H7    S    
C37   N3    S    
Cu2   N1    S    
O10   C46   S    
Cu2   O3    S    
C4    C6    A    
N3    H27   S    
C13   H1    S    
C4    C23   S    
C24   O6    A    
O12   C48   S    
C14   H2    S    
C4    C44   A    
C11   C26   S    
C40   H10   S    
Cu1   Cu2   S    
Cu1   O1    S    
C8    C18   A    
Cu2   O2    S    
C32   C34   A    
Cu2   O6    S    
C29   C30   T    
N3    H28   S    
C9    N7    S    
C38   N4    S    
C2    C21   S    
N6    H34   S    
N7    H36   S    
C16   C18   A    
N4    H30   S    
C9    C11   A    
C10   C12   A    
C17   H13   S    
C18   H14   S    
C5    C44   A    
C20   C22   A    
C34   H8    S    
C47   H22   S    
C6    C43   A    
C13   C15   A    
C14   C16   A    
C10   N8    S    
N7    H35   S    
C46   H20   S    
C15   C17   A    
C21   C25   A    
C31   C41   A    
C19   C21   A    
Cu1   O8    S    
C31   H5    S    
C45   H15   S    
C3    C5    A    
C2    O4    A    
C47   H23   S    
C42   O10   S    
C12   C25   S    
C28   C30   S    
C12   C14   A    
O9    C45   S    
C37   C39   A    
C38   C40   A    
C11   C13   A    
N8    H38   S    
C36   C38   A    
N6    H33   S    
C33   C35   A    
C34   C36   A    
C15   H3    S    
C8    N6    S    
N4    H29   S    
C43   H11   S    
C8    C10   A    
C47   H21   S    
C22   C26   A    
C48   H26   S    
Cu1   O4    S    
C48   H25   S    
C32   C42   A    
C19   O11   S    
C28   N2    T    
