data_mof_unit_49131.cif
_audit_creation_date              2012-12-10T20:51:25-0500
_audit_creation_method            fapswitch 2.2
_symmetry_space_group_name_H-M    P1
_symmetry_Int_Tables_number       1
_space_group_crystal_system       triclinic
_cell_length_a                    17.57146
_cell_length_b                    8.928279
_cell_length_c                    8.105337
_cell_angle_alpha                 90.082741
_cell_angle_beta                  89.837549
_cell_angle_gamma                 90.788984
_cell_volume                      1271.46182699

loop_
_atom_site_label
_atom_site_type_symbol
_atom_type_description
_atom_site_fract_x
_atom_site_fract_y
_atom_site_fract_z
_atom_type_partial_charge
C1    C     C_R   0.502680 0.218178 0.499938 0.986382
C2    C     C_R   0.847350 0.596484 0.378280 -0.181392
C3    C     C_R   0.769417 0.388755 0.578883 -0.161860
C4    C     C_R   0.233349 0.367355 0.437519 -0.060491
C5    C     C_R   0.228401 0.627115 0.540176 -0.060538
C6    C     C_R   0.768883 0.608864 0.396807 -0.035677
C7    C     C_R   0.729392 0.503102 0.496949 -0.167476
C8    C     C_R   0.270699 0.497680 0.498982 -0.172392
C9    C     C_R   0.885941 0.483548 0.459012 0.116556
C10   C     C_R   0.113793 0.493399 0.458946 0.092063
C11   C     C_1   0.966088 0.482967 0.451549 -0.022069
C12   C     C_R   0.500029 0.782032 0.500117 1.009011
C13   C     C_1   0.033668 0.486934 0.451340 -0.015697
C14   C     C_2   0.730758 0.273420 0.681596 0.947182
C15   C     C_2   0.273800 0.226811 0.400343 0.962693
C16   C     C_2   0.263485 0.769969 0.601169 0.893667
C17   C     C_2   0.730841 0.736716 0.315638 0.946222
C18   C     C_1   0.503212 0.065310 0.500034 -0.152091
C19   C     C_1   0.501977 0.934879 0.500279 -0.164918
C20   C     C_R   0.353304 0.502389 0.500186 0.950352
C21   C     C_R   0.646734 0.501275 0.499709 0.904564
C22   C     C_R   0.847842 0.379916 0.558323 -0.151154
C23   C     C_R   0.154841 0.367601 0.416933 -0.162712
C24   C     C_R   0.149482 0.621939 0.519524 -0.162359
H1    H     H_    0.879366 0.293581 0.621474 0.155572
H2    H     H_    0.125196 0.267829 0.373156 0.175890
H3    H     H_    0.115219 0.717631 0.552685 0.179455
H4    H     H_    0.879001 0.677885 0.305082 0.172838
H5    H     H_    0.708810 0.417834 0.866891 0.321696
H6    H     H_    0.349397 0.074483 0.473467 0.340357
H7    H     H_    0.349773 0.875357 0.719679 0.353582
H8    H     H_    0.650065 0.894441 0.326477 0.354509
N1    N     N_1   0.500000 0.500000 0.073640 -0.012271
N2    N     N_1   0.500000 0.500000 0.926360 -0.002625
O1    O     O_R   0.500000 0.285350 0.636850 -0.593104
O2    O     O_R   0.699370 0.309364 0.835005 -0.736665
O3    O     O_2   0.255118 0.150895 0.280980 -0.592189
O4    O     O_R   0.330340 0.176816 0.506489 -0.803438
O5    O     O_2   0.229797 0.887809 0.582911 -0.599230
O6    O     O_R   0.333182 0.771192 0.683485 -0.798059
O7    O     O_2   0.754598 0.783867 0.183246 -0.601578
O8    O     O_R   0.669811 0.807087 0.392883 -0.792145
O9    O     O_R   0.500000 0.714650 0.363150 -0.617497
O10   O     O_R   0.500000 0.714650 0.636850 -0.590339
O11   O     O_R   0.500000 0.285350 0.363150 -0.617907
O12   O     O_R   0.389120 0.500000 0.636930 -0.553520
O13   O     O_R   0.610880 0.500000 0.363070 -0.609464
O14   O     O_R   0.610880 0.500000 0.636930 -0.614066
O15   O     O_R   0.389120 0.500000 0.363070 -0.632112
O16   O     O_2   0.727870 0.143880 0.633440 -0.550469
Zn1   Zn    Zn3+2 0.500000 0.500000 0.682780 1.080928
Zn2   Zn    Zn3+2 0.500000 0.500000 0.317220 1.043983

loop_
_geom_bond_atom_site_label_1
_geom_bond_atom_site_label_2
_ccdc_geom_bond_type
C5    C8    A    
C15   O4    S    
C6    C7    A    
C3    C14   S    
C10   C23   A    
C20   O15   A    
C9    C11   S    
C3    C22   A    
C24   H3    S    
C4    C8    A    
C21   O14   A    
O15   Zn2   S    
C4    C15   S    
N1    N2    T    
C1    C18   S    
C12   O10   A    
C14   O16   D    
N1    Zn2   S    
C14   O2    S    
C11   C13   T    
H5    O2    S    
C1    O11   A    
N2    Zn1   S    
C8    C20   S    
C5    C24   A    
C16   O6    S    
O10   Zn1   S    
C12   O9    A    
C3    C7    A    
O1    Zn1   S    
C9    C22   A    
C17   O7    D    
O9    Zn2   S    
H6    O4    S    
C16   O5    D    
C6    C17   S    
H7    O6    S    
C12   C19   S    
C18   C19   T    
C23   H2    S    
O13   Zn2   S    
C4    C23   A    
C1    O1    A    
H8    O8    S    
C17   O8    S    
C15   O3    D    
C5    C16   S    
C2    H4    S    
O11   Zn2   S    
C10   C24   A    
C7    C21   S    
C2    C9    A    
O12   Zn1   S    
C22   H1    S    
O14   Zn1   S    
C20   O12   A    
C2    C6    A    
C21   O13   A    
C10   C13   S    
