data_mof_unit_39948.cif
_audit_creation_date              2012-12-10T20:19:39-0500
_audit_creation_method            fapswitch 2.2
_symmetry_space_group_name_H-M    P1
_symmetry_Int_Tables_number       1
_space_group_crystal_system       triclinic
_cell_length_a                    27.526529
_cell_length_b                    27.11233
_cell_length_c                    18.615998
_cell_angle_alpha                 89.898137
_cell_angle_beta                  90.016311
_cell_angle_gamma                 90.002728
_cell_volume                      13893.2519928

loop_
_atom_site_label
_atom_site_type_symbol
_atom_type_description
_atom_site_fract_x
_atom_site_fract_y
_atom_site_fract_z
_atom_type_partial_charge
C1    C     C_R   0.067012 0.433161 0.499948 0.895191
C2    C     C_R   0.932874 0.566589 0.499869 0.898529
C3    C     C_R   0.932609 0.433589 0.500184 0.894505
C4    C     C_R   0.067179 0.566572 0.500092 0.898330
C5    C     C_R   0.567215 0.933417 0.499924 0.897383
C6    C     C_R   0.432617 0.066433 0.499823 0.895418
C7    C     C_R   0.432932 0.933270 0.500120 0.897212
C8    C     C_R   0.566920 0.066949 0.500042 0.895838
C9    C     C_R   0.235463 0.728031 0.568693 -0.193660
C10   C     C_R   0.755909 0.280151 0.439327 -0.178514
C11   C     C_R   0.757849 0.278446 0.569466 -0.192840
C12   C     C_R   0.237254 0.727151 0.438507 -0.182079
C13   C     C_R   0.766543 0.730379 0.431082 -0.191086
C14   C     C_R   0.222180 0.258100 0.560124 -0.191212
C15   C     C_R   0.220473 0.255537 0.429978 -0.184980
C16   C     C_R   0.766330 0.730635 0.561354 -0.181130
C17   C     C_R   0.719931 0.244890 0.569696 -0.186395
C18   C     C_R   0.271207 0.764653 0.439001 -0.187217
C19   C     C_R   0.273258 0.761650 0.569168 -0.187784
C20   C     C_R   0.721702 0.242793 0.439571 -0.184684
C21   C     C_R   0.258450 0.222058 0.430522 -0.188424
C22   C     C_R   0.732714 0.768458 0.560828 -0.182518
C23   C     C_R   0.729055 0.764380 0.430850 -0.190108
C24   C     C_R   0.256590 0.220931 0.560694 -0.184067
C25   C     C_R   0.775804 0.296788 0.504205 0.134798
C26   C     C_R   0.217951 0.709674 0.503324 0.134229
C27   C     C_R   0.203404 0.275383 0.494711 0.131298
C28   C     C_R   0.784617 0.712304 0.496444 0.135171
C29   C     C_R   0.290314 0.781528 0.504339 0.133288
C30   C     C_R   0.703038 0.225091 0.504802 0.133942
C31   C     C_R   0.712809 0.784721 0.495685 0.134513
C32   C     C_R   0.276363 0.203953 0.495953 0.132915
C33   C     C_R   0.000599 0.499745 0.077028 -0.218448
C34   C     C_R   0.000851 0.499664 0.922709 -0.218917
C35   C     C_R   0.499340 0.999920 0.077309 -0.213020
C36   C     C_R   0.499400 0.000188 0.922994 -0.212545
C37   C     C_R   0.982703 0.540021 0.726401 0.525940
C38   C     C_R   0.980751 0.460804 0.273591 0.524305
C39   C     C_R   0.017438 0.459931 0.726266 0.521579
C40   C     C_R   0.019270 0.539219 0.273467 0.525856
C41   C     C_R   0.480057 0.038858 0.726300 0.520523
C42   C     C_R   0.483690 0.959405 0.273947 0.522647
C43   C     C_R   0.519697 0.961146 0.726800 0.524125
C44   C     C_R   0.516178 0.040559 0.273541 0.524597
C45   C     C_R   0.978941 0.538044 0.802205 -0.368545
C46   C     C_R   0.976922 0.462820 0.197849 -0.363818
C47   C     C_R   0.021733 0.461318 0.801775 -0.352801
C48   C     C_R   0.023642 0.536929 0.197751 -0.368031
C49   C     C_R   0.475844 0.036854 0.801901 -0.357351
C50   C     C_R   0.479514 0.960915 0.198356 -0.357696
C51   C     C_R   0.523800 0.963564 0.802526 -0.364307
C52   C     C_R   0.520057 0.038841 0.197825 -0.363846
C53   C     C_R   0.104289 0.641526 0.452152 -0.264390
C54   C     C_R   0.855927 0.404501 0.551813 -0.285631
C55   C     C_R   0.892077 0.360494 0.452039 -0.264630
C56   C     C_R   0.143113 0.598166 0.550602 -0.281411
C57   C     C_R   0.897261 0.642158 0.547442 -0.262874
C58   C     C_R   0.139018 0.393815 0.447730 -0.291309
C59   C     C_R   0.097608 0.355222 0.547862 -0.251773
C60   C     C_R   0.857252 0.599223 0.449833 -0.283575
C61   C     C_R   0.597625 0.144701 0.451429 -0.259062
C62   C     C_R   0.359725 0.896502 0.552460 -0.289712
C63   C     C_R   0.398979 0.857241 0.451116 -0.255641
C64   C     C_R   0.638756 0.106629 0.552278 -0.292213
C65   C     C_R   0.392705 0.140081 0.547443 -0.258742
C66   C     C_R   0.641059 0.898211 0.447287 -0.291087
C67   C     C_R   0.602870 0.858099 0.549027 -0.261229
C68   C     C_R   0.355475 0.095323 0.449323 -0.287507
C69   C     C_R   0.140084 0.677445 0.453777 0.437072
C70   C     C_R   0.816680 0.372400 0.552079 0.450350
C71   C     C_R   0.854833 0.326083 0.454078 0.440245
C72   C     C_R   0.181048 0.631850 0.550372 0.451587
C73   C     C_R   0.862256 0.678810 0.545566 0.435568
C74   C     C_R   0.172543 0.355572 0.446039 0.457882
C75   C     C_R   0.128823 0.315221 0.544646 0.430025
C76   C     C_R   0.820074 0.633719 0.449820 0.450972
C77   C     C_R   0.629044 0.184589 0.454225 0.431948
C78   C     C_R   0.324320 0.860064 0.553464 0.455924
C79   C     C_R   0.365853 0.818856 0.453729 0.434491
C80   C     C_R   0.672390 0.144780 0.553563 0.457386
C81   C     C_R   0.355537 0.174586 0.545622 0.440111
C82   C     C_R   0.677227 0.862562 0.446293 0.455327
C83   C     C_R   0.637029 0.820659 0.546749 0.433379
C84   C     C_R   0.316321 0.127608 0.449324 0.455172
C85   C     C_R   0.179385 0.672536 0.502437 -0.140206
C86   C     C_R   0.816034 0.332275 0.503394 -0.139683
C87   C     C_R   0.822661 0.674539 0.497244 -0.138401
C88   C     C_R   0.167513 0.315427 0.494398 -0.139789
C89   C     C_R   0.667501 0.184686 0.504783 -0.138673
C90   C     C_R   0.327421 0.820297 0.504365 -0.140472
C91   C     C_R   0.316388 0.168257 0.497040 -0.142045
C92   C     C_R   0.675228 0.822959 0.495906 -0.137763
C93   C     C_R   0.996410 0.455201 0.962402 0.335189
C94   C     C_R   0.999030 0.544407 0.037278 0.338146
C95   C     C_R   0.005208 0.544214 0.962122 0.338987
C96   C     C_R   0.002310 0.454984 0.037601 0.339203
C97   C     C_R   0.498418 0.955396 0.962499 0.338482
C98   C     C_R   0.494130 0.044412 0.037793 0.334865
C99   C     C_R   0.499984 0.044845 0.962576 0.334686
C100  C     C_R   0.504175 0.955556 0.037727 0.331764
C101  C     C_R   0.000647 0.499716 0.841364 0.090681
C102  C     C_R   0.000393 0.499801 0.158407 0.094909
C103  C     C_R   0.499721 0.000256 0.841634 0.097279
C104  C     C_R   0.499666 0.999858 0.158674 0.097436
C105  C     C_R   0.105541 0.602549 0.500742 -0.168301
C106  C     C_R   0.892911 0.399003 0.501164 -0.170505
C107  C     C_R   0.895062 0.603093 0.499279 -0.168617
C108  C     C_R   0.102401 0.394015 0.499392 -0.169970
C109  C     C_R   0.602216 0.106193 0.500482 -0.169184
C110  C     C_R   0.396278 0.895444 0.500714 -0.171789
C111  C     C_R   0.392994 0.101153 0.498968 -0.169577
C112  C     C_R   0.604615 0.896323 0.499253 -0.169509
N1    N     N_R   0.000000 0.500000 0.689440 -0.163327
N2    N     N_R   0.000000 0.500000 0.310560 -0.161001
N3    N     N_R   0.500000 0.000000 0.689440 -0.162314
N4    N     N_R   0.500000 0.000000 0.310560 -0.162172
O1    O     O_R   0.050900 0.449080 0.560840 -0.566013
O2    O     O_R   0.949100 0.550920 0.439160 -0.624222
O3    O     O_R   0.949100 0.550920 0.560840 -0.562220
O4    O     O_R   0.050900 0.449080 0.439160 -0.624990
O5    O     O_R   0.949100 0.449080 0.439160 -0.559156
O6    O     O_R   0.050900 0.550920 0.560840 -0.624209
O7    O     O_R   0.050900 0.550920 0.439160 -0.560397
O8    O     O_R   0.949100 0.449080 0.560840 -0.631418
O9    O     O_R   0.550900 0.949080 0.560840 -0.560720
O10   O     O_R   0.449100 0.050920 0.439160 -0.624856
O11   O     O_R   0.449100 0.050920 0.560840 -0.560421
O12   O     O_R   0.550900 0.949080 0.439160 -0.626984
O13   O     O_R   0.449100 0.949080 0.439160 -0.565344
O14   O     O_R   0.550900 0.050920 0.560840 -0.627062
O15   O     O_R   0.550900 0.050920 0.439160 -0.563977
O16   O     O_R   0.449100 0.949080 0.560840 -0.624307
Zn1   Zn    Zn3+2 1.000000 0.500000 0.581210 1.001999
Zn2   Zn    Zn3+2 1.000000 0.500000 0.418790 1.006955
Zn3   Zn    Zn3+2 0.500000 0.000000 0.581210 1.005038
Zn4   Zn    Zn3+2 0.500000 0.000000 0.418790 1.003156
O17   O     O_3   0.965884 0.580670 0.688409 -0.612209
C113  C     C_3   0.984374 0.625642 0.716242 0.063329
H1    H     H_    0.999936 0.647089 0.670822 0.142999
H2    H     H_    0.014920 0.620845 0.755152 0.133239
C114  C     C_3   0.943012 0.655993 0.749421 -0.346730
H3    H     H_    0.920403 0.672183 0.706013 0.242034
H4    H     H_    0.919005 0.632023 0.782289 0.227741
C115  C     C_3   0.962483 0.697455 0.796702 -0.957631
H5    H     H_    0.983295 0.681888 0.842631 0.284136
H6    H     H_    0.931625 0.719271 0.818256 0.268526
H7    H     H_    0.986396 0.722297 0.764975 0.257306
O18   O     O_3   0.962117 0.420949 0.311280 -0.612171
C116  C     C_3   0.980762 0.375464 0.285478 0.065560
H8    H     H_    0.995415 0.354561 0.332108 0.144115
H9    H     H_    0.011881 0.379460 0.247424 0.129239
C117  C     C_3   0.939766 0.344953 0.251644 -0.344896
H10   H     H_    0.915441 0.330677 0.294412 0.240154
H11   H     H_    0.917366 0.368298 0.215516 0.228179
C118  C     C_3   0.959714 0.301565 0.208687 -0.956188
H12   H     H_    0.981804 0.315156 0.162761 0.282241
H13   H     H_    0.929055 0.279382 0.187266 0.268716
H14   H     H_    0.982527 0.277585 0.243471 0.256337
O19   O     O_3   0.032670 0.418595 0.689149 -0.616241
C119  C     C_3   0.003610 0.377095 0.707198 0.074552
H15   H     H_    0.987975 0.362118 0.656664 0.152925
H16   H     H_    0.971940 0.385657 0.742640 0.120327
C120  C     C_3   0.035219 0.337029 0.741897 -0.346978
H17   H     H_    0.062032 0.323218 0.702234 0.244244
H18   H     H_    0.055708 0.352623 0.787952 0.230770
C121  C     C_3   0.004561 0.293807 0.768640 -0.959745
H19   H     H_    0.979401 0.306176 0.811638 0.271373
H20   H     H_    0.028703 0.264804 0.791025 0.268083
H21   H     H_    0.983239 0.277770 0.723700 0.256863
O20   O     O_3   0.037266 0.579334 0.311229 -0.611740
C122  C     C_3   0.021038 0.624936 0.282154 0.061546
H22   H     H_    0.005845 0.647317 0.326766 0.141160
H23   H     H_    0.990753 0.621255 0.242618 0.132557
C123  C     C_3   0.064058 0.653245 0.249565 -0.344537
H24   H     H_    0.086468 0.669247 0.293242 0.243717
H25   H     H_    0.087760 0.627889 0.218601 0.227441
C124  C     C_3   0.047051 0.694698 0.199983 -0.954778
H26   H     H_    0.026597 0.679273 0.153690 0.284848
H27   H     H_    0.079096 0.715026 0.179031 0.268546
H28   H     H_    0.023465 0.720890 0.229732 0.256495
O21   O     O_3   0.461454 0.078789 0.688892 -0.612450
C125  C     C_3   0.483072 0.123619 0.711868 0.071240
H29   H     H_    0.497873 0.142739 0.663760 0.146090
H30   H     H_    0.514613 0.118695 0.749006 0.125860
C126  C     C_3   0.444546 0.156987 0.746198 -0.342705
H31   H     H_    0.419344 0.170796 0.704180 0.240130
H32   H     H_    0.422616 0.135878 0.785701 0.229008
C127  C     C_3   0.467677 0.200922 0.784235 -0.957542
H33   H     H_    0.490747 0.188024 0.829520 0.277854
H34   H     H_    0.438723 0.225163 0.806071 0.268892
H35   H     H_    0.490199 0.222608 0.746012 0.256261
O22   O     O_3   0.468510 0.918186 0.311778 -0.615616
C128  C     C_3   0.494228 0.875369 0.289824 0.069451
H36   H     H_    0.510116 0.857950 0.338560 0.150544
H37   H     H_    0.525525 0.882933 0.253211 0.126568
C129  C     C_3   0.459193 0.838362 0.255196 -0.346715
H38   H     H_    0.434092 0.823501 0.296554 0.240196
H39   H     H_    0.436752 0.856825 0.213559 0.229398
C130  C     C_3   0.486474 0.795566 0.220473 -0.958925
H40   H     H_    0.509951 0.809297 0.176193 0.276641
H41   H     H_    0.459991 0.768879 0.197828 0.267611
H42   H     H_    0.509241 0.776234 0.260994 0.257785
O23   O     O_3   0.537969 0.921006 0.689507 -0.612951
C131  C     C_3   0.520396 0.875651 0.717666 0.063318
H43   H     H_    0.505366 0.853737 0.672436 0.140720
H44   H     H_    0.489624 0.879805 0.756247 0.132483
C132  C     C_3   0.562324 0.846360 0.751508 -0.345143
H45   H     H_    0.584855 0.829720 0.708486 0.244108
H46   H     H_    0.586265 0.871176 0.783022 0.227887
C133  C     C_3   0.543717 0.805473 0.800817 -0.955821
H47   H     H_    0.523362 0.821551 0.846702 0.286005
H48   H     H_    0.574976 0.784201 0.822394 0.268618
H49   H     H_    0.519585 0.779997 0.770679 0.256457
O24   O     O_3   0.531552 0.081726 0.311286 -0.614516
C134  C     C_3   0.508848 0.125443 0.285842 0.064013
H50   H     H_    0.492694 0.144763 0.332710 0.145406
H51   H     H_    0.478002 0.118799 0.248087 0.130227
C135  C     C_3   0.546772 0.159700 0.251642 -0.345438
H52   H     H_    0.569998 0.175919 0.294233 0.243617
H53   H     H_    0.570880 0.138636 0.215065 0.227523
C136  C     C_3   0.522822 0.201324 0.209144 -0.956490
H54   H     H_    0.501449 0.186003 0.163705 0.280949
H55   H     H_    0.551269 0.226107 0.187022 0.268304
H56   H     H_    0.498480 0.223183 0.244478 0.256706
H57   H     H_    0.959603 0.566838 0.830179 0.206890
H58   H     H_    0.956235 0.434903 0.170204 0.206788
H59   H     H_    0.040772 0.431861 0.828890 0.204383
H60   H     H_    0.044486 0.564724 0.169975 0.208062
H61   H     H_    0.454522 0.064511 0.829035 0.206360
H62   H     H_    0.460992 0.931266 0.171232 0.205827
H63   H     H_    0.544943 0.936062 0.830449 0.207534
H64   H     H_    0.538358 0.068407 0.170027 0.206095
H65   H     H_    0.074535 0.645015 0.414606 0.181005
H66   H     H_    0.857015 0.434398 0.590455 0.174787
H67   H     H_    0.921358 0.356133 0.413884 0.180539
H68   H     H_    0.143563 0.567912 0.588906 0.175197
H69   H     H_    0.927181 0.645104 0.584808 0.183459
H70   H     H_    0.141958 0.423637 0.409097 0.171784
H71   H     H_    0.068165 0.354981 0.586207 0.188859
H72   H     H_    0.856052 0.568827 0.412059 0.174750
H73   H     H_    0.568255 0.144823 0.412881 0.188933
H74   H     H_    0.358172 0.926055 0.591573 0.173579
H75   H     H_    0.428144 0.856173 0.412232 0.190120
H76   H     H_    0.641609 0.076988 0.591295 0.172411
H77   H     H_    0.422384 0.144742 0.584835 0.179440
H78   H     H_    0.641843 0.927772 0.407900 0.173118
H79   H     H_    0.573772 0.856223 0.587846 0.185577
H80   H     H_    0.356067 0.065068 0.411246 0.173876
O25   O     O_3   0.137494 0.715697 0.404647 -0.667524
C137  C     C_3   0.114959 0.757456 0.435735 0.092985
H81   H     H_    0.139083 0.789620 0.425810 0.170923
H82   H     H_    0.109500 0.754992 0.495197 0.115859
C138  C     C_3   0.066048 0.766629 0.398964 -0.350246
H83   H     H_    0.070567 0.764378 0.339692 0.242336
H84   H     H_    0.039752 0.737745 0.415890 0.203860
C139  C     C_3   0.045732 0.817400 0.417657 -0.974616
H85   H     H_    0.043131 0.821747 0.476808 0.267683
H86   H     H_    0.009029 0.821741 0.393694 0.263605
H87   H     H_    0.069616 0.846859 0.395930 0.266565
O26   O     O_3   0.781577 0.378346 0.604418 -0.659753
C140  C     C_3   0.740257 0.402713 0.576132 0.099809
H88   H     H_    0.707855 0.382277 0.595929 0.175509
H89   H     H_    0.737782 0.402249 0.516234 0.103229
C141  C     C_3   0.738820 0.456228 0.603222 -0.342926
H90   H     H_    0.760758 0.459821 0.653044 0.246300
H91   H     H_    0.755132 0.480921 0.562038 0.191624
C142  C     C_3   0.687106 0.473415 0.619836 -0.951018
H92   H     H_    0.663873 0.470720 0.571362 0.261711
H93   H     H_    0.687747 0.512340 0.638140 0.261650
H94   H     H_    0.671164 0.450543 0.663420 0.266629
O27   O     O_3   0.855877 0.287621 0.405367 -0.665325
C143  C     C_3   0.877296 0.245356 0.436952 0.093390
H95   H     H_    0.853153 0.213537 0.425183 0.169674
H96   H     H_    0.881075 0.247078 0.496756 0.115583
C144  C     C_3   0.927049 0.236044 0.402884 -0.354738
H97   H     H_    0.923889 0.238206 0.343380 0.243537
H98   H     H_    0.953051 0.264852 0.421005 0.203902
C145  C     C_3   0.946651 0.185284 0.423221 -0.974583
H99   H     H_    0.949721 0.182004 0.482517 0.269654
H100  H     H_    0.983098 0.179987 0.398891 0.263863
H101  H     H_    0.922090 0.155905 0.402973 0.266038
O28   O     O_3   0.216943 0.626770 0.601884 -0.658894
C146  C     C_3   0.259904 0.606988 0.571469 0.091861
H102  H     H_    0.290705 0.629773 0.591150 0.172179
H103  H     H_    0.261315 0.608389 0.511563 0.112757
C147  C     C_3   0.266762 0.553682 0.597012 -0.343918
H104  H     H_    0.255828 0.550403 0.654371 0.243087
H105  H     H_    0.243177 0.528959 0.564673 0.202928
C148  C     C_3   0.319572 0.537053 0.590156 -0.962548
H106  H     H_    0.332012 0.540533 0.533588 0.265092
H107  H     H_    0.322887 0.497915 0.607142 0.265200
H108  H     H_    0.343244 0.559773 0.625346 0.264419
O29   O     O_3   0.865902 0.717104 0.594309 -0.667258
C149  C     C_3   0.889546 0.758170 0.562800 0.091421
H109  H     H_    0.865727 0.790774 0.570865 0.170742
H110  H     H_    0.895935 0.754989 0.503680 0.115104
C150  C     C_3   0.938067 0.767167 0.600991 -0.349841
H111  H     H_    0.932862 0.764750 0.660133 0.243812
H112  H     H_    0.964534 0.738282 0.584686 0.203502
C151  C     C_3   0.958746 0.817949 0.582925 -0.973464
H113  H     H_    0.963619 0.821749 0.524050 0.268360
H114  H     H_    0.994416 0.822775 0.609851 0.264104
H115  H     H_    0.933867 0.847433 0.601831 0.265938
O30   O     O_3   0.207606 0.356037 0.392951 -0.659826
C152  C     C_3   0.250813 0.378231 0.418458 0.099894
H116  H     H_    0.281491 0.355553 0.397963 0.174233
H117  H     H_    0.254583 0.378139 0.478220 0.104064
C153  C     C_3   0.255059 0.431197 0.389450 -0.350349
H118  H     H_    0.233685 0.435096 0.339015 0.245004
H119  H     H_    0.239808 0.457292 0.429537 0.195651
C154  C     C_3   0.307722 0.445197 0.373408 -0.949415
H120  H     H_    0.330372 0.441437 0.422435 0.262159
H121  H     H_    0.309388 0.483969 0.354316 0.263319
H122  H     H_    0.322572 0.421032 0.330512 0.265472
O31   O     O_3   0.122039 0.277461 0.593683 -0.664609
C155  C     C_3   0.101178 0.235783 0.559928 0.087900
H123  H     H_    0.127912 0.205135 0.563144 0.171550
H124  H     H_    0.091851 0.241091 0.501891 0.114550
C156  C     C_3   0.055051 0.221160 0.600518 -0.337755
H125  H     H_    0.061891 0.222394 0.659403 0.245469
H126  H     H_    0.025640 0.247921 0.587694 0.207302
C157  C     C_3   0.038626 0.169236 0.580501 -0.977890
H127  H     H_    0.032854 0.166528 0.521633 0.268013
H128  H     H_    0.004079 0.160459 0.608567 0.265973
H129  H     H_    0.066534 0.141831 0.596924 0.266580
O32   O     O_3   0.783761 0.629042 0.398930 -0.659383
C158  C     C_3   0.741716 0.607308 0.429369 0.096186
H130  H     H_    0.710267 0.630314 0.412471 0.173673
H131  H     H_    0.741170 0.606749 0.489360 0.107008
C159  C     C_3   0.735387 0.554612 0.400626 -0.341787
H132  H     H_    0.750733 0.551909 0.345469 0.245696
H133  H     H_    0.755565 0.528480 0.435739 0.194857
C160  C     C_3   0.681954 0.539477 0.397526 -0.959154
H134  H     H_    0.665110 0.542149 0.451566 0.264120
H135  H     H_    0.679011 0.500857 0.378298 0.263649
H136  H     H_    0.661893 0.563653 0.359405 0.265292
O33   O     O_3   0.622675 0.222291 0.405011 -0.667273
C161  C     C_3   0.598633 0.262616 0.437472 0.089676
H137  H     H_    0.621077 0.296047 0.427791 0.170018
H138  H     H_    0.593687 0.259392 0.496996 0.116339
C162  C     C_3   0.549064 0.269513 0.401883 -0.349073
H139  H     H_    0.553359 0.269436 0.342476 0.243011
H140  H     H_    0.524837 0.238371 0.417188 0.206031
C163  C     C_3   0.525889 0.318091 0.424548 -0.975750
H141  H     H_    0.522610 0.319435 0.483867 0.271493
H142  H     H_    0.489215 0.321422 0.400128 0.265107
H143  H     H_    0.548482 0.349665 0.406341 0.266198
O34   O     O_3   0.289209 0.861839 0.606460 -0.660123
C164  C     C_3   0.246882 0.885727 0.580712 0.097953
H144  H     H_    0.215367 0.863901 0.600416 0.174555
H145  H     H_    0.243616 0.886508 0.520869 0.106809
C165  C     C_3   0.244206 0.938447 0.610598 -0.345553
H146  H     H_    0.263783 0.940530 0.662832 0.244629
H147  H     H_    0.262308 0.964183 0.572503 0.196343
C166  C     C_3   0.191758 0.955010 0.622571 -0.953135
H148  H     H_    0.170830 0.952948 0.571769 0.262626
H149  H     H_    0.191308 0.993634 0.642252 0.263634
H150  H     H_    0.174076 0.931258 0.663715 0.265132
O35   O     O_3   0.370504 0.781352 0.403961 -0.665803
C167  C     C_3   0.390975 0.738913 0.436325 0.088611
H151  H     H_    0.366080 0.707462 0.425726 0.170520
H152  H     H_    0.395601 0.741214 0.495970 0.116506
C168  C     C_3   0.440226 0.728347 0.401783 -0.346697
H153  H     H_    0.436865 0.730370 0.342277 0.243793
H154  H     H_    0.466873 0.756701 0.419421 0.207302
C169  C     C_3   0.458585 0.677211 0.422510 -0.974064
H155  H     H_    0.459609 0.673334 0.481857 0.268429
H156  H     H_    0.495757 0.671652 0.400732 0.264563
H157  H     H_    0.434212 0.648432 0.400006 0.266132
O36   O     O_3   0.707593 0.144378 0.606499 -0.660723
C170  C     C_3   0.750787 0.122437 0.580618 0.096707
H158  H     H_    0.781505 0.144854 0.601551 0.173069
H159  H     H_    0.754478 0.122871 0.520808 0.109329
C171  C     C_3   0.755005 0.069427 0.609071 -0.349975
H160  H     H_    0.738478 0.066944 0.663478 0.243756
H161  H     H_    0.734750 0.044161 0.572837 0.199687
C172  C     C_3   0.807876 0.052740 0.614084 -0.956248
H162  H     H_    0.825709 0.055070 0.560757 0.263523
H163  H     H_    0.809325 0.013980 0.633309 0.264765
H164  H     H_    0.827967 0.076203 0.653009 0.264340
O37   O     O_3   0.357078 0.213087 0.594155 -0.665041
C173  C     C_3   0.374799 0.256406 0.560661 0.093110
H165  H     H_    0.348764 0.286587 0.572905 0.172115
H166  H     H_    0.377567 0.254357 0.500782 0.113717
C174  C     C_3   0.424536 0.269415 0.592065 -0.350241
H167  H     H_    0.423796 0.264756 0.651430 0.245064
H168  H     H_    0.452418 0.243992 0.569771 0.204484
C175  C     C_3   0.438364 0.322628 0.574821 -0.974620
H169  H     H_    0.437372 0.329008 0.515927 0.268141
H170  H     H_    0.475539 0.330267 0.595135 0.263530
H171  H     H_    0.412709 0.348508 0.601217 0.266483
O38   O     O_3   0.711730 0.864601 0.392435 -0.660570
C176  C     C_3   0.754487 0.887943 0.417368 0.096933
H172  H     H_    0.785676 0.867038 0.394737 0.174170
H173  H     H_    0.759187 0.886904 0.476998 0.108671
C177  C     C_3   0.756182 0.941454 0.390348 -0.350266
H174  H     H_    0.737478 0.944299 0.337520 0.244021
H175  H     H_    0.736735 0.965597 0.429063 0.199143
C178  C     C_3   0.808308 0.959756 0.381278 -0.954491
H176  H     H_    0.828383 0.956987 0.432822 0.262940
H177  H     H_    0.807974 0.998870 0.363495 0.264240
H178  H     H_    0.827361 0.937579 0.339733 0.264628
O39   O     O_3   0.633703 0.783145 0.596924 -0.668229
C179  C     C_3   0.611313 0.741184 0.566332 0.093148
H179  H     H_    0.635129 0.709014 0.577673 0.172175
H180  H     H_    0.606528 0.742807 0.506643 0.113843
C180  C     C_3   0.561904 0.733018 0.601920 -0.351079
H181  H     H_    0.565268 0.737856 0.661057 0.243660
H182  H     H_    0.535633 0.760813 0.581316 0.203002
C181  C     C_3   0.542784 0.681271 0.586886 -0.972110
H183  H     H_    0.542198 0.674237 0.528159 0.268178
H184  H     H_    0.505369 0.677495 0.608512 0.263709
H185  H     H_    0.566404 0.653365 0.613244 0.266471
O40   O     O_3   0.280656 0.121513 0.397744 -0.659761
C182  C     C_3   0.240058 0.096520 0.427011 0.096108
H186  H     H_    0.207233 0.112767 0.401467 0.174490
H187  H     H_    0.235435 0.101812 0.486115 0.112142
C183  C     C_3   0.242661 0.041314 0.409212 -0.351820
H188  H     H_    0.260068 0.036076 0.355838 0.243661
H189  H     H_    0.265207 0.022216 0.450274 0.198043
C184  C     C_3   0.192216 0.017872 0.407110 -0.957092
H190  H     H_    0.173494 0.022798 0.459465 0.264335
H191  H     H_    0.195593 0.977821 0.395736 0.263259
H192  H     H_    0.170032 0.034988 0.363804 0.265028
H193  H     H_    0.220215 0.716189 0.619514 0.185180
H194  H     H_    0.767880 0.294882 0.388218 0.183799
H195  H     H_    0.773295 0.289586 0.620404 0.186772
H196  H     H_    0.225470 0.712493 0.387307 0.184946
H197  H     H_    0.780977 0.718001 0.380123 0.186191
H198  H     H_    0.210509 0.273414 0.610924 0.187117
H199  H     H_    0.205446 0.266838 0.378796 0.185082
H200  H     H_    0.778407 0.716290 0.612635 0.185948
H201  H     H_    0.704942 0.233359 0.620787 0.185620
H202  H     H_    0.282660 0.780141 0.388136 0.187084
H203  H     H_    0.288453 0.772643 0.620321 0.186097
H204  H     H_    0.710319 0.227544 0.388600 0.186801
H205  H     H_    0.273920 0.210653 0.379730 0.184904
H206  H     H_    0.721934 0.784513 0.611562 0.184932
H207  H     H_    0.713270 0.775072 0.379886 0.185686
H208  H     H_    0.268696 0.206473 0.611906 0.184770
O41   O     O_3   0.988719 0.410516 0.928392 -0.631285
C185  C     C_3   0.938806 0.405307 0.911831 0.102675
H209  H     H_    0.936063 0.381358 0.863682 0.150757
H210  H     H_    0.920733 0.440844 0.897212 0.122447
C186  C     C_3   0.911682 0.380321 0.973944 -0.314496
H211  H     H_    0.930512 0.345452 0.988702 0.244959
H212  H     H_    0.911545 0.405010 0.021531 0.225464
C187  C     C_3   0.859253 0.368799 0.953394 -0.985656
H213  H     H_    0.839698 0.403287 0.938959 0.266637
H214  H     H_    0.840479 0.351256 0.999633 0.271806
H215  H     H_    0.858279 0.342968 0.907146 0.268581
O42   O     O_3   0.994263 0.589507 0.071279 -0.638714
C188  C     C_3   0.944594 0.599205 0.084706 0.093994
H216  H     H_    0.942718 0.623903 0.132142 0.151655
H217  H     H_    0.923325 0.565476 0.098966 0.124081
C189  C     C_3   0.921307 0.625814 0.020595 -0.309953
H218  H     H_    0.944234 0.657832 0.004802 0.246453
H219  H     H_    0.918767 0.600213 0.974187 0.224793
C190  C     C_3   0.870384 0.644051 0.038885 -0.986057
H220  H     H_    0.846765 0.612540 0.054435 0.266787
H221  H     H_    0.854332 0.662589 0.991182 0.271407
H222  H     H_    0.871912 0.670960 0.083806 0.267876
O43   O     O_3   0.012435 0.588879 0.927715 -0.638404
C191  C     C_3   0.062528 0.595614 0.913817 0.095123
H223  H     H_    0.065614 0.620100 0.866151 0.152917
H224  H     H_    0.081769 0.560679 0.899657 0.123477
C192  C     C_3   0.087521 0.620824 0.977607 -0.310798
H225  H     H_    0.066138 0.653748 0.993981 0.247658
H226  H     H_    0.089276 0.594884 0.023827 0.223229
C193  C     C_3   0.139047 0.636941 0.958583 -0.984840
H227  H     H_    0.161147 0.604608 0.941984 0.266822
H228  H     H_    0.156334 0.654206 0.006233 0.271067
H229  H     H_    0.138290 0.664425 0.914253 0.268180
O44   O     O_3   0.006834 0.409925 0.071919 -0.633546
C194  C     C_3   0.056352 0.400581 0.087155 0.095501
H230  H     H_    0.057702 0.375742 0.134600 0.151109
H231  H     H_    0.077100 0.434432 0.102240 0.123616
C195  C     C_3   0.080907 0.374410 0.023843 -0.311871
H232  H     H_    0.058876 0.341812 0.007950 0.247262
H233  H     H_    0.083273 0.399955 0.977229 0.223629
C196  C     C_3   0.132072 0.357442 0.043408 -0.984593
H234  H     H_    0.154838 0.389563 0.058940 0.266635
H235  H     H_    0.148967 0.339119 0.996284 0.271335
H236  H     H_    0.130769 0.330664 0.088623 0.268651
O45   O     O_3   0.494196 0.910414 0.928115 -0.642324
C197  C     C_3   0.444588 0.899713 0.915682 0.094753
H237  H     H_    0.442481 0.877418 0.865813 0.151538
H238  H     H_    0.421806 0.933205 0.906039 0.120892
C198  C     C_3   0.423708 0.869164 0.977795 -0.308088
H239  H     H_    0.448341 0.837638 0.989510 0.243632
H240  H     H_    0.420992 0.892457 0.026661 0.229011
C199  C     C_3   0.373305 0.849317 0.959769 -0.986703
H241  H     H_    0.347938 0.880241 0.948353 0.266980
H242  H     H_    0.359128 0.827871 0.006127 0.271429
H243  H     H_    0.375131 0.824603 0.912294 0.268277
O46   O     O_3   0.485557 0.088763 0.072133 -0.639067
C200  C     C_3   0.435267 0.093990 0.085841 0.099032
H244  H     H_    0.431395 0.115243 0.136443 0.150686
H245  H     H_    0.416028 0.058188 0.094801 0.120597
C201  C     C_3   0.410857 0.123007 0.025029 -0.310030
H246  H     H_    0.431688 0.157444 0.014622 0.242005
H247  H     H_    0.410717 0.100501 0.975202 0.230138
C202  C     C_3   0.358596 0.136396 0.044037 -0.985857
H248  H     H_    0.336885 0.102447 0.053554 0.266888
H249  H     H_    0.342030 0.157325 0.998911 0.271528
H250  H     H_    0.357726 0.159828 0.092937 0.268325
O47   O     O_3   0.503609 0.089973 0.928202 -0.636757
C203  C     C_3   0.553084 0.101736 0.916757 0.101766
H251  H     H_    0.555387 0.122665 0.865556 0.150612
H252  H     H_    0.577038 0.068747 0.910118 0.116609
C204  C     C_3   0.572010 0.134541 0.977600 -0.307534
H253  H     H_    0.546145 0.165424 0.986732 0.243033
H254  H     H_    0.574845 0.112575 0.027876 0.231724
C205  C     C_3   0.621914 0.155748 0.959831 -0.989186
H255  H     H_    0.648486 0.125502 0.950957 0.266864
H256  H     H_    0.634702 0.178851 0.005296 0.271937
H257  H     H_    0.619859 0.179173 0.910870 0.268355
O48   O     O_3   0.512226 0.911049 0.072121 -0.637974
C206  C     C_3   0.562628 0.904149 0.083084 0.108998
H258  H     H_    0.567336 0.886639 0.136598 0.149367
H259  H     H_    0.584102 0.939166 0.084446 0.114546
C207  C     C_3   0.583128 0.869422 0.025802 -0.311353
H260  H     H_    0.560307 0.835616 0.022941 0.236817
H261  H     H_    0.582369 0.887967 0.972537 0.239585
C208  C     C_3   0.635347 0.854697 0.042879 -0.988869
H262  H     H_    0.658960 0.887925 0.044838 0.266661
H263  H     H_    0.649081 0.829585 0.000391 0.271943
H264  H     H_    0.637037 0.835139 0.095338 0.268884

loop_
_geom_bond_atom_site_label_1
_geom_bond_atom_site_label_2
_ccdc_geom_bond_type
C206  C207  S    
C157  H128  S    
C190  H220  S    
C23   H207  S    
C77   O33   S    
O1    Zn1   S    
O33   C161  S    
C160  H134  S    
C122  H23   S    
C77   C89   A    
O28   C146  S    
O8    Zn1   S    
C127  H35   S    
C44   O24   S    
C120  H18   S    
C177  H175  S    
C6    O11   A    
C129  C130  S    
C38   N2    A    
C157  H129  S    
C137  H82   S    
O27   C143  S    
C139  H87   S    
C178  H177  S    
C180  C181  S    
C125  H29   S    
C196  H235  S    
C172  H164  S    
C81   O37   S    
C9    C19   A    
C11   C17   A    
O14   Zn3   S    
C10   C20   A    
C143  H95   S    
C56   C72   A    
C132  C133  S    
C36   C97   A    
C60   H72   S    
C84   C91   A    
C10   H194  S    
C153  C154  S    
C69   O25   S    
O9    Zn3   S    
C137  C138  S    
C53   C69   A    
C130  H40   S    
C22   H206  S    
N1    Zn1   S    
C118  H14   S    
C17   C30   A    
C30   C89   S    
C141  C142  S    
C41   C49   A    
C190  H222  S    
C9    C26   A    
C202  H249  S    
C61   H73   S    
C159  H132  S    
O7    Zn2   S    
O43   C191  S    
C119  C120  S    
C35   C104  S    
C114  C115  S    
C115  H5    S    
C60   C76   A    
C155  H123  S    
C125  C126  S    
C23   C31   A    
C188  C189  S    
C134  H50   S    
C24   C32   A    
C66   C82   A    
C15   C27   A    
C166  H148  S    
C54   C70   A    
C165  H146  S    
C4    O6    A    
C45   H57   S    
C123  C124  S    
C38   O18   S    
C7    O16   A    
C60   C107  A    
C113  H2    S    
C64   H76   S    
C42   N4    A    
C192  H226  S    
O37   C173  S    
C98   O46   S    
C37   C45   A    
C151  H113  S    
C39   C47   A    
C66   H78   S    
C160  H136  S    
C40   C48   A    
C147  C148  S    
C52   H64   S    
O11   Zn3   S    
C129  H38   S    
C113  C114  S    
C79   O35   S    
O48   C206  S    
C176  H172  S    
C195  C196  S    
C187  H213  S    
O12   Zn4   S    
C147  H105  S    
O44   C194  S    
C143  C144  S    
C13   H197  S    
C5    O12   A    
O34   C164  S    
C36   C99   A    
C197  H237  S    
C67   C112  A    
C44   N4    A    
C98   C99   A    
C118  H12   S    
C55   C71   A    
C3    O5    A    
C174  H168  S    
C156  H126  S    
C67   C83   A    
C184  H190  S    
C6    C111  S    
C205  H256  S    
C33   C94   A    
C196  H236  S    
C72   C85   A    
C131  H44   S    
C76   O32   S    
C68   H80   S    
C190  H221  S    
O25   C137  S    
O45   C197  S    
C155  C156  S    
C100  O48   S    
C116  H9    S    
C138  H83   S    
C48   H60   S    
C142  H94   S    
C126  H32   S    
O20   C122  S    
C11   C25   A    
C178  H176  S    
C183  C184  S    
C165  C166  S    
C201  H246  S    
C13   C23   A    
C197  C198  S    
C127  H34   S    
C14   C24   A    
C171  H160  S    
C67   H79   S    
C182  H186  S    
C61   C77   A    
C141  H90   S    
C152  H117  S    
C139  H86   S    
C130  H42   S    
C131  H43   S    
C182  H187  S    
O2    Zn2   S    
C151  H115  S    
C128  C129  S    
C204  C205  S    
C14   H198  S    
C208  H262  S    
C146  C147  S    
C121  H20   S    
C150  H112  S    
C186  H211  S    
C41   N3    A    
C115  H7    S    
C167  H151  S    
C153  H119  S    
C148  H106  S    
C183  H189  S    
C162  H140  S    
C176  C177  S    
C51   H63   S    
C187  H215  S    
C144  C145  S    
C179  H179  S    
O15   Zn4   S    
C134  C135  S    
C158  H131  S    
C193  H227  S    
C191  H223  S    
C145  H101  S    
C12   C26   A    
C200  H245  S    
C171  C172  S    
C119  H16   S    
C186  C187  S    
C11   H195  S    
O29   C149  S    
C24   H208  S    
C71   C86   A    
C9    H193  S    
C169  H157  S    
C170  C171  S    
C28   C87   S    
C196  H234  S    
N2    Zn2   S    
C20   H204  S    
C18   C29   A    
C1    O1    A    
C21   H205  S    
C198  H240  S    
C76   C87   A    
C181  H183  S    
O32   C158  S    
C42   C50   A    
C94   O42   S    
C10   C25   A    
C141  H91   S    
C166  H149  S    
C128  H36   S    
C184  H192  S    
C161  H138  S    
C154  H121  S    
C14   C27   A    
C168  C169  S    
C54   H66   S    
C204  H253  S    
C33   C96   A    
O35   C167  S    
C97   C100  A    
C69   C85   A    
C58   C74   A    
C135  C136  S    
C206  H259  S    
C62   C78   A    
C97   O45   S    
C117  H11   S    
O26   C140  S    
C193  H229  S    
C140  C141  S    
C142  H92   S    
C5    C112  S    
C164  C165  S    
C161  C162  S    
C133  H48   S    
C7    C110  S    
C74   C88   A    
C205  H255  S    
C64   C109  A    
N3    Zn3   S    
C26   C85   S    
C50   H62   S    
O4    Zn2   S    
C180  H182  S    
C195  H232  S    
C75   O31   S    
C172  H163  S    
C207  H260  S    
O10   Zn4   S    
C53   C105  A    
C47   H59   S    
C117  H10   S    
C191  H224  S    
C208  H264  S    
C5    O9    A    
C146  H102  S    
C132  H46   S    
C145  H99   S    
C56   H68   S    
C185  H209  S    
C167  C168  S    
C35   C100  A    
C203  H251  S    
C50   C104  A    
C173  H165  S    
C118  H13   S    
C144  H97   S    
C179  C180  S    
O23   C131  S    
C40   O20   S    
C2    O2    A    
C135  H52   S    
O21   C125  S    
C78   C90   A    
C164  H144  S    
C159  H133  S    
C36   C103  S    
C83   O39   S    
C80   O36   S    
C136  H56   S    
C114  H4    S    
C149  H109  S    
C37   N1    A    
C51   C103  A    
C170  H158  S    
C19   H203  S    
C148  H108  S    
C82   C92   A    
C199  H241  S    
C155  H124  S    
C17   H201  S    
C80   C89   A    
C188  H217  S    
C136  H54   S    
C169  H155  S    
C73   C87   A    
C120  H17   S    
C159  C160  S    
C165  H147  S    
C168  H153  S    
C177  C178  S    
C13   C28   A    
C74   O30   S    
O5    Zn2   S    
C35   C98   A    
C15   H199  S    
C70   O26   S    
C157  H127  S    
O31   C155  S    
C64   C80   A    
C41   O21   S    
C96   O44   S    
C29   C90   S    
C151  H114  S    
O36   C170  S    
C160  H135  S    
C3    C106  S    
C82   O38   S    
C122  C123  S    
C34   C101  S    
C54   C106  A    
C55   C106  A    
C132  H45   S    
C68   C84   A    
C206  H258  S    
C120  C121  S    
C34   C95   A    
C6    O10   A    
C149  C150  S    
C115  H6    S    
C8    O15   A    
O42   C188  S    
C20   C30   A    
C173  C174  S    
C137  H81   S    
C33   C102  S    
C187  H214  S    
C138  C139  S    
C176  H173  S    
C65   C81   A    
O19   C119  S    
C163  H143  S    
C202  H248  S    
C48   C102  A    
C12   H196  S    
C71   O27   S    
C177  H174  S    
C197  H238  S    
C45   C101  A    
C203  C204  S    
C129  H39   S    
C8    O14   A    
O40   C182  S    
C133  H49   S    
C53   H65   S    
C3    O8    A    
C174  H167  S    
O17   C113  S    
C202  H250  S    
C65   H77   S    
C52   C104  A    
C16   C22   A    
C39   O19   S    
C55   H67   S    
O38   C176  S    
C49   C103  A    
C201  C202  S    
C57   H69   S    
N4    Zn4   S    
C199  H243  S    
C135  H53   S    
C134  H51   S    
C158  H130  S    
C116  H8    S    
O22   C128  S    
C194  C195  S    
C142  H93   S    
C43   C51   A    
C126  H31   S    
C140  H88   S    
C63   C110  A    
C201  H247  S    
C131  C132  S    
C58   C108  A    
C49   H61   S    
C94   C95   A    
C123  H25   S    
C56   C105  A    
C7    O13   A    
C113  H1    S    
C156  H125  S    
C81   C91   A    
C192  C193  S    
C99   O47   S    
C124  H26   S    
C130  H41   S    
C84   O40   S    
C78   O34   S    
C114  H3    S    
C1    O4    A    
C93   O41   S    
C16   C28   A    
C178  H178  S    
C122  H22   S    
C204  H254  S    
C47   C101  A    
C146  H103  S    
C150  H111  S    
O39   C179  S    
C34   C93   A    
C61   C109  A    
C167  H152  S    
C189  H218  S    
O47   C203  S    
C63   C79   A    
C162  H139  S    
C83   C92   A    
C46   C102  A    
O3    Zn1   S    
C152  H116  S    
C144  H98   S    
C179  H180  S    
C189  C190  S    
C147  H104  S    
C124  H28   S    
C193  H228  S    
C32   C91   S    
C194  H231  S    
C57   C73   A    
C2    C107  S    
C73   O29   S    
C200  H244  S    
C186  H212  S    
C65   C111  A    
C43   N3    A    
C123  H24   S    
C79   C90   A    
C175  H171  S    
C199  H242  S    
C170  H159  S    
C180  H181  S    
C117  C118  S    
C198  H239  S    
C181  H184  S    
C174  C175  S    
C156  C157  S    
C164  H145  S    
C37   O17   S    
C168  H154  S    
C188  H216  S    
C39   N1    A    
C62   H74   S    
C125  H30   S    
C175  H170  S    
C21   C32   A    
C40   N2    A    
C38   C46   A    
C22   C31   A    
O18   C116  S    
C18   H202  S    
C181  H185  S    
C116  C117  S    
C194  H230  S    
C140  H89   S    
C191  C192  S    
O24   C134  S    
C175  H169  S    
C126  C127  S    
C154  H120  S    
C128  H37   S    
C4    O7    A    
C127  H33   S    
C68   C111  A    
C59   H71   S    
O6    Zn1   S    
O13   Zn4   S    
C138  H84   S    
C192  H225  S    
C62   C110  A    
C152  C153  S    
C63   H75   S    
C139  H85   S    
C46   H58   S    
C182  C183  S    
C163  H141  S    
C195  H233  S    
C172  H162  S    
C207  H261  S    
C143  H96   S    
O30   C152  S    
C57   C107  A    
C163  H142  S    
C31   C92   S    
C93   C96   A    
C208  H263  S    
C43   O23   S    
C121  H19   S    
C150  C151  S    
C145  H100  S    
C205  H257  S    
C72   O28   S    
C185  H210  S    
C70   C86   A    
C59   C75   A    
C153  H118  S    
C203  H252  S    
C183  H188  S    
C162  C163  S    
C173  H166  S    
C207  C208  S    
C158  C159  S    
C2    O3    A    
C4    C105  S    
C59   C108  A    
C189  H219  S    
C200  C201  S    
C119  H15   S    
C16   H200  S    
C185  C186  S    
C136  H55   S    
C8    C109  S    
C149  H110  S    
C44   C52   A    
O41   C185  S    
C25   C86   S    
O16   Zn3   S    
O46   C200  S    
C148  H107  S    
C171  H161  S    
C124  H27   S    
C133  H47   S    
C95   O43   S    
C27   C88   S    
C198  C199  S    
C169  H156  S    
C1    C108  S    
C42   O22   S    
C75   C88   A    
C15   C21   A    
C166  H150  S    
C121  H21   S    
C184  H191  S    
C161  H137  S    
C154  H122  S    
C12   C18   A    
C66   C112  A    
C58   H70   S    
C19   C29   A    
