data_mof_unit_7119.cif
_audit_creation_date              2012-12-10T20:41:45-0500
_audit_creation_method            fapswitch 2.2
_symmetry_space_group_name_H-M    P1
_symmetry_Int_Tables_number       1
_space_group_crystal_system       triclinic
_cell_length_a                    14.668748
_cell_length_b                    15.795414
_cell_length_c                    9.885764
_cell_angle_alpha                 89.182065
_cell_angle_beta                  87.479354
_cell_angle_gamma                 89.55237
_cell_volume                      2288.01254443

loop_
_atom_site_label
_atom_site_type_symbol
_atom_type_description
_atom_site_fract_x
_atom_site_fract_y
_atom_site_fract_z
_atom_type_partial_charge
C1    C     C_R   0.382481 0.877827 0.501864 0.984403
C2    C     C_R   0.926884 0.469782 0.076341 0.114427
C3    C     C_R   0.575361 0.022193 0.066279 -0.014941
C4    C     C_R   0.075362 0.522188 0.066280 -0.014900
C5    C     C_R   0.575419 0.022445 0.922574 -0.044014
C6    C     C_R   0.075420 0.522440 0.922574 -0.043920
C7    C     C_R   0.428355 0.966982 0.933908 0.088224
C8    C     C_R   0.928351 0.466989 0.933910 0.088238
C9    C     C_3   0.332579 0.995839 0.928592 -0.449248
C10   C     C_3   0.832577 0.495855 0.928591 -0.449322
C11   C     C_3   0.330844 0.003193 0.080778 0.625282
C12   C     C_R   0.382024 0.122239 0.501287 0.984401
C13   C     C_3   0.830849 0.503233 0.080774 0.625244
C14   C     C_R   0.621763 0.118520 0.497002 0.896637
C15   C     C_R   0.626269 0.886365 0.498550 0.912142
C16   C     C_R   0.121767 0.618517 0.497003 0.896470
C17   C     C_R   0.126262 0.386356 0.498549 0.911868
C18   C     C_R   0.289219 0.230038 0.623794 0.026986
C19   C     C_R   0.289486 0.767713 0.620882 0.021404
C20   C     C_R   0.789187 0.730016 0.623794 0.026993
C21   C     C_R   0.789497 0.267704 0.620878 0.021495
C22   C     C_R   0.328995 0.199143 0.503634 -0.055959
C23   C     C_R   0.882481 0.377827 0.501864 0.984425
C24   C     C_R   0.327492 0.802960 0.502148 -0.051324
C25   C     C_R   0.828991 0.699142 0.503638 -0.056040
C26   C     C_R   0.827488 0.302964 0.502144 -0.051366
C27   C     C_R   0.324729 0.250000 0.386359 -0.133147
C28   C     C_R   0.311018 0.764769 0.378542 -0.145835
C29   C     C_R   0.824773 0.750037 0.386395 -0.133050
C30   C     C_R   0.810991 0.264791 0.378531 -0.145853
C31   C     C_R   0.763828 0.818658 0.382896 -0.044591
C32   C     C_R   0.741529 0.206033 0.370451 -0.007748
C33   C     C_R   0.263759 0.318595 0.382847 -0.044303
C34   C     C_R   0.882021 0.622238 0.501287 0.984382
C35   C     C_R   0.241561 0.706004 0.370461 -0.007685
C36   C     C_R   0.706619 0.833974 0.499327 -0.117397
C37   C     C_R   0.695927 0.177457 0.492489 -0.110969
C38   C     C_R   0.206607 0.333961 0.499316 -0.117417
C39   C     C_R   0.195937 0.677448 0.492494 -0.111001
C40   C     C_R   0.729612 0.796361 0.621611 -0.005550
C41   C     C_R   0.727849 0.203272 0.616488 -0.003606
C42   C     C_R   0.229641 0.296384 0.621611 -0.005601
C43   C     C_R   0.227842 0.703278 0.616494 -0.003641
C44   C     C_3   0.677825 0.768314 0.748672 -0.290369
C45   C     C_3   0.242524 0.191894 0.747523 0.147608
C46   C     C_3   0.678353 0.230137 0.745654 -0.286106
C47   C     C_3   0.177875 0.268344 0.748698 -0.290347
C48   C     C_3   0.178332 0.730154 0.745645 -0.286116
C49   C     C_2   0.765554 0.874112 0.261106 0.970424
C50   C     C_2   0.714259 0.186547 0.232160 0.954466
C51   C     C_2   0.265349 0.373932 0.260937 0.970288
C52   C     C_2   0.214315 0.686491 0.232169 0.954555
C53   C     C_2   0.577211 0.749752 0.735958 1.101992
C54   C     C_2   0.576703 0.248258 0.740168 1.097597
C55   C     C_2   0.077257 0.249780 0.736031 1.102056
C56   C     C_3   0.241499 0.806389 0.741508 0.143592
C57   C     C_2   0.076683 0.748269 0.740125 1.097637
C58   C     C_3   0.742475 0.691864 0.747503 0.147577
C59   C     C_3   0.741519 0.306371 0.741520 0.143550
C60   C     C_R   0.426890 0.969769 0.076340 0.114329
Cl1   Cl    Cl    0.316791 0.110688 0.129476 -0.529952
Cl2   Cl    Cl    0.251013 0.934052 0.165995 -0.504242
Cl3   Cl    Cl    0.816842 0.610741 0.129435 -0.530065
Cl4   Cl    Cl    0.750999 0.434127 0.166029 -0.504234
Cl5   Cl    Cl    0.189615 0.094535 0.711281 -0.440545
Cl6   Cl    Cl    0.186694 0.902671 0.693809 -0.437570
Cl7   Cl    Cl    0.689576 0.594509 0.711230 -0.440538
Cl8   Cl    Cl    0.686706 0.402651 0.693844 -0.437640
H1    H     H_    0.368247 0.236414 0.298010 0.232034
H2    H     H_    0.285112 0.809309 0.830239 0.114131
H3    H     H_    0.786590 0.690465 0.835836 0.145918
H4    H     H_    0.785140 0.309290 0.830244 0.114142
H5    H     H_    0.635454 0.041509 0.115738 0.147125
H6    H     H_    0.135455 0.541502 0.115742 0.147074
H7    H     H_    0.635995 0.041726 0.864379 0.130460
H8    H     H_    0.135998 0.541718 0.864380 0.130406
H9    H     H_    0.328651 0.056471 0.872749 0.238459
H10   H     H_    0.287683 0.945946 0.894448 0.248264
H11   H     H_    0.828650 0.556475 0.872719 0.238457
H12   H     H_    0.344988 0.787242 0.285360 0.206598
H13   H     H_    0.787677 0.445955 0.894475 0.248278
H14   H     H_    0.773123 0.992937 0.186698 0.355072
H15   H     H_    0.754913 0.149707 0.044376 0.321903
H16   H     H_    0.273124 0.492677 0.186210 0.354973
H17   H     H_    0.254997 0.649596 0.044424 0.321855
H18   H     H_    0.450758 0.755448 0.823968 0.333384
H19   H     H_    0.453166 0.239988 0.837045 0.343566
H20   H     H_    0.950816 0.255492 0.824082 0.333392
H21   H     H_    0.953128 0.739958 0.836935 0.343598
H22   H     H_    0.868327 0.736467 0.298075 0.232168
H23   H     H_    0.844947 0.287277 0.285345 0.206648
H24   H     H_    0.690078 0.811282 0.834130 0.166660
H25   H     H_    0.693559 0.186063 0.830358 0.113317
H26   H     H_    0.190143 0.311319 0.834143 0.166784
H27   H     H_    0.193530 0.686089 0.830366 0.113372
H28   H     H_    0.286652 0.190497 0.835840 0.145930
N1    N     N_R   0.499140 0.000000 0.142800 -0.107450
N2    N     N_R   0.999140 0.500000 0.142800 -0.107441
N3    N     N_R   0.499160 0.000000 0.857150 -0.092618
N4    N     N_R   0.999160 0.500000 0.857150 -0.092593
O1    O     O_R   0.408400 0.908380 0.614690 -0.606634
O2    O     O_R   0.591610 0.908390 0.614650 -0.642796
O3    O     O_R   0.091610 0.591610 0.614650 -0.651641
O4    O     O_R   0.091610 0.408390 0.614650 -0.642756
O5    O     O_R   0.591590 0.091600 0.385310 -0.598663
O6    O     O_R   0.591590 0.908400 0.385310 -0.607908
O7    O     O_R   0.091590 0.591600 0.385310 -0.598730
O8    O     O_R   0.091590 0.408400 0.385310 -0.608032
O9    O     O_2   0.776202 0.843606 0.148419 -0.587291
O10   O     O_R   0.761003 0.961846 0.275841 -0.800860
O11   O     O_2   0.636825 0.202671 0.198020 -0.556438
O12   O     O_R   0.408400 0.091620 0.614690 -0.618640
O13   O     O_R   0.780260 0.157944 0.136895 -0.800761
O14   O     O_2   0.275514 0.343278 0.148273 -0.587356
O15   O     O_R   0.261161 0.461702 0.275497 -0.800564
O16   O     O_2   0.136899 0.702641 0.197978 -0.556466
O17   O     O_R   0.280322 0.657831 0.136959 -0.800581
O18   O     O_2   0.549160 0.719323 0.632583 -0.581109
O19   O     O_R   0.516125 0.769617 0.843442 -0.783243
O20   O     O_2   0.544319 0.279938 0.639077 -0.581752
O21   O     O_R   0.519647 0.226324 0.851878 -0.763928
O22   O     O_2   0.049187 0.219338 0.632678 -0.581096
O23   O     O_R   0.908400 0.408380 0.614690 -0.606627
O24   O     O_R   0.016189 0.269661 0.843529 -0.783168
O25   O     O_2   0.044315 0.779969 0.639038 -0.581729
O26   O     O_R   0.019607 0.726299 0.851792 -0.763862
O27   O     O_R   0.908400 0.591620 0.614690 -0.618645
O28   O     O_R   0.408370 0.908370 0.385350 -0.609510
O29   O     O_R   0.408370 0.091630 0.385350 -0.566584
O30   O     O_R   0.908370 0.408370 0.385350 -0.609511
O31   O     O_R   0.908370 0.591630 0.385350 -0.566555
O32   O     O_R   0.591610 0.091610 0.614650 -0.651671
Zn1   Zn    Zn3+2 0.500010 0.000000 0.653130 0.999730
Zn2   Zn    Zn3+2 0.000010 0.500000 0.653130 0.999730
Zn3   Zn    Zn3+2 0.499980 0.000000 0.346870 1.064612
Zn4   Zn    Zn3+2 0.999980 0.500000 0.346870 1.064625

loop_
_geom_bond_atom_site_label_1
_geom_bond_atom_site_label_2
_ccdc_geom_bond_type
C19   C56   S    
C21   C26   A    
C48   H27   S    
C54   O20   D    
C46   C59   S    
H15   O13   S    
O27   Zn2   S    
O12   Zn1   S    
H20   O24   S    
C11   Cl2   S    
C48   C57   S    
C14   O32   A    
C27   C33   A    
C13   Cl4   S    
O4    Zn2   S    
H14   O10   S    
C15   O6    A    
C47   C55   S    
C17   O4    A    
C21   C59   S    
C4    N2    A    
C18   C42   A    
C57   O25   D    
C20   C40   A    
C58   H3    S    
C20   C25   A    
C12   C22   S    
N3    Zn1   S    
C48   C56   S    
C23   C26   S    
C2    C13   S    
N2    Zn4   S    
C16   O7    A    
O29   Zn3   S    
C44   C53   S    
C14   O5    A    
C5    N3    A    
C28   C35   A    
C44   C58   S    
C34   O27   A    
C41   C46   S    
C1    O28   A    
H18   O19   S    
C43   C48   S    
C4    H6    S    
C27   H1    S    
C59   H4    S    
O5    Zn3   S    
C52   O17   S    
C52   O16   D    
C55   O22   D    
C31   C49   S    
C3    H5    S    
C29   H22   S    
N4    Zn2   S    
C19   C43   A    
H21   O26   S    
C45   C47   S    
C25   C29   A    
O30   Zn4   S    
C51   O14   D    
C12   O29   A    
O23   Zn2   S    
C36   C40   A    
C4    C6    A    
O31   Zn4   S    
O28   Zn3   S    
C57   O26   S    
H19   O21   S    
C53   O18   D    
O32   Zn1   S    
C23   O23   A    
C11   Cl1   S    
C51   O15   S    
C23   O30   A    
C6    N4    A    
C5    H7    S    
C35   C39   A    
O7    Zn4   S    
C59   Cl8   S    
C3    N1    A    
C16   O3    A    
C13   Cl3   S    
C46   C54   S    
C9    H9    S    
C32   C37   A    
H17   O17   S    
C9    C11   S    
C32   C50   S    
C7    N3    A    
C21   C41   A    
O6    Zn3   S    
C54   O21   S    
C34   O31   A    
C60   N1    A    
H16   O15   S    
C56   H2    S    
C22   C27   A    
C45   Cl5   S    
C17   O8    A    
N1    Zn3   S    
C20   C58   S    
C11   C60   S    
C18   C45   S    
C1    O1    A    
C15   C36   S    
C12   O12   A    
C49   O9    D    
C7    C9    S    
C55   O24   S    
C18   C22   A    
C6    H8    S    
O3    Zn2   S    
C2    C8    A    
C7    C60   A    
C24   C28   A    
C30   H23   S    
C3    C5    A    
C10   C13   S    
C44   H24   S    
C39   C43   A    
C10   H11   S    
C53   O19   S    
O8    Zn4   S    
O1    Zn1   S    
C33   C51   S    
C25   C34   S    
C10   H13   S    
C33   C38   A    
C50   O13   S    
C19   C24   A    
C8    N4    A    
O2    Zn1   S    
C29   C31   A    
C14   C37   S    
C30   C32   A    
C46   H25   S    
C56   Cl6   S    
C50   O11   D    
C47   H26   S    
C9    H10   S    
C15   O2    A    
C37   C41   A    
C28   H12   S    
C16   C39   S    
C38   C42   A    
C58   Cl7   S    
C40   C44   S    
C42   C47   S    
C17   C38   S    
C2    N2    A    
C1    C24   S    
C8    C10   S    
C35   C52   S    
C31   C36   A    
C45   H28   S    
C49   O10   S    
C26   C30   A    
