data_mof_unit_5744.cif
_audit_creation_date              2012-12-11T15:27:04-0500
_audit_creation_method            fapswitch 2.2
_symmetry_space_group_name_H-M    P1
_symmetry_Int_Tables_number       1
_space_group_crystal_system       triclinic
_cell_length_a                    13.951189
_cell_length_b                    13.951234
_cell_length_c                    27.42579
_cell_angle_alpha                 90.00005
_cell_angle_beta                  89.99984
_cell_angle_gamma                 120.0
_cell_volume                      4622.89067709

loop_
_atom_site_label
_atom_site_type_symbol
_atom_type_description
_atom_site_fract_x
_atom_site_fract_y
_atom_site_fract_z
_atom_type_partial_charge
C1    C     C_R   0.234407 0.787150 0.568721 0.539451
C2    C     C_R   0.212852 0.447263 0.568722 0.539455
C3    C     C_R   0.552742 0.765591 0.568721 0.539451
C4    C     C_3   0.694656 0.749830 0.786616 -0.200309
C5    C     C_3   0.249926 0.944952 0.786585 -0.200312
C6    C     C_3   0.055007 0.304873 0.786581 -0.200305
C7    C     C_3   0.672240 0.735430 0.730681 0.011114
C8    C     C_3   0.264331 0.936931 0.730652 0.011113
C9    C     C_3   0.063029 0.327313 0.730649 0.011111
C10   C     C_1   0.709454 0.862885 0.858434 -0.076957
C11   C     C_1   0.137102 0.846558 0.858434 -0.076958
C12   C     C_1   0.153453 0.290569 0.858438 -0.076957
C13   C     C_1   0.628705 0.814754 0.658241 -0.028734
C14   C     C_1   0.185225 0.813933 0.658240 -0.028733
C15   C     C_1   0.186079 0.371334 0.658247 -0.028721
C16   C     C_1   0.600853 0.796723 0.616182 -0.002525
C17   C     C_1   0.203268 0.804123 0.616182 -0.002536
C18   C     C_1   0.195885 0.399171 0.616186 -0.002520
C19   C     C_R   0.106890 0.219962 0.948879 0.549856
C20   C     C_R   0.780040 0.886928 0.948878 0.549855
C21   C     C_R   0.113072 0.893111 0.948878 0.549853
C22   C     C_R   0.614195 0.807134 0.385557 0.025676
C23   C     C_R   0.192864 0.807062 0.385557 0.025675
C24   C     C_R   0.192945 0.385812 0.385555 0.025676
C25   C     C_R   0.608387 0.891791 0.360387 -0.125457
C26   C     C_R   0.108206 0.716598 0.360388 -0.125458
C27   C     C_R   0.283414 0.391632 0.360384 -0.125456
C28   C     C_R   0.636941 0.910511 0.311508 -0.123165
C29   C     C_R   0.089484 0.726434 0.311509 -0.123165
C30   C     C_R   0.273583 0.363082 0.311505 -0.123167
C31   C     C_R   0.673879 0.846479 0.287400 0.036387
C32   C     C_R   0.153517 0.827403 0.287401 0.036386
C33   C     C_R   0.172612 0.326138 0.287397 0.036387
C34   C     C_R   0.233240 0.787522 0.431554 0.543626
C35   C     C_R   0.212479 0.445719 0.431553 0.543627
C36   C     C_R   0.554282 0.766760 0.431554 0.543623
C37   C     C_R   0.690662 0.769880 0.313820 -0.120155
C38   C     C_R   0.230118 0.920784 0.313821 -0.120154
C39   C     C_R   0.079227 0.309346 0.313818 -0.120153
C40   C     C_R   0.660324 0.749780 0.362634 -0.126617
C41   C     C_R   0.250217 0.910544 0.362635 -0.126616
C42   C     C_R   0.089462 0.339678 0.362633 -0.126617
C43   C     C_R   0.655295 0.759281 0.206297 -0.120222
C44   C     C_R   0.240717 0.896017 0.206298 -0.120220
C45   C     C_R   0.103987 0.344710 0.206295 -0.120223
C46   C     C_R   0.676417 0.767877 0.156537 -0.132581
C47   C     C_R   0.232122 0.908542 0.156538 -0.132579
C48   C     C_R   0.091455 0.323582 0.156536 -0.132581
C49   C     C_R   0.754719 0.966965 0.161599 -0.126313
C50   C     C_R   0.033033 0.787758 0.161599 -0.126313
C51   C     C_R   0.212259 0.245299 0.161596 -0.126314
C52   C     C_R   0.735535 0.958610 0.211452 -0.121716
C53   C     C_R   0.041387 0.776929 0.211453 -0.121716
C54   C     C_R   0.223094 0.264490 0.211449 -0.121715
C55   C     C_R   0.688632 0.855056 0.234364 0.035888
C56   C     C_R   0.144941 0.833580 0.234365 0.035888
C57   C     C_R   0.166435 0.311385 0.234362 0.035889
C58   C     C_R   0.729538 0.872138 0.134305 0.022590
C59   C     C_R   0.127861 0.857401 0.134305 0.022590
C60   C     C_R   0.142602 0.270468 0.134303 0.022591
C61   C     C_R   0.106549 0.221457 0.086187 0.546357
C62   C     C_R   0.778543 0.885093 0.086187 0.546355
C63   C     C_R   0.114907 0.893450 0.086187 0.546354
C64   C     C_3   0.549484 0.818923 0.738264 -0.246940
C65   C     C_3   0.181407 0.730758 0.738278 -0.246938
C66   C     C_3   0.269174 0.450742 0.738291 -0.246940
C67   C     C_3   0.752033 0.943760 0.722668 -0.214024
C68   C     C_3   0.056074 0.807888 0.722683 -0.214030
C69   C     C_3   0.192252 0.248311 0.722691 -0.214001
C70   C     C_3   0.774990 0.955509 0.778330 -0.223651
C71   C     C_3   0.044319 0.819095 0.778345 -0.223652
C72   C     C_3   0.181055 0.225345 0.778353 -0.223658
C73   C     C_1   0.735751 0.873055 0.900722 -0.026195
C74   C     C_1   0.126941 0.862692 0.900722 -0.026196
C75   C     C_1   0.137315 0.264262 0.900725 -0.026198
C76   C     C_3   0.651559 0.828424 0.710893 0.104252
C77   C     C_3   0.171547 0.823111 0.710893 0.104245
C78   C     C_3   0.176902 0.348482 0.710899 0.104234
C79   C     C_3   0.570852 0.832400 0.794057 -0.226789
C80   C     C_3   0.167941 0.738657 0.794071 -0.226787
C81   C     C_3   0.261270 0.429375 0.794083 -0.226789
C82   C     C_3   0.687394 0.850579 0.805753 0.061986
C83   C     C_3   0.149400 0.836798 0.805752 0.061978
C84   C     C_3   0.163214 0.312636 0.805758 0.061975
Cr1   Cr    Cr6+3 0.164410 0.584450 0.499910 1.022766
Cr2   Cr    Cr6+3 0.415550 0.579960 0.499910 1.022780
Cr3   Cr    Cr6+3 0.420040 0.835590 0.499910 1.022766
Cr4   Cr    Cr6+3 0.156760 0.076070 0.017830 1.018622
Cr5   Cr    Cr6+3 0.923930 0.080690 0.017830 1.018621
Cr6   Cr    Cr6+3 0.919310 0.843240 0.017830 1.018621
H1    H     H_    0.563843 0.904001 0.807382 0.115607
H2    H     H_    0.096507 0.659949 0.807419 0.115592
H3    H     H_    0.340015 0.436748 0.807440 0.115581
H4    H     H_    0.474896 0.737138 0.730724 0.097951
H5    H     H_    0.263298 0.738213 0.730726 0.097957
H6    H     H_    0.261628 0.525125 0.730735 0.097972
H7    H     H_    0.506514 0.757211 0.813163 0.109785
H8    H     H_    0.243248 0.749781 0.813165 0.109790
H9    H     H_    0.250043 0.493496 0.813174 0.109801
H10   H     H_    0.777473 0.760764 0.795410 0.114679
H11   H     H_    0.238725 0.016679 0.795365 0.114664
H12   H     H_    0.983341 0.221901 0.795354 0.114652
H13   H     H_    0.573475 0.937771 0.377180 0.132944
H14   H     H_    0.062226 0.635706 0.377181 0.132944
H15   H     H_    0.364307 0.426550 0.377177 0.132947
H16   H     H_    0.615426 0.678069 0.223005 0.103685
H17   H     H_    0.321928 0.937359 0.223007 0.103686
H18   H     H_    0.062638 0.384573 0.223004 0.103684
H19   H     H_    0.656272 0.693919 0.135903 0.116693
H20   H     H_    0.306081 0.962353 0.135904 0.116693
H21   H     H_    0.037633 0.343717 0.135904 0.116695
H22   H     H_    0.623314 0.970115 0.291981 0.099746
H23   H     H_    0.029878 0.653204 0.291982 0.099746
H24   H     H_    0.346816 0.376717 0.291977 0.099746
H25   H     H_    0.762099 0.033658 0.232307 0.101527
H26   H     H_    0.966339 0.728447 0.232308 0.101527
H27   H     H_    0.271586 0.237935 0.232303 0.101526
H28   H     H_    0.796812 0.048523 0.145181 0.129582
H29   H     H_    0.951475 0.748292 0.145181 0.129584
H30   H     H_    0.251731 0.203212 0.145178 0.129578
H31   H     H_    0.722856 0.722312 0.296224 0.101615
H32   H     H_    0.277687 0.000545 0.296225 0.101618
H33   H     H_    0.999464 0.277148 0.296222 0.101616
H34   H     H_    0.531123 0.883465 0.724988 0.112238
H35   H     H_    0.117022 0.647761 0.725024 0.112204
H36   H     H_    0.352205 0.469445 0.725044 0.112184
H37   H     H_    0.667094 0.685241 0.381528 0.127491
H38   H     H_    0.314757 0.981852 0.381530 0.127493
H39   H     H_    0.018150 0.332899 0.381528 0.127491
H40   H     H_    0.826849 0.956901 0.702591 0.122749
H41   H     H_    0.042679 0.869390 0.702598 0.122716
H42   H     H_    0.130804 0.173392 0.702604 0.122755
H43   H     H_    0.734745 0.009631 0.710325 0.113354
H44   H     H_    0.990363 0.724633 0.710359 0.113366
H45   H     H_    0.275538 0.265945 0.710370 0.113347
H46   H     H_    0.773609 0.029880 0.792069 0.111531
H47   H     H_    0.970100 0.743228 0.792104 0.111567
H48   H     H_    0.256969 0.227096 0.792116 0.111576
H49   H     H_    0.859428 0.968810 0.785289 0.103936
H50   H     H_    0.030756 0.890069 0.785295 0.103934
H51   H     H_    0.110146 0.140768 0.785300 0.103935
H52   H     H_    0.595467 0.654351 0.724502 0.132150
H53   H     H_    0.345528 0.941497 0.724466 0.132193
H54   H     H_    0.058370 0.403892 0.724465 0.132194
H55   H     H_    0.632520 0.673301 0.805694 0.094566
H56   H     H_    0.326558 0.959619 0.805655 0.094589
H57   H     H_    0.040238 0.366771 0.805652 0.094591
O1    O     O_R   0.137310 0.468260 0.552980 -0.503690
O2    O     O_R   0.531740 0.669050 0.552980 -0.503664
O3    O     O_R   0.330950 0.862690 0.552980 -0.503680
O4    O     O_R   0.180530 0.983530 0.965090 -0.512364
O5    O     O_R   0.016470 0.197000 0.965090 -0.512364
O6    O     O_R   0.803000 0.819470 0.965090 -0.512365
O7    O     O_R   0.174120 0.688790 0.549730 -0.500806
O8    O     O_R   0.311210 0.485330 0.549730 -0.500796
O9    O     O_R   0.514670 0.825880 0.549730 -0.500808
O10   O     O_R   0.139940 0.470480 0.446230 -0.520974
O11   O     O_R   0.529520 0.669460 0.446230 -0.520980
O12   O     O_R   0.330540 0.860060 0.446230 -0.520977
O13   O     O_R   0.176560 0.690850 0.450770 -0.505776
O14   O     O_R   0.309150 0.485710 0.450770 -0.505777
O15   O     O_R   0.514290 0.823440 0.450770 -0.505777
O16   O     O_3   0.333333 0.666667 0.499990 -0.268408
O17   O     O_3   0.000000 0.000000 0.017910 -0.216058
O18   O     O_R   0.149710 0.171070 0.967700 -0.496803
O19   O     O_R   0.828930 0.978640 0.967700 -0.496802
O20   O     O_R   0.021360 0.850290 0.967700 -0.496801
O21   O     O_R   0.178510 0.985930 0.071830 -0.519613
O22   O     O_R   0.014070 0.192580 0.071830 -0.519617
O23   O     O_R   0.807420 0.821490 0.071830 -0.519616
O24   O     O_R   0.147830 0.173300 0.066650 -0.501122
O25   O     O_R   0.826700 0.974530 0.066650 -0.501123
O26   O     O_R   0.025470 0.852170 0.066650 -0.501122
N1    N     N_3   0.762595 0.732837 0.704408 -0.638811
H58   H     H_    0.764294 0.661687 0.715027 0.218029
H59   H     H_    0.838457 0.800463 0.714704 0.225378
N2    N     N_3   0.266594 0.029699 0.704361 -0.638820
H60   H     H_    0.337613 0.102682 0.714969 0.218013
H61   H     H_    0.198818 0.037685 0.714652 0.225363
N3    N     N_3   0.970327 0.236757 0.704349 -0.638840
H62   H     H_    0.897299 0.234707 0.714949 0.217992
H63   H     H_    0.962419 0.161026 0.714639 0.225377

loop_
_geom_bond_atom_site_label_1
_geom_bond_atom_site_label_2
_ccdc_geom_bond_type
C58   C62   S    
C15   C18   T    
Cr3   O16   S    
C2    O8    A    
Cr6   O20   S    
C2    C18   S    
C53   H26   S    
C24   C42   A    
C71   H50   S    
C41   H38   S    
Cr1   O1    S    
C6    C9    S    
C71   H47   S    
C28   H22   S    
C25   C28   A    
Cr6   O26   S    
C45   C57   A    
C35   O14   A    
C50   C59   A    
C21   O4    A    
C52   H25   S    
C67   H43   S    
C37   C40   A    
C80   C83   S    
C5    C83   S    
C10   C73   T    
C14   C77   S    
C15   C78   S    
C27   H15   S    
C2    O1    A    
C7    N1    S    
C39   H33   S    
C12   C84   S    
C45   H18   S    
C23   C26   A    
N1    H58   S    
C26   H14   S    
C8    N2    S    
Cr5   O5    S    
Cr3   O12   S    
Cr4   O21   S    
Cr3   O3    S    
C24   C27   A    
C48   C60   A    
C61   O24   A    
Cr1   O13   S    
C32   C38   A    
C42   H39   S    
Cr5   O17   S    
C79   H1    S    
C44   C47   A    
C36   O11   A    
Cr1   O7    S    
C34   O12   A    
C49   C52   A    
C72   H48   S    
C70   H49   S    
C69   H45   S    
C65   C80   S    
C46   C58   A    
C27   C30   A    
C70   H46   S    
C14   C17   T    
Cr6   O23   S    
C69   C78   S    
Cr1   O10   S    
C4    C7    S    
C62   O23   A    
C9    H54   S    
N3    H63   S    
C63   O26   A    
C39   C42   A    
C71   C83   S    
C72   H51   S    
C66   C78   S    
C5    H11   S    
C3    O2    A    
C24   C35   S    
C65   C77   S    
C20   O6    A    
C50   H29   S    
C50   C53   A    
C6    C84   S    
C38   C41   A    
Cr2   O2    S    
C25   H13   S    
C81   H9    S    
C11   C83   S    
C64   H34   S    
C40   H37   S    
C47   C59   A    
C21   C74   S    
C22   C25   A    
C49   C58   A    
C66   H36   S    
C72   C84   S    
Cr6   O17   S    
C60   C61   S    
C43   H16   S    
C65   H35   S    
C80   H2    S    
C68   H41   S    
Cr2   O8    S    
C35   O10   A    
C5    C8    S    
C81   H3    S    
C44   C56   A    
C49   H28   S    
C13   C76   S    
C23   C34   S    
C22   C40   A    
C44   H17   S    
C51   H30   S    
C64   C76   S    
C1    O3    A    
Cr2   O14   S    
C33   C39   A    
Cr6   O6    S    
Cr2   O11   S    
C38   H32   S    
C9    N3    S    
C37   H31   S    
C43   C55   A    
C63   O21   A    
Cr4   O18   S    
C4    H10   S    
C8    C77   S    
Cr1   O16   S    
C64   C79   S    
C12   C75   T    
C67   H40   S    
C61   O22   A    
C69   H42   S    
C81   C84   S    
C22   C36   S    
N3    H62   S    
C66   H6    S    
C30   H24   S    
C45   C48   A    
C68   C77   S    
C29   H23   S    
C33   C57   S    
C5    H56   S    
C30   C33   A    
C80   H8    S    
C59   C63   S    
C79   H7    S    
C28   C31   A    
Cr5   O25   S    
C69   C72   S    
C11   C74   T    
C21   O20   A    
C79   C82   S    
C62   O25   A    
C52   C55   A    
C7    C76   S    
Cr2   O16   S    
C29   C32   A    
C47   H20   S    
C20   O19   A    
C48   H21   S    
C1    C17   S    
C23   C41   A    
C67   C70   S    
C51   C54   A    
C51   C60   A    
C19   C75   S    
C13   C16   T    
Cr5   O22   S    
Cr4   O17   S    
C66   C81   S    
C6    H57   S    
N2    H61   S    
C36   O15   A    
C68   C71   S    
C4    H55   S    
C68   H44   S    
C3    O9    A    
Cr4   O4    S    
C10   C82   S    
C20   C73   S    
C8    H53   S    
C9    C78   S    
C6    H12   S    
C1    O7    A    
C70   C82   S    
C43   C46   A    
N1    H59   S    
Cr5   O19   S    
C64   H4    S    
C31   C37   A    
C65   H5    S    
Cr3   O15   S    
C4    C82   S    
C26   C29   A    
N2    H60   S    
C54   H27   S    
C46   H19   S    
C53   C56   A    
Cr4   O24   S    
Cr3   O9    S    
C67   C76   S    
C19   O18   A    
C31   C55   S    
C32   C56   S    
C7    H52   S    
C3    C16   S    
C34   O13   A    
C54   C57   A    
C19   O5    A    
