data_mof_unit_67585.cif
_audit_creation_date              2013-03-05T15:46:15-0500
_audit_creation_method            fapswitch 2.2
_symmetry_space_group_name_H-M    P1
_symmetry_Int_Tables_number       1
_space_group_crystal_system       triclinic
_cell_length_a                    10.973481
_cell_length_b                    11.168765
_cell_length_c                    9.905078
_cell_angle_alpha                 110.603248
_cell_angle_beta                  96.553164
_cell_angle_gamma                 97.275432
_cell_volume                      1110.5898421

loop_
_atom_site_label
_atom_site_type_symbol
_atom_site_description
_atom_site_fract_x
_atom_site_fract_y
_atom_site_fract_z
_atom_type_partial_charge
O1    O     O_R   0.511820 0.332340 0.577400 -0.530111
O2    O     O_R   0.474400 0.295500 0.332650 -0.583011
C1    C     C_R   0.483847 0.254427 0.439881 0.799330
O3    O     O_R   0.336400 0.518400 0.622370 -0.599941
O4    O     O_R   0.298980 0.481560 0.377620 -0.564595
C2    C     C_R   0.260166 0.490152 0.499686 0.830349
Cu1   Cu    Cu3+1 0.522160 0.521810 0.644910 1.081417
Cu2   Cu    Cu3+1 0.477840 0.478190 0.355090 1.046805
O5    O     O_R   0.525600 0.704500 0.667350 -0.544605
O6    O     O_R   0.488180 0.667660 0.422600 -0.516402
O7    O     O_R   0.701020 0.518440 0.622380 -0.492709
O8    O     O_R   0.663600 0.481600 0.377630 -0.525293
C3    C     C_R   0.514759 0.746484 0.558235 0.887249
C4    C     C_R   0.741144 0.502843 0.499717 0.927439
C5    C     C_3   0.073469 0.429391 0.606791 -0.521516
H1    H     H_    0.142334 0.459387 0.708458 0.198354
H2    H     H_    0.066528 0.322703 0.558499 0.253484
C6    C     C_3   0.941626 0.463500 0.637790 0.310352
H3    H     H_    0.134573 0.673941 0.673516 0.197723
C7    C     C_3   0.102010 0.635703 0.553718 -0.269488
C8    C     C_3   0.045978 0.410041 0.345303 -0.237154
C9    C     C_3   0.123345 0.490427 0.501089 -0.122115
H4    H     H_    0.070536 0.474124 0.285471 0.237184
C10   C     C_3   0.881634 0.502663 0.501527 -0.236781
C11   C     C_3   0.958235 0.644977 0.523788 0.246427
C12   C     C_3   0.901220 0.391722 0.349508 -0.195193
H5    H     H_    0.579148 0.142033 0.603701 0.184646
C13   C     C_2   0.465783 0.114178 0.404196 0.319699
C14   C     C_2   0.521798 0.072466 0.503364 -0.206635
C15   C     C_2   0.525259 0.887319 0.586784 -0.226283
C16   C     C_2   0.516013 0.933323 0.474591 -0.076885
N1    N     N_2   0.444530 0.445420 0.137360 -0.302571
C17   C     C_2   0.522574 0.494466 0.071044 -0.095773
H6    H     H_    0.582892 0.649393 0.934919 0.190964
N2    N     N_2   0.555520 0.554510 0.862630 -0.263612
C18   C     C_2   0.497892 0.470438 0.909954 0.447526
H7    H     H_    0.354259 0.408738 0.085609 0.190343
C19   C     C_2   0.837516 0.397000 0.204540 0.925142
O9    O     O_2   0.891004 0.462757 0.145656 -0.525358
O10   O     O_R   0.724241 0.314524 0.128457 -0.732096
H8    H     H_    0.699168 0.317230 0.027996 0.327261
C20   C     C_2   0.187935 0.722733 0.503417 0.848160
O11   O     O_2   0.253993 0.821152 0.594199 -0.619502
O12   O     O_R   0.187530 0.694975 0.354670 -0.703197
H9    H     H_    0.229673 0.772584 0.336777 0.373752
O13   O     O_3   0.930239 0.672786 0.393416 -0.533515
C21   C     C_3   0.957644 0.808225 0.413312 0.113233
H10   H     H_    0.043000 0.863569 0.492236 0.154253
H11   H     H_    0.884468 0.861411 0.460815 0.130940
C22   C     C_3   0.968721 0.822876 0.267414 -0.690529
H12   H     H_    0.014665 0.746210 0.198503 0.310505
H13   H     H_    0.875335 0.816410 0.206620 0.241332
H14   H     H_    0.024509 0.919435 0.287035 0.213121
C23   C     C_2   0.516337 0.854223 0.317702 0.995385
O14   O     O_2   0.599752 0.885461 0.257934 -0.637365
O15   O     O_R   0.415003 0.757174 0.234060 -0.711604
H15   H     H_    0.425006 0.714343 0.128433 0.297297
C24   C     C_2   0.545970 0.976453 0.743379 0.861487
O16   O     O_2   0.622320 0.960791 0.832941 -0.547602
O17   O     O_R   0.477012 0.075797 0.789297 -0.747849
H16   H     H_    0.499697 0.128473 0.898287 0.335391
O18   O     O_3   0.378243 0.026787 0.284576 -0.600939
C25   C     C_3   0.392562 0.043607 0.151508 0.067374
H17   H     H_    0.492546 0.066586 0.142642 0.214717
H18   H     H_    0.343029 0.121397 0.141056 0.168851
C26   C     C_3   0.331820 0.920150 0.021751 -0.662451
H19   H     H_    0.239712 0.880446 0.039871 0.281176
H20   H     H_    0.317731 0.942042 0.920640 0.244039
H21   H     H_    0.392872 0.846272 0.004539 0.237633
O19   O     O_3   0.450643 0.344849 0.811005 -0.529048
C27   C     C_3   0.323728 0.304566 0.812935 0.062752
H22   H     H_    0.272450 0.387169 0.849124 0.112010
H23   H     H_    0.316649 0.247249 0.884216 0.169036
C28   C     C_3   0.259874 0.212057 0.660854 -0.677934
H24   H     H_    0.303362 0.124229 0.624974 0.289402
H25   H     H_    0.160253 0.180566 0.662277 0.189000
H26   H     H_    0.267142 0.261115 0.581931 0.250517
C29   C     C_2   0.644225 0.578458 0.149241 0.910553
O20   O     O_2   0.730291 0.583866 0.082549 -0.575310
O21   O     O_R   0.658228 0.662046 0.292223 -0.708087
H27   H     H_    0.727718 0.737020 0.317509 0.337879
O22   O     O_3   0.862706 0.350700 0.637148 -0.576381
C30   C     C_3   0.900909 0.309299 0.753290 0.140061
H28   H     H_    0.842150 0.342578 0.838677 0.213066
H29   H     H_    0.000180 0.347320 0.806126 0.138341
C31   C     C_3   0.881894 0.161488 0.696444 -0.774329
H30   H     H_    0.940492 0.125289 0.611952 0.237361
H31   H     H_    0.908405 0.129074 0.787882 0.247041
H32   H     H_    0.783135 0.118692 0.647492 0.245858
C32   C     C_2   0.956572 0.572547 0.792452 0.806485
O23   O     O_2   0.059451 0.621478 0.868376 -0.624003
O24   O     O_R   0.852402 0.611849 0.851871 -0.664325
H33   H     H_    0.875382 0.688371 0.948530 0.360101
C33   C     C_2   0.924029 0.753240 0.654592 0.723256
O25   O     O_2   0.816079 0.770293 0.653809 -0.581322
O26   O     O_R   0.016575 0.839114 0.769060 -0.761948
H34   H     H_    0.981716 0.906860 0.845472 0.360203
C34   C     C_2   0.087824 0.285162 0.255611 0.893725
O27   O     O_2   0.056567 0.240019 0.122437 -0.612610
O28   O     O_R   0.158097 0.219922 0.323847 -0.777606
H35   H     H_    0.167590 0.131893 0.253359 0.348708
C35   C     C_2   0.844052 0.255563 0.346151 0.953056
O29   O     O_2   0.731972 0.229539 0.343628 -0.574465
O30   O     O_R   0.915697 0.161463 0.349641 -0.760794
H36   H     H_    0.863896 0.078255 0.346317 0.342093

loop_
_geom_bond_atom_site_label_1
_geom_bond_atom_site_label_2
_geom_bond_distance
_ccdc_geom_bond_type
C5    C6    1.578358 S    
C26   H20   1.110529 S    
C8    C12   1.582939 S    
C25   H18   1.109535 S    
H5    C14   1.085087 S    
N2    C18   1.314661 D    
Cu1   Cu2   2.711414 S    
C21   H11   1.108778 S    
Cu1   O7    2.004057 S    
C28   H25   1.108417 S    
C6    C10   1.652879 S    
C13   C14   1.347773 D    
C10   C12   1.636168 S    
C19   O9    1.222495 D    
O7    C4    1.301145 A    
C29   O21   1.372739 S    
C17   C29   1.482376 S    
C26   H21   1.107164 S    
C7    C11   1.594999 S    
C24   O17   1.395214 S    
C5    H1    1.105498 S    
C2    C9    1.503438 S    
C17   C18   1.507624 S    
O15   H15   1.011324 S    
C5    H2    1.105450 S    
H6    N2    1.030631 S    
C4    C10   1.539986 S    
O5    C3    1.320458 A    
O24   H33   1.012473 S    
O13   C21   1.441861 S    
C5    C9    1.548896 S    
C21   H10   1.103024 S    
C28   H26   1.105580 S    
C22   H13   1.108047 S    
O19   C27   1.412731 S    
C26   H19   1.111019 S    
C25   C26   1.523767 S    
C11   C33   1.550805 S    
O1    Cu1   1.965723 S    
C8    C9    1.562313 S    
C33   O25   1.222978 D    
C20   O12   1.394121 S    
O3    Cu1   2.019154 S    
O30   H36   1.014036 S    
C18   O19   1.388950 S    
C21   C22   1.526904 S    
C23   O15   1.396500 S    
C22   H14   1.110719 S    
C28   H24   1.108242 S    
C6    C32   1.560778 S    
C3    C15   1.483591 S    
C10   C11   1.629187 S    
O3    C2    1.306650 A    
C27   H23   1.110118 S    
C29   O20   1.219858 D    
C12   C19   1.547547 S    
C24   O16   1.223195 D    
O6    C3    1.295437 A    
O17   H16   1.013955 S    
O1    C1    1.307504 A    
Cu2   N1    2.036982 S    
C35   O30   1.397321 S    
O18   C25   1.418203 S    
O4    Cu2   2.004057 S    
C32   O24   1.394482 S    
C30   H28   1.110480 S    
C15   C16   1.377883 D    
Cu2   O8    2.019154 S    
O26   H34   1.013919 S    
C22   H12   1.108976 S    
N1    H7    1.022439 S    
C33   O26   1.400685 S    
O10   H8    1.013690 S    
C30   H29   1.112287 S    
O8    C4    1.324684 A    
C34   O27   1.223410 D    
C34   O28   1.397262 S    
C8    H4    1.105546 S    
C20   O11   1.223140 D    
O12   H9    1.010897 S    
Cu1   O5    1.968131 S    
C23   O14   1.224027 D    
C1    C13   1.460676 S    
C31   H30   1.108095 S    
Cu1   N2    2.037074 S    
O2    Cu2   1.968131 S    
C7    C9    1.577347 S    
O21   H27   0.996229 S    
C31   H32   1.106250 S    
C27   C28   1.519207 S    
C7    C20   1.515925 S    
N1    C17   1.314457 D    
H3    C7    1.107258 S    
O2    C1    1.295811 A    
C27   H22   1.114022 S    
C14   C16   1.469520 S    
C12   C35   1.557334 S    
C19   O10   1.403268 S    
C8    C34   1.526009 S    
C32   O23   1.224510 D    
O4    C2    1.303353 A    
C15   C24   1.491332 S    
O28   H35   1.012122 S    
C6    O22   1.433177 S    
C31   H31   1.110524 S    
C16   C23   1.493735 S    
C35   O29   1.222742 D    
C25   H17   1.115305 S    
C30   C31   1.522397 S    
Cu2   O6    1.965723 S    
O22   C30   1.423497 S    
C11   O13   1.440253 S    
C13   O18   1.402903 S    
