data_mof_unit_48233.cif
_audit_creation_date              2013-03-05T15:41:03-0500
_audit_creation_method            fapswitch 2.2
_symmetry_space_group_name_H-M    P1
_symmetry_Int_Tables_number       1
_space_group_crystal_system       triclinic
_cell_length_a                    28.155311
_cell_length_b                    18.442448
_cell_length_c                    16.949401
_cell_angle_alpha                 90.049003
_cell_angle_beta                  61.136228
_cell_angle_gamma                 90.089689
_cell_volume                      7707.66349569

loop_
_atom_site_label
_atom_site_type_symbol
_atom_site_description
_atom_site_fract_x
_atom_site_fract_y
_atom_site_fract_z
_atom_type_partial_charge
O1    O     O_R   0.746490 0.236330 0.638080 -0.628731
O2    O     O_R   0.253510 0.763670 0.361920 -0.628202
O3    O     O_R   0.253510 0.236330 0.361920 -0.636954
O4    O     O_R   0.746490 0.763670 0.638080 -0.649158
O5    O     O_R   0.246490 0.736330 0.638080 -0.621540
O6    O     O_R   0.753510 0.263670 0.361920 -0.644167
O7    O     O_R   0.753510 0.736330 0.361920 -0.613813
O8    O     O_R   0.246490 0.263670 0.638080 -0.623188
O9    O     O_R   0.674170 0.186160 0.516270 -0.655424
O10   O     O_R   0.325830 0.813840 0.483730 -0.672275
O11   O     O_R   0.325830 0.186160 0.483730 -0.645178
O12   O     O_R   0.674170 0.813840 0.516270 -0.673521
O13   O     O_R   0.174170 0.686160 0.516270 -0.643356
O14   O     O_R   0.825830 0.313840 0.483730 -0.669195
O15   O     O_R   0.825830 0.686160 0.483730 -0.654278
O16   O     O_R   0.174170 0.313840 0.516270 -0.658422
O17   O     O_R   0.739960 0.127620 0.525000 -0.536726
O18   O     O_R   0.260040 0.872380 0.475000 -0.546410
O19   O     O_R   0.260040 0.127620 0.475000 -0.539716
O20   O     O_R   0.739960 0.872380 0.525000 -0.552648
O21   O     O_R   0.239960 0.627620 0.525000 -0.529453
O22   O     O_R   0.760040 0.372380 0.475000 -0.549507
O23   O     O_R   0.760040 0.627620 0.475000 -0.535596
O24   O     O_R   0.239960 0.372380 0.525000 -0.539053
O25   O     O_R   0.680700 0.294870 0.629350 -0.618397
O26   O     O_R   0.319300 0.705130 0.370650 -0.627786
O27   O     O_R   0.319300 0.294870 0.370650 -0.627123
O28   O     O_R   0.680700 0.705130 0.629350 -0.630967
O29   O     O_R   0.180700 0.794870 0.629350 -0.636536
O30   O     O_R   0.819300 0.205130 0.370650 -0.634045
O31   O     O_R   0.819300 0.794870 0.370650 -0.621296
O32   O     O_R   0.180700 0.205130 0.629350 -0.627844
C1    C     C_R   0.704790 0.274328 0.674740 0.899129
C2    C     C_R   0.299105 0.733965 0.322861 0.871464
C3    C     C_R   0.299117 0.265835 0.322656 0.867314
C4    C     C_R   0.700900 0.733965 0.677198 0.859422
C5    C     C_R   0.206343 0.777835 0.672848 0.876058
C6    C     C_R   0.799166 0.234377 0.323103 0.858843
C7    C     C_R   0.793422 0.778256 0.327441 0.894436
C8    C     C_R   0.201067 0.233834 0.677102 0.868440
C9    C     C_R   0.695466 0.127919 0.520558 0.968079
C10   C     C_R   0.308937 0.870279 0.463189 0.912273
C11   C     C_R   0.309228 0.129557 0.462608 0.930878
C12   C     C_R   0.691318 0.870768 0.533674 0.915944
C13   C     C_R   0.190687 0.629658 0.537664 0.949030
C14   C     C_R   0.808703 0.370779 0.466225 0.920594
C15   C     C_R   0.804348 0.627907 0.479959 0.969387
C16   C     C_R   0.191108 0.370377 0.536539 0.934435
Zn1   Zn    Zn3+2 0.792340 0.208750 0.507670 1.033197
Zn2   Zn    Zn3+2 0.207660 0.791250 0.492330 1.050689
Zn3   Zn    Zn3+2 0.207660 0.208750 0.492330 1.029896
Zn4   Zn    Zn3+2 0.792340 0.791250 0.507670 1.034957
Zn5   Zn    Zn3+2 0.292340 0.708750 0.507670 1.050516
Zn6   Zn    Zn3+2 0.707660 0.291250 0.492330 1.039590
Zn7   Zn    Zn3+2 0.707660 0.708750 0.492330 1.049884
Zn8   Zn    Zn3+2 0.292340 0.291250 0.507670 1.058745
H1    H     H_    0.037533 0.250821 0.523721 0.159342
H2    H     H_    0.920964 0.738263 0.600601 0.192191
H3    H     H_    0.971591 0.253295 0.468202 0.158833
H4    H     H_    0.003764 0.741627 0.614510 0.183746
H5    H     H_    0.529254 0.752429 0.527776 0.167200
H6    H     H_    0.493237 0.243070 0.395231 0.181956
H7    H     H_    0.463283 0.750401 0.472275 0.165202
H8    H     H_    0.575191 0.240025 0.411570 0.192358
C17   C     C_R   0.569437 0.125343 0.442031 0.064105
C18   C     C_R   0.463463 0.866958 0.455833 0.080934
C19   C     C_R   0.475944 0.128506 0.422009 0.072727
C20   C     C_R   0.541899 0.868660 0.512811 0.081853
C21   C     C_R   0.022688 0.628056 0.582366 0.073783
C22   C     C_R   0.958398 0.369295 0.485419 0.088935
C23   C     C_R   0.928710 0.624778 0.563171 0.068012
C24   C     C_R   0.036797 0.367176 0.542362 0.090420
C25   C     C_R   0.552723 0.190290 0.419852 -0.075211
C26   C     C_R   0.480584 0.801763 0.476732 -0.089983
C27   C     C_R   0.505915 0.192099 0.410862 -0.114093
C28   C     C_R   0.517971 0.802950 0.508703 -0.089089
C29   C     C_R   0.991597 0.691010 0.597006 -0.120255
C30   C     C_R   0.982635 0.303624 0.488246 -0.165036
C31   C     C_R   0.944382 0.689039 0.589038 -0.074908
C32   C     C_R   0.019992 0.302178 0.520232 -0.155871
C33   C     C_R   0.493494 0.063200 0.442196 0.031351
C34   C     C_R   0.527432 0.933141 0.485905 0.033139
C35   C     C_R   0.538884 0.062289 0.456135 0.029719
C36   C     C_R   0.485781 0.932834 0.462758 0.030964
C37   C     C_R   0.959955 0.562154 0.546973 0.029493
C38   C     C_R   0.014149 0.433061 0.536758 0.026907
C39   C     C_R   0.005503 0.563042 0.560628 0.032615
C40   C     C_R   0.972477 0.433524 0.513690 0.028023
C41   C     C_R   0.945061 0.498141 0.518990 -0.010502
C42   C     C_R   0.032793 0.498363 0.555188 -0.012218
C43   C     C_R   0.466810 0.998326 0.445624 -0.007926
C44   C     C_R   0.554398 0.997912 0.482146 -0.005149
C45   C     C_R   0.888100 0.434370 0.468395 -0.019442
C46   C     C_R   0.102402 0.565416 0.572144 -0.019423
C47   C     C_R   0.104358 0.432745 0.566002 -0.024604
C48   C     C_R   0.871588 0.561968 0.511433 -0.027327
C49   C     C_R   0.395696 0.932737 0.433260 -0.028087
C50   C     C_R   0.627746 0.061913 0.490173 -0.027410
C51   C     C_R   0.611883 0.933886 0.531227 -0.022744
C52   C     C_R   0.397253 0.065421 0.428903 -0.019360
C53   C     C_R   0.841672 0.435289 0.454901 -0.236881
C54   C     C_R   0.155306 0.565094 0.564173 -0.256114
C55   C     C_R   0.155993 0.434287 0.562279 -0.251571
C56   C     C_R   0.832250 0.562677 0.480831 -0.255770
C57   C     C_R   0.344051 0.934217 0.437181 -0.242113
C58   C     C_R   0.667406 0.062614 0.519992 -0.256114
C59   C     C_R   0.658327 0.935071 0.544853 -0.234405
C60   C     C_R   0.344524 0.065018 0.436240 -0.255693
C61   C     C_R   0.819789 0.500238 0.449306 0.534658
C62   C     C_R   0.178349 0.499781 0.568815 0.544606
C63   C     C_R   0.321607 0.999682 0.431028 0.544285
C64   C     C_R   0.680096 0.000122 0.550866 0.535491
C65   C     C_R   0.902019 0.498397 0.498487 0.068434
C66   C     C_R   0.079624 0.498883 0.565485 0.069731
C67   C     C_R   0.420159 0.998873 0.434872 0.069194
C68   C     C_R   0.597556 0.998113 0.502380 0.068765
C69   C     C_R   0.076803 0.367582 0.568016 -0.181594
C70   C     C_R   0.882324 0.622201 0.553288 -0.170082
C71   C     C_R   0.919826 0.371492 0.456132 -0.182856
C72   C     C_R   0.070863 0.629073 0.587918 -0.170736
C73   C     C_R   0.580452 0.870712 0.542223 -0.169905
C74   C     C_R   0.428420 0.129282 0.414735 -0.171840
C75   C     C_R   0.423413 0.867591 0.430251 -0.173522
C76   C     C_R   0.616354 0.122516 0.449966 -0.172546
H9    H     H_    0.085482 0.316242 0.588601 0.178577
H10   H     H_    0.855192 0.667638 0.580653 0.184706
H11   H     H_    0.915958 0.323732 0.422761 0.176249
H12   H     H_    0.082059 0.679269 0.607563 0.172186
H13   H     H_    0.584384 0.822611 0.574844 0.181210
H14   H     H_    0.417487 0.179588 0.395119 0.171613
H15   H     H_    0.414686 0.816453 0.409076 0.181729
H16   H     H_    0.643377 0.168049 0.421980 0.185852
C77   C     C_R   0.716420 0.263006 0.960576 -0.099292
C78   C     C_R   0.289373 0.753417 0.035752 -0.087946
C79   C     C_R   0.294189 0.240690 0.029842 -0.092825
C80   C     C_R   0.709593 0.754907 0.965486 -0.087289
C81   C     C_R   0.228525 0.785386 0.946878 -0.085998
C82   C     C_R   0.772293 0.224914 0.054799 -0.095658
C83   C     C_R   0.770376 0.786815 0.054580 -0.091485
C84   C     C_R   0.235368 0.209062 0.937360 -0.091124
C85   C     C_R   0.764837 0.222746 0.918186 -0.031912
C86   C     C_R   0.238760 0.789239 0.082059 -0.045229
C87   C     C_R   0.251223 0.189748 0.065987 -0.043821
C88   C     C_R   0.760268 0.790596 0.919365 -0.040939
C89   C     C_R   0.283453 0.763558 0.896542 -0.036945
C90   C     C_R   0.729002 0.274936 0.092630 -0.038763
C91   C     C_R   0.715340 0.765263 0.104990 -0.037899
C92   C     C_R   0.276050 0.263107 0.904258 -0.045846
C93   C     C_R   0.785659 0.191772 0.971626 -0.001168
C94   C     C_R   0.204660 0.794308 0.041384 0.004466
C95   C     C_R   0.227618 0.165982 0.011992 -0.002351
C96   C     C_R   0.794241 0.795557 0.960164 -0.005944
C97   C     C_R   0.310987 0.736933 0.942958 -0.005293
C98   C     C_R   0.695014 0.282709 0.052057 -0.005303
C99   C     C_R   0.687690 0.738773 0.058486 -0.007864
C100  C     C_R   0.311179 0.269731 0.942844 -0.002495
C101  C     C_R   0.638426 0.316729 0.955557 0.042223
C102  C     C_R   0.365437 0.691465 0.040911 0.047211
C103  C     C_R   0.366241 0.308583 0.040309 0.041833
C104  C     C_R   0.633839 0.692527 0.959661 0.046091
C105  C     C_R   0.143592 0.822999 0.950431 0.036395
C106  C     C_R   0.841214 0.152174 0.066871 0.036769
C107  C     C_R   0.855700 0.823694 0.050392 0.035936
C108  C     C_R   0.163904 0.141599 0.925349 0.034745
C109  C     C_R   0.614207 0.342378 0.903544 -0.108430
C110  C     C_R   0.388213 0.662246 0.094112 -0.109984
C111  C     C_R   0.388026 0.338302 0.094421 -0.109790
C112  C     C_R   0.611465 0.662690 0.906144 -0.111406
C113  C     C_R   0.115940 0.844324 0.901950 -0.107307
C114  C     C_R   0.874459 0.140515 0.108242 -0.112749
C115  C     C_R   0.883647 0.844732 0.098482 -0.107895
C116  C     C_R   0.127591 0.136182 0.888973 -0.108771
C117  C     C_R   0.636011 0.324539 0.814059 -0.288635
C118  C     C_R   0.368031 0.682928 0.182787 -0.287009
C119  C     C_R   0.367382 0.317847 0.183135 -0.290324
C120  C     C_R   0.631926 0.682969 0.817286 -0.289514
C121  C     C_R   0.136476 0.825523 0.813091 -0.287658
C122  C     C_R   0.863549 0.175514 0.186858 -0.294009
C123  C     C_R   0.863161 0.826057 0.187316 -0.280596
C124  C     C_R   0.136895 0.174613 0.813388 -0.287275
H17   H     H_    0.615300 0.340939 0.777109 0.197115
H18   H     H_    0.385427 0.660056 0.222050 0.195060
H19   H     H_    0.384027 0.341785 0.223032 0.195242
H20   H     H_    0.614727 0.659694 0.777863 0.195441
H21   H     H_    0.112819 0.835666 0.779233 0.193008
H22   H     H_    0.886866 0.162543 0.220569 0.192055
H23   H     H_    0.887006 0.835963 0.220935 0.196263
H24   H     H_    0.111723 0.165402 0.781992 0.190475
C125  C     C_R   0.685557 0.290665 0.769691 -0.078133
C126  C     C_R   0.323408 0.727568 0.224231 -0.073814
C127  C     C_R   0.323417 0.271883 0.223681 -0.074945
C128  C     C_R   0.676567 0.727714 0.775891 -0.068724
C129  C     C_R   0.188418 0.799169 0.765520 -0.070269
C130  C     C_R   0.820595 0.222574 0.226550 -0.070491
C131  C     C_R   0.811118 0.799942 0.235097 -0.080063
C132  C     C_R   0.180645 0.220282 0.773389 -0.078771
C133  C     C_R   0.715187 0.273427 0.816824 0.000639
C134  C     C_R   0.298755 0.756211 0.173415 -0.010893
C135  C     C_R   0.300317 0.240838 0.171082 -0.004717
C136  C     C_R   0.701028 0.756768 0.826955 -0.009686
C137  C     C_R   0.221915 0.793623 0.807467 -0.009935
C138  C     C_R   0.792796 0.245501 0.178580 -0.008849
C139  C     C_R   0.777368 0.794730 0.193584 -0.009379
C140  C     C_R   0.210106 0.239339 0.820272 -0.005690
C141  C     C_R   0.689736 0.283743 0.911106 0.067758
C142  C     C_R   0.317907 0.733617 0.083301 0.068227
C143  C     C_R   0.320219 0.263293 0.080564 0.065589
C144  C     C_R   0.681407 0.734713 0.917445 0.067645
C145  C     C_R   0.197847 0.799884 0.901875 0.062071
C146  C     C_R   0.802393 0.207983 0.099723 0.066527
C147  C     C_R   0.801279 0.801028 0.099268 0.064432
C148  C     C_R   0.202896 0.197134 0.894820 0.064245
C149  C     C_R   0.612822 0.321775 0.050449 -0.269589
C150  C     C_R   0.387474 0.678735 0.947581 -0.274429
C151  C     C_R   0.390248 0.319510 0.946282 -0.266560
C152  C     C_R   0.611342 0.680328 0.053168 -0.277165
C153  C     C_R   0.118590 0.822524 0.045074 -0.251577
C154  C     C_R   0.843572 0.108341 0.996554 -0.272271
C155  C     C_R   0.880619 0.822858 0.955804 -0.262835
C156  C     C_R   0.164996 0.090680 0.986362 -0.279091
C157  C     C_R   0.640409 0.306251 0.098751 0.379316
C158  C     C_R   0.359152 0.694886 0.900919 0.342633
C159  C     C_R   0.363456 0.301454 0.897488 0.358658
C160  C     C_R   0.639295 0.696980 0.100396 0.342093
C161  C     C_R   0.147627 0.806180 0.090908 0.376629
C162  C     C_R   0.817583 0.128160 0.947322 0.337395
C163  C     C_R   0.851311 0.806600 0.910449 0.387654
C164  C     C_R   0.197478 0.100715 0.027391 0.344732
C165  C     C_R   0.769655 0.248676 0.774346 -0.252378
C166  C     C_R   0.256855 0.808445 0.207328 -0.250984
C167  C     C_R   0.257985 0.188940 0.204607 -0.257247
C168  C     C_R   0.743114 0.808943 0.793038 -0.259220
C169  C     C_R   0.278742 0.786691 0.758629 -0.246887
C170  C     C_R   0.756008 0.304222 0.205912 -0.261250
C171  C     C_R   0.720507 0.787927 0.242721 -0.251373
C172  C     C_R   0.245790 0.298909 0.796402 -0.243635
C173  C     C_R   0.793012 0.220598 0.823785 0.661653
C174  C     C_R   0.226436 0.823090 0.164248 0.712850
C175  C     C_R   0.232387 0.166862 0.155651 0.661687
C176  C     C_R   0.773043 0.824198 0.836913 0.684940
C177  C     C_R   0.309140 0.773556 0.802175 0.667939
C178  C     C_R   0.723881 0.317864 0.165228 0.674508
C179  C     C_R   0.689860 0.775168 0.199398 0.666803
C180  C     C_R   0.277784 0.311067 0.837758 0.674668
H25   H     H_    0.570042 0.333715 0.088992 0.193755
H26   H     H_    0.426861 0.654881 0.908149 0.207728
H27   H     H_    0.431632 0.337849 0.907825 0.199027
H28   H     H_    0.571888 0.656371 0.092209 0.206857
H29   H     H_    0.075147 0.829354 0.084476 0.193178
H30   H     H_    0.862650 0.055791 0.981943 0.208778
H31   H     H_    0.924126 0.829052 0.916208 0.193518
H32   H     H_    0.144054 0.039472 0.997241 0.203411
H33   H     H_    0.796744 0.252800 0.703124 0.207474
H34   H     H_    0.247672 0.841059 0.265737 0.217836
H35   H     H_    0.243577 0.162440 0.268552 0.223077
H36   H     H_    0.752793 0.841053 0.734096 0.222065
H37   H     H_    0.300863 0.795192 0.686633 0.196493
H38   H     H_    0.752703 0.341985 0.257076 0.215970
H39   H     H_    0.698607 0.796191 0.314789 0.193733
H40   H     H_    0.247590 0.338892 0.748428 0.209511
O33   O     O_R   0.062020 0.072840 0.007170 -0.613979
O34   O     O_R   0.937980 0.927160 0.992830 -0.622784
O35   O     O_R   0.937980 0.072840 0.992830 -0.616065
O36   O     O_R   0.062020 0.927160 0.007170 -0.624077
O37   O     O_R   0.562020 0.572840 0.007170 -0.615925
O38   O     O_R   0.437980 0.427160 0.992830 -0.610737
O39   O     O_R   0.437980 0.572840 0.992830 -0.616307
O40   O     O_R   0.562020 0.427160 0.007170 -0.609057
O41   O     O_R   0.947860 0.073950 0.109290 -0.611440
O42   O     O_R   0.052140 0.926050 0.890710 -0.617474
O43   O     O_R   0.052140 0.073950 0.890710 -0.610104
O44   O     O_R   0.947860 0.926050 0.109290 -0.615926
O45   O     O_R   0.447860 0.573950 0.109290 -0.613331
O46   O     O_R   0.552140 0.426050 0.890710 -0.613410
O47   O     O_R   0.552140 0.573950 0.890710 -0.613420
O48   O     O_R   0.447860 0.426050 0.109290 -0.614842
C181  C     C_R   0.079639 0.091068 0.928689 0.922196
C182  C     C_R   0.927927 0.897089 0.063500 0.868088
C183  C     C_R   0.921225 0.093012 0.070296 0.923593
C184  C     C_R   0.071942 0.896999 0.936597 0.865264
C185  C     C_R   0.571879 0.603177 0.936687 0.888987
C186  C     C_R   0.427727 0.397371 0.063758 0.889550
C187  C     C_R   0.427952 0.602993 0.063494 0.889245
C188  C     C_R   0.571759 0.397049 0.936691 0.886911
Zn9   Zn    Zn3+2 0.505960 0.500000 0.080520 1.039524
Zn10  Zn    Zn3+2 0.494040 0.500000 0.919480 1.041887
Zn11  Zn    Zn3+2 0.005960 0.000000 0.080520 1.027772
Zn12  Zn    Zn3+2 0.994040 0.000000 0.919480 1.030560
F1    F     F_    0.783743 0.501567 0.417303 -0.621830
F2    F     F_    0.225029 0.500001 0.574246 -0.619898
F3    F     F_    0.274965 0.999831 0.425483 -0.623777
F4    F     F_    0.716256 0.001544 0.582638 -0.620086
N1    N     N_R   0.609786 0.303135 0.195213 0.239099
O49   O     O_R   0.569579 0.347479 0.239384 -0.363452
O50   O     O_R   0.616989 0.249308 0.237749 -0.438443
N2    N     N_R   0.375769 0.658262 0.816661 0.255838
O51   O     O_R   0.427052 0.649945 0.759764 -0.348295
O52   O     O_R   0.340178 0.623086 0.803250 -0.334699
N3    N     N_R   0.393208 0.306081 0.800739 0.247761
O53   O     O_R   0.429077 0.357067 0.761688 -0.330288
O54   O     O_R   0.389638 0.254301 0.751604 -0.378640
N4    N     N_R   0.622061 0.660969 0.185148 0.255974
O55   O     O_R   0.570637 0.653597 0.241832 -0.351475
O56   O     O_R   0.657111 0.625259 0.199230 -0.334066
N5    N     N_R   0.117195 0.792376 0.186142 0.245027
O57   O     O_R   0.073470 0.829336 0.236294 -0.329651
O58   O     O_R   0.128397 0.736101 0.220464 -0.387561
N6    N     N_R   0.818262 0.078139 0.881488 0.251405
O59   O     O_R   0.860379 0.037150 0.835541 -0.297714
O60   O     O_R   0.774353 0.066251 0.876043 -0.347752
N7    N     N_R   0.881332 0.790809 0.815804 0.236040
O61   O     O_R   0.925621 0.826302 0.764202 -0.372615
O62   O     O_R   0.869149 0.733729 0.783999 -0.434812
N8    N     N_R   0.205477 0.039722 0.072506 0.257967
O63   O     O_R   0.166406 0.993332 0.115283 -0.290817
O64   O     O_R   0.253596 0.025177 0.061225 -0.364420
F5    F     F_    0.845451 0.198309 0.778543 -0.640134
F6    F     F_    0.187942 0.875381 0.199958 -0.571950
F7    F     F_    0.185938 0.128019 0.200733 -0.620007
F8    F     F_    0.811540 0.876768 0.801872 -0.589871
F9    F     F_    0.363937 0.777631 0.752065 -0.641892
F10   F     F_    0.691382 0.377203 0.192259 -0.609352
F11   F     F_    0.635104 0.779575 0.249765 -0.643866
F12   F     F_    0.307018 0.373415 0.817265 -0.608295

loop_
_geom_bond_atom_site_label_1
_geom_bond_atom_site_label_2
_geom_bond_distance
_ccdc_geom_bond_type
O4    C4    1.250654 A    
C151  H27   1.078331 S    
O5    C5    1.252875 A    
C134  C142  1.414820 A    
O45   Zn9   2.002356 S    
C59   C64   1.372268 A    
C109  C188  1.454359 S    
O7    Zn7   2.013939 S    
O31   Zn4   2.066967 S    
C115  C123  1.371200 A    
O8    Zn8   2.013939 S    
O37   C185  1.223814 A    
C123  C131  1.373923 A    
O18   Zn2   2.018806 S    
C121  C129  1.374137 A    
C114  C122  1.374947 A    
C100  C159  1.416085 A    
C105  C153  1.406655 A    
C38   C40   1.404441 A    
C131  C139  1.432645 A    
C162  N6    1.440221 S    
C83   C96   1.414342 A    
C24   C32   1.403683 A    
C63   F3    1.361105 S    
O30   C6    1.305561 A    
C1    C125  1.460243 S    
C137  C145  1.409297 A    
C135  C167  1.415290 A    
C150  C158  1.400042 A    
O20   C12   1.305216 A    
O28   Zn7   2.066967 S    
O39   Zn10  1.987656 S    
C173  F5    1.358368 S    
C36   C43   1.407435 A    
C49   C67   1.406518 A    
C91   C99   1.434070 A    
C124  C132  1.370326 A    
C51   C73   1.418870 A    
C49   C57   1.423514 A    
O2    C2    1.251989 A    
C87   C95   1.434239 A    
C157  N1    1.434875 S    
C136  C144  1.416104 A    
C94   C161  1.424965 A    
C154  H30   1.077915 S    
C52   C67   1.413550 A    
O6    Zn6   2.014005 S    
O48   Zn9   1.999435 S    
C29   C31   1.399976 A    
C41   C65   1.412809 A    
C110  C118  1.379307 A    
C172  H40   1.081027 S    
C84   C148  1.428198 A    
C87   C175  1.411126 A    
C103  C151  1.413322 A    
C38   C42   1.406853 A    
C45   C53   1.431797 A    
C51   C68   1.413413 A    
C106  C146  1.406784 A    
O27   C3    1.309949 A    
N8    O63   1.302235 A    
C7    C131  1.451048 S    
C5    C129  1.452926 S    
C164  N8    1.438492 S    
C152  C160  1.400556 A    
C138  C170  1.414090 A    
C90   C98   1.430090 A    
C91   C179  1.414266 A    
C140  C148  1.413198 A    
O23   Zn7   2.021853 S    
C44   C68   1.412996 A    
C171  C179  1.396368 A    
H2    C31   1.083538 S    
N2    O51   1.301715 A    
O30   Zn1   2.066915 S    
C34   C36   1.404744 A    
C156  H32   1.080347 S    
H6    C27   1.083522 S    
O24   Zn8   2.021853 S    
O17   Zn1   2.018806 S    
C119  H19   1.084717 S    
C125  C133  1.442218 A    
C120  H20   1.084668 S    
O44   C182  1.273366 A    
C15   C56   1.441789 S    
C178  F10   1.357333 S    
O9    C9    1.250088 A    
C20   C73   1.396592 A    
C103  C143  1.409347 A    
H7    C26   1.083617 S    
C152  H28   1.075334 S    
C163  N7    1.436499 S    
C50   C58   1.430832 A    
C60   C63   1.388699 A    
C97   C158  1.420393 A    
C140  C172  1.408874 A    
O13   C13   1.264333 A    
O48   C186  1.271759 A    
C108  C148  1.403880 A    
C103  C111  1.434920 A    
C11   C60   1.475819 S    
C42   C66   1.411097 A    
O25   C1    1.304056 A    
C13   C54   1.475499 S    
C122  H22   1.085158 S    
O43   C181  1.262355 A    
C40   C41   1.399926 A    
C46   C54   1.429246 A    
O12   C12   1.248111 A    
O7    C7    1.251483 A    
O9    Zn6   2.106248 S    
O8    C8    1.248030 A    
C53   C61   1.371967 A    
C154  C162  1.398624 A    
O11   Zn8   2.108325 S    
O33   Zn11  1.985754 S    
C130  C138  1.438215 A    
O34   Zn12  1.985754 S    
C21   C29   1.403138 A    
O16   Zn3   2.108325 S    
C118  H18   1.084674 S    
C23   C31   1.405603 A    
C19   C27   1.402352 A    
C121  H21   1.085156 S    
O43   Zn12  1.999434 S    
O22   Zn6   2.018806 S    
C47   C69   1.420875 A    
C50   C76   1.424759 A    
C156  C164  1.402690 A    
C26   C28   1.397413 A    
C55   C62   1.390028 A    
O18   C10   1.292656 A    
C30   C32   1.396980 A    
C112  C185  1.467983 S    
C78   C97   1.418504 A    
C18   C26   1.403899 A    
C88   C176  1.407811 A    
C17   C76   1.391948 A    
O2    Zn2   2.014005 S    
C46   C72   1.418377 A    
N5    O58   1.301625 A    
H8    C25   1.083449 S    
O6    C6    1.249871 A    
O46   Zn10  2.002357 S    
C116  C181  1.445050 S    
O37   Zn9   1.985754 S    
C105  C113  1.433610 A    
O38   C186  1.223102 A    
C128  C136  1.443621 A    
C93   C162  1.413818 A    
H1    C32   1.083629 S    
C139  C147  1.408277 A    
C153  H29   1.081511 S    
C110  C187  1.468867 S    
H3    C30   1.083590 S    
C113  C121  1.371807 A    
C33   C35   1.407441 A    
N6    O60   1.301631 A    
O21   C13   1.297985 A    
C82   C93   1.410549 A    
C14   C53   1.462472 S    
N4    O56   1.301630 A    
C52   C60   1.428716 A    
O23   C15   1.290191 A    
C77   C98   1.413141 A    
O24   C16   1.292906 A    
C2    C126  1.473876 S    
C101  C109  1.431090 A    
C80   C99   1.419605 A    
C16   C55   1.464022 S    
C159  N3    1.439390 S    
C82   C146  1.421155 A    
C79   C100  1.417587 A    
N1    O49   1.301698 A    
C104  C144  1.408360 A    
C96   C163  1.423190 A    
H5    C28   1.083578 S    
C180  F12   1.357209 S    
O3    C3    1.249504 A    
C90   C178  1.410345 A    
C149  H25   1.080246 S    
C170  C178  1.400070 A    
C19   C33   1.406279 A    
N7    O62   1.301091 A    
C81   C94   1.416043 A    
C108  C116  1.429547 A    
C132  C140  1.441517 A    
C167  H35   1.074209 S    
C79   C143  1.434138 A    
C12   C59   1.462262 S    
C112  C120  1.379370 A    
C3    C127  1.478769 S    
C4    C128  1.474628 S    
C133  C165  1.419217 A    
C20   C28   1.403532 A    
C136  C168  1.414282 A    
C20   C34   1.403528 A    
C49   C75   1.421078 A    
C82   C90   1.412741 A    
C111  C119  1.377545 A    
O47   C185  1.274047 A    
O12   Zn7   2.108325 S    
O13   Zn2   2.106248 S    
O33   C181  1.221362 A    
C92   C180  1.415493 A    
C18   C75   1.389875 A    
C45   C71   1.417540 A    
C69   H9    1.077760 S    
C107  C155  1.405981 A    
C71   H11   1.079769 S    
C106  C154  1.414388 A    
O40   Zn9   1.987659 S    
O10   C10   1.262110 A    
C25   C27   1.398280 A    
C133  C141  1.413400 A    
O14   C14   1.250394 A    
C61   F1    1.362504 S    
O44   Zn11  1.999435 S    
C122  C130  1.373042 A    
C160  N4    1.437957 S    
C81   C89   1.417458 A    
C78   C142  1.433478 A    
C123  H23   1.085168 S    
C47   C66   1.407628 A    
N8    O64   1.301918 A    
C104  C152  1.412326 A    
C34   C44   1.399279 A    
O41   C183  1.265907 A    
O42   C184  1.274002 A    
O10   Zn5   2.106248 S    
C179  F11   1.357118 S    
C124  H24   1.085323 S    
C149  C157  1.403747 A    
C107  C115  1.432394 A    
C21   C39   1.406084 A    
C116  C124  1.374476 A    
N2    O52   1.301646 A    
C95   C164  1.421475 A    
C57   C63   1.390708 A    
C117  H17   1.085013 S    
C155  H31   1.081644 S    
O16   C16   1.260417 A    
O19   C11   1.297063 A    
C9    C58   1.441911 S    
C85   C93   1.415986 A    
C102  C142  1.409037 A    
O25   Zn6   2.066915 S    
C80   C144  1.433148 A    
O3    Zn3   2.013939 S    
O27   Zn8   2.066967 S    
C105  C145  1.407189 A    
C6    C130  1.461557 S    
C81   C145  1.427071 A    
N3    O53   1.301887 A    
O32   Zn3   2.066967 S    
C175  F7    1.356667 S    
C176  F8    1.357829 S    
O38   Zn10  1.985754 S    
C137  C169  1.408301 A    
C19   C74   1.401822 A    
C106  C114  1.431316 A    
O39   C187  1.223256 A    
C101  C141  1.405658 A    
C113  C184  1.457264 S    
C45   C65   1.413715 A    
O15   Zn4   2.108325 S    
C114  C183  1.449119 S    
C84   C95   1.419028 A    
C115  C182  1.456640 S    
C118  C126  1.378367 A    
O22   C14   1.305240 A    
O40   C188  1.222158 A    
C48   C65   1.406390 A    
C54   C62   1.389202 A    
C102  C150  1.412327 A    
C126  C134  1.442830 A    
C48   C70   1.425906 A    
C86   C174  1.408273 A    
C37   C41   1.408550 A    
O35   Zn12  1.987656 S    
C75   H15   1.078180 S    
C177  F9    1.357175 S    
C73   H13   1.079422 S    
C166  H34   1.077528 S    
C24   C38   1.397558 A    
C72   H12   1.080329 S    
C51   C59   1.433601 A    
C21   C72   1.404326 A    
C77   C85   1.408009 A    
C86   C94   1.430107 A    
C98   C157  1.416085 A    
C80   C88   1.414604 A    
C129  C137  1.432886 A    
O35   C183  1.219273 A    
C43   C67   1.410559 A    
C10   C57   1.462412 S    
C104  C112  1.439491 A    
C120  C128  1.378166 A    
C174  F6    1.356458 S    
C33   C43   1.398015 A    
O28   C4    1.306742 A    
C171  H39   1.080891 S    
N5    O57   1.301561 A    
C39   C42   1.398582 A    
O29   C5    1.295587 A    
C92   C100  1.429994 A    
C155  C163  1.404668 A    
O47   Zn10  1.999434 S    
C109  C117  1.373451 A    
C88   C96   1.428190 A    
N7    O61   1.301470 A    
C22   C30   1.403243 A    
C168  H36   1.077352 S    
O15   C15   1.248702 A    
C22   C40   1.403857 A    
C84   C92   1.413200 A    
C46   C66   1.413090 A    
O1    C1    1.246245 A    
C58   C64   1.382954 A    
C139  C171  1.408773 A    
C35   C44   1.408263 A    
C83   C91   1.417576 A    
O4    Zn4   2.013939 S    
O5    Zn5   2.014005 S    
C127  C135  1.450311 A    
C119  C127  1.378241 A    
C56   C61   1.383225 A    
C17   C35   1.395783 A    
O14   Zn1   2.106248 S    
C78   C86   1.416131 A    
C77   C141  1.422479 A    
O34   C182  1.223008 A    
C17   C25   1.403854 A    
C167  C175  1.396286 A    
C23   C37   1.397344 A    
C161  N5    1.438480 S    
O26   C2    1.307101 A    
C47   C55   1.424643 A    
C24   C69   1.389471 A    
O11   C11   1.263243 A    
N1    O50   1.299760 A    
C89   C97   1.432373 A    
C108  C156  1.408787 A    
C62   F2    1.361087 S    
C99   C160  1.420741 A    
C138  C146  1.410160 A    
C76   H16   1.076692 S    
O29   Zn2   2.066915 S    
C37   C39   1.408869 A    
H4    C29   1.083276 S    
O45   C187  1.274861 A    
O46   C188  1.271155 A    
C107  C147  1.407806 A    
C169  H37   1.080659 S    
C83   C147  1.426427 A    
C50   C68   1.406164 A    
C22   C71   1.395759 A    
C135  C143  1.417627 A    
C89   C177  1.413720 A    
C150  H26   1.074928 S    
N3    O54   1.301831 A    
C169  C177  1.395273 A    
C64   F4    1.362524 S    
C166  C174  1.394432 A    
C158  N2    1.438360 S    
O26   Zn5   2.066915 S    
N6    O59   1.301660 A    
C8    C132  1.466568 S    
N4    O55   1.301714 A    
C85   C173  1.401972 A    
C23   C70   1.395369 A    
O36   Zn11  1.987659 S    
O41   Zn11  2.002356 S    
O42   Zn12  2.002357 S    
C151  C159  1.401780 A    
C165  H33   1.075097 S    
C134  C166  1.413537 A    
C101  C149  1.412699 A    
C172  C180  1.400627 A    
C48   C56   1.431999 A    
O20   Zn4   2.021853 S    
O21   Zn5   2.018806 S    
O1    Zn1   2.014005 S    
C117  C125  1.375086 A    
C79   C87   1.415373 A    
O36   C184  1.222700 A    
O31   C7    1.294279 A    
C52   C74   1.417257 A    
O32   C8    1.307878 A    
O17   C9    1.290799 A    
C111  C186  1.463755 S    
C18   C36   1.397577 A    
C102  C110  1.440468 A    
O19   Zn3   2.021853 S    
C153  C161  1.406079 A    
C168  C176  1.395056 A    
C170  H38   1.080281 S    
C70   H10   1.077097 S    
C165  C173  1.391632 A    
C74   H14   1.079959 S    
