data_mof_unit_54896.cif
_audit_creation_date              2012-12-10T17:37:51-0500
_audit_creation_method            fapswitch 2.2
_symmetry_space_group_name_H-M    P1
_symmetry_Int_Tables_number       1
_space_group_crystal_system       triclinic
_cell_length_a                    12.352418
_cell_length_b                    13.194652
_cell_length_c                    17.262913
_cell_angle_alpha                 105.340102
_cell_angle_beta                  75.23084
_cell_angle_gamma                 116.663598
_cell_volume                      2394.34337886

loop_
_atom_site_label
_atom_site_type_symbol
_atom_type_description
_atom_site_fract_x
_atom_site_fract_y
_atom_site_fract_z
_atom_type_partial_charge
C1    C     C_R   0.144075 0.713675 0.511135 0.787782
C2    C     C_R   0.886765 0.517758 0.796833 -0.190447
C3    C     C_R   0.980017 0.586727 0.168109 0.402604
C4    C     C_R   0.962125 0.565078 0.246339 -0.257431
C5    C     C_R   0.118083 0.489071 0.204264 -0.223868
C6    C     C_R   0.135908 0.507832 0.125128 -0.060622
C7    C     C_R   0.065776 0.556475 0.107123 -0.040495
C8    C     C_2   0.977245 0.512129 0.986466 -0.213457
C9    C     C_2   0.076794 0.571011 0.023381 0.429795
C10   C     C_R   0.030338 0.515995 0.264624 -0.091094
C11   C     C_R   0.722983 0.974871 0.395393 -0.186743
C12   C     C_R   0.987917 0.503347 0.652143 0.775047
C13   C     C_R   0.774441 0.161876 0.482079 -0.263019
C14   C     C_R   0.187832 0.898579 0.603951 -0.287806
C15   C     C_R   0.274500 0.988067 0.648118 -0.155531
C16   C     C_R   0.399330 0.016574 0.620639 0.492165
C17   C     C_R   0.439403 0.971597 0.539054 0.002095
C18   C     C_R   0.350576 0.875771 0.496507 0.024239
C19   C     C_R   0.563977 0.013880 0.499428 0.035391
C20   C     C_R   0.599673 0.944104 0.429195 0.013888
C21   C     C_R   0.511502 0.847033 0.390657 -0.177461
C22   C     C_R   0.388387 0.818367 0.420673 -0.148459
C23   C     C_R   0.855906 0.285857 0.490480 0.828843
C24   C     C_R   0.651181 0.126690 0.522449 0.276332
C25   C     C_R   0.811581 0.080302 0.424116 0.357038
C26   C     C_R   0.225766 0.835050 0.532437 -0.101134
C27   C     C_R   0.630611 0.653521 0.644767 0.348221
C28   C     C_R   0.246730 0.348804 0.391371 0.077334
C29   C     C_R   0.338310 0.308779 0.373208 -0.284019
C30   C     C_R   0.435856 0.362745 0.416961 -0.096965
C31   C     C_R   0.446502 0.461480 0.477550 0.039383
C32   C     C_R   0.346138 0.493971 0.497416 0.234467
C33   C     C_R   0.548217 0.523906 0.522435 -0.164376
C34   C     C_R   0.014582 0.500429 0.348220 0.823116
C35   C     C_R   0.538275 0.604620 0.594231 -0.059602
C36   C     C_R   0.439691 0.637791 0.611909 0.360737
C37   C     C_R   0.346533 0.582518 0.563767 -0.295905
C38   C     C_R   0.660857 0.510880 0.497968 0.552920
C39   C     C_R   0.735603 0.631945 0.618892 -0.045781
C40   C     C_R   0.983881 0.505160 0.737812 -0.031540
C41   C     C_R   0.078002 0.493292 0.761024 -0.211085
C42   C     C_R   0.075907 0.495284 0.841996 -0.077964
C43   C     C_R   0.980579 0.510693 0.901056 0.188742
C44   C     C_R   0.884742 0.519513 0.878188 -0.151374
Cu1   Cu    Cu3+1 0.900140 0.524980 0.518800 0.960738
Cu2   Cu    Cu3+1 0.099860 0.475020 0.481200 0.934481
H1    H     H_    0.153434 0.482270 0.716748 0.161718
H2    H     H_    0.537540 0.796617 0.334584 0.141825
H3    H     H_    0.750739 0.917790 0.344907 0.171458
H4    H     H_    0.092180 0.869091 0.631698 0.179437
H5    H     H_    0.244251 0.026201 0.708541 0.169159
H6    H     H_    0.322909 0.748647 0.384708 0.151199
H7    H     H_    0.805859 0.669007 0.657216 0.167757
H8    H     H_    0.896057 0.588519 0.293191 0.184261
H9    H     H_    0.170098 0.305694 0.358149 0.161054
H10   H     H_    0.497276 0.320934 0.404848 0.188963
H11   H     H_    0.332142 0.233966 0.326550 0.163164
H12   H     H_    0.273968 0.610221 0.581587 0.203579
H13   H     H_    0.171582 0.451709 0.218283 0.168339
H14   H     H_    0.809464 0.529224 0.923399 0.140207
H15   H     H_    0.812551 0.525921 0.780226 0.159088
H16   H     H_    0.889736 0.462451 0.020268 0.131696
H17   H     H_    0.148016 0.483390 0.858242 0.164387
N1    N     N_R   0.749710 0.562810 0.547300 -0.246154
N2    N     N_R   0.249640 0.437820 0.453210 -0.200358
O1    O     O_R   0.025490 0.682370 0.523640 -0.571600
O2    O     O_R   0.194150 0.640180 0.491890 -0.600367
O3    O     O_R   0.905900 0.523560 0.631310 -0.594776
O4    O     O_R   0.074570 0.481370 0.599560 -0.604852
O5    O     O_R   0.805850 0.359820 0.508110 -0.575837
O6    O     O_R   0.974510 0.317630 0.476360 -0.576613
O7    O     O_R   0.925430 0.518630 0.400440 -0.560274
O8    O     O_R   0.094100 0.476440 0.368690 -0.594185
C45   C     C_R   0.226406 0.473824 0.062364 0.125586
C46   C     C_R   0.189931 0.392690 0.992172 -0.123603
C47   C     C_R   0.276116 0.361977 0.932984 -0.127462
C48   C     C_R   0.398930 0.411087 0.943710 -0.091525
C49   C     C_R   0.435681 0.490701 0.013802 -0.122453
C50   C     C_R   0.349824 0.521836 0.073081 -0.150124
H18   H     H_    0.094889 0.353063 0.983384 0.118215
H19   H     H_    0.247623 0.299920 0.878860 0.135954
H20   H     H_    0.465544 0.387231 0.897833 0.138300
H21   H     H_    0.530774 0.528450 0.022136 0.135544
H22   H     H_    0.379653 0.584132 0.126905 0.129321
O9    O     O_3   0.931445 0.104636 0.388097 -0.720906
H23   H     H_    0.980987 0.136401 0.432652 0.336467
O10   O     O_3   0.611761 0.205455 0.576821 -0.685431
H24   H     H_    0.674305 0.252650 0.613054 0.339344
O11   O     O_3   0.475592 0.074641 0.678567 -0.702986
H25   H     H_    0.545396 0.051523 0.662546 0.332240
O12   O     O_3   0.438772 0.729198 0.673645 -0.697939
H26   H     H_    0.365097 0.743218 0.677112 0.323523
O13   O     O_3   0.619725 0.718211 0.720958 -0.681058
H27   H     H_    0.535480 0.678169 0.749089 0.363501
O14   O     O_3   0.686905 0.457819 0.420327 -0.747623
H28   H     H_    0.712079 0.398836 0.424890 0.354610
O15   O     O_3   0.186803 0.640937 0.983164 -0.714850
H29   H     H_    0.246468 0.679714 0.021874 0.331138
O16   O     O_3   0.915649 0.637928 0.149764 -0.734751
H30   H     H_    0.859387 0.653411 0.199094 0.325512

loop_
_geom_bond_atom_site_label_1
_geom_bond_atom_site_label_2
_ccdc_geom_bond_type
C12   O4    A    
O13   H27   S    
C41   C42   A    
O14   H28   S    
C18   C26   A    
C8    C43   S    
C43   C44   A    
O15   H29   S    
C14   H4    S    
C48   C49   A    
C39   N1    A    
C12   O3    A    
C36   C37   A    
C3    C7    A    
C5    C6    A    
C11   C25   A    
C15   C16   A    
C13   C23   S    
Cu2   O4    S    
C17   C19   A    
C49   H21   S    
C35   C36   A    
C2    C44   A    
C8    C9    D    
C38   O14   S    
C31   C33   A    
C15   H5    S    
C46   H18   S    
C37   H12   S    
C2    H15   S    
C21   H2    S    
C16   O11   S    
C21   C22   A    
Cu1   O7    S    
C50   H22   S    
C23   O5    A    
C13   C25   A    
C28   H9    S    
C6    C45   S    
C38   N1    A    
C11   C20   A    
C45   C46   A    
C5    H13   S    
C23   O6    A    
C47   C48   A    
Cu2   N2    S    
C27   C39   A    
O12   H26   S    
C49   C50   A    
C16   C17   A    
C27   C35   A    
O9    H23   S    
C30   H10   S    
C13   C24   A    
C1    O1    A    
C12   C40   S    
C46   C47   A    
C29   C30   A    
C11   H3    S    
C2    C40   A    
O16   H30   S    
C30   C31   A    
Cu1   O3    S    
C25   O9    S    
C17   C18   A    
C41   H1    S    
C10   C34   S    
C32   C37   A    
C14   C26   A    
Cu2   O6    S    
C36   O12   S    
C40   C41   A    
C29   H11   S    
C45   C50   A    
C1    C26   S    
C27   O13   S    
C42   C43   A    
C4    C10   A    
C3    C4    A    
C34   O7    A    
C22   H6    S    
C7    C9    S    
C28   C29   A    
C9    O15   S    
C4    H8    S    
Cu1   O5    S    
C18   C22   A    
C31   C32   A    
C47   H19   S    
Cu1   Cu2   S    
C6    C7    A    
C1    O2    A    
Cu1   N1    S    
C33   C38   A    
C19   C20   A    
C19   C24   A    
Cu2   O2    S    
C39   H7    S    
C48   H20   S    
C44   H14   S    
C33   C35   A    
C28   N2    A    
C24   O10   S    
C34   O8    A    
C3    O16   S    
C5    C10   A    
C20   C21   A    
O10   H24   S    
Cu1   O1    S    
C14   C15   A    
O11   H25   S    
C42   H17   S    
Cu2   O8    S    
C8    H16   S    
C32   N2    A    
