data_mof_unit_44561.cif
_audit_creation_date              2012-12-11T14:06:43-0500
_audit_creation_method            fapswitch 2.2
_symmetry_space_group_name_H-M    P1
_symmetry_Int_Tables_number       1
_space_group_crystal_system       triclinic
_cell_length_a                    6.922459
_cell_length_b                    17.294493
_cell_length_c                    24.115391
_cell_angle_alpha                 104.507223
_cell_angle_beta                  90.397932
_cell_angle_gamma                 89.982218
_cell_volume                      2794.98200157

loop_
_atom_site_label
_atom_site_type_symbol
_atom_type_description
_atom_site_fract_x
_atom_site_fract_y
_atom_site_fract_z
_atom_type_partial_charge
O1    O     O_R   0.494290 0.391990 0.999150 -0.532801
O2    O     O_R   0.827170 0.534410 0.082350 -0.546100
O3    O     O_R   0.994360 0.608010 0.000850 -0.540752
C1    C     C_R   0.658662 0.550197 0.106034 0.695539
O4    O     O_R   0.824210 0.388010 0.004470 -0.548180
O5    O     O_R   0.991370 0.460560 0.922410 -0.540464
C2    C     C_R   0.654534 0.354868 0.001469 0.802575
O6    O     O_R   0.497270 0.539440 0.077590 -0.544646
O7    O     O_3   0.659770 0.523970 0.973170 -0.364778
V1    V     V_3+5 0.935840 0.495550 0.004980 1.447211
O8    O     O_R   0.320910 0.465590 0.917650 -0.504726
C3    C     C_R   0.151585 0.449799 0.893917 0.839343
O9    O     O_R   0.323870 0.611990 0.995530 -0.551840
C4    C     C_R   0.154396 0.645132 0.998528 0.753025
V2    V     V_3+5 0.435470 0.504450 0.995020 1.492022
O10   O     O_3   0.161670 0.476030 0.026830 -0.382049
C5    C     C_2   0.142794 0.730271 0.998112 -0.325840
C6    C     C_2   0.972760 0.769774 0.002029 -0.325248
C7    C     C_R   0.082023 0.246163 0.626391 0.713413
N1    N     N_R   0.092668 0.327265 0.648735 -0.506001
C8    C     C_R   0.087844 0.378691 0.613668 0.711799
C9    C     C_R   0.071698 0.349138 0.553765 -0.066828
C10   C     C_R   0.061051 0.266006 0.530255 -0.008348
C11   C     C_R   0.066327 0.213904 0.566745 -0.060706
C12   C     C_R   0.066421 0.400562 0.516896 -0.105691
C13   C     C_R   0.050659 0.369884 0.457588 -0.116461
C14   C     C_R   0.039870 0.286998 0.433625 -0.064533
C15   C     C_R   0.045216 0.234901 0.470117 -0.005656
C16   C     C_R   0.034990 0.151764 0.446602 -0.054926
C17   C     C_R   0.040137 0.100340 0.483473 -0.111639
C18   C     C_R   0.055537 0.131021 0.542786 -0.116797
C19   C     C_R   0.024501 0.254725 0.373968 0.705581
N2    N     N_R   0.014546 0.173603 0.351610 -0.511094
C20   C     C_R   0.019659 0.122189 0.386686 0.637959
O11   O     O_2   0.085516 0.196840 0.661763 -0.490831
O12   O     O_2   0.099767 0.458152 0.636613 -0.478462
H1    H     H_    0.074499 0.464729 0.533722 0.198519
O13   O     O_2   0.021047 0.304055 0.338601 -0.488004
O14   O     O_2   0.008802 0.042700 0.363739 -0.490583
C21   C     C_R   0.157661 0.102101 0.259541 -0.200704
H2    H     H_    0.289894 0.094788 0.281941 0.225907
C22   C     C_R   0.146245 0.071883 0.200018 0.584226
C23   C     C_R   0.975623 0.080851 0.169747 -0.434287
C24   C     C_R   0.817058 0.120559 0.201042 0.478639
C25   C     C_R   0.829675 0.150663 0.260648 0.608347
C26   C     C_R   0.000278 0.141869 0.290262 0.071642
C27   C     C_R   0.951560 0.397303 0.741710 0.689655
C28   C     C_R   0.966270 0.426548 0.801250 -0.327958
H3    H     H_    0.841908 0.455595 0.824497 0.230568
C29   C     C_R   0.139555 0.419133 0.830435 -0.380300
C30   C     C_R   0.298269 0.381167 0.798332 0.522315
C31   C     C_R   0.282257 0.350958 0.738788 0.585137
C32   C     C_R   0.109073 0.358893 0.710056 0.012860
C33   C     C_R   0.663096 0.850600 0.620214 0.637922
N3    N     N_R   0.509018 0.828274 0.648368 -0.569000
C34   C     C_R   0.372188 0.776026 0.618787 0.652399
C35   C     C_R   0.387003 0.744324 0.558887 -0.130050
C36   C     C_R   0.547167 0.765762 0.529974 -0.078078
C37   C     C_R   0.686447 0.819051 0.560853 -0.044846
C38   C     C_R   0.247864 0.691254 0.527155 0.642448
C39   C     C_R   0.269338 0.659960 0.468203 -0.183964
C40   C     C_R   0.429017 0.680579 0.439169 -0.045099
C41   C     C_R   0.568299 0.733866 0.470049 -0.078166
C42   C     C_R   0.728458 0.755308 0.441137 -0.130243
C43   C     C_R   0.867602 0.808373 0.472869 0.640823
C44   C     C_R   0.846130 0.839667 0.531821 -0.184558
C45   C     C_R   0.452355 0.649041 0.379806 0.637768
N4    N     N_R   0.606421 0.671377 0.351651 -0.568918
C46   C     C_R   0.743255 0.723621 0.381235 0.650747
O15   O     O_2   0.793091 0.903859 0.649421 -0.521420
O16   O     O_2   0.224118 0.753661 0.647368 -0.461650
H4    H     H_    0.159386 0.619524 0.445337 0.176719
O17   O     O_2   0.322357 0.595786 0.350597 -0.521377
O18   O     O_2   0.891308 0.746000 0.352655 -0.462303
C47   C     C_R   0.789248 0.601419 0.264957 -0.067691
C48   C     C_R   0.803063 0.572694 0.205280 -0.187604
H5    H     H_    0.933987 0.542503 0.187356 0.142289
C49   C     C_R   0.647941 0.581577 0.169347 -0.056390
C50   C     C_R   0.480276 0.620982 0.194519 -0.194428
H6    H     H_    0.358643 0.629542 0.168200 0.134116
C51   C     C_R   0.468124 0.650981 0.253918 -0.065804
H7    H     H_    0.338477 0.682158 0.271950 0.163346
C52   C     C_R   0.621600 0.641065 0.289958 0.337336
C53   C     C_R   0.326217 0.898324 0.735039 -0.068882
C54   C     C_R   0.312414 0.927110 0.794712 -0.189210
C55   C     C_R   0.467496 0.918221 0.830657 -0.052248
C56   C     C_R   0.635097 0.878740 0.805503 -0.199069
H8    H     H_    0.756688 0.870169 0.831833 0.131032
C57   C     C_R   0.647237 0.848683 0.746109 -0.066132
H9    H     H_    0.776840 0.817458 0.728089 0.163373
C58   C     C_R   0.493813 0.858614 0.710057 0.338145
C59   C     C_2   0.642891 0.269715 0.001892 -0.318351
C60   C     C_2   0.472618 0.230241 0.997967 -0.318976
H10   H     H_    0.337992 0.261110 0.994589 0.146758
O19   O     O_R   0.618210 0.960470 0.922400 -0.549563
O20   O     O_R   0.291310 0.111960 0.995450 -0.551779
O21   O     O_R   0.124210 0.039530 0.077580 -0.503638
C61   C     C_R   0.460982 0.145099 0.998423 0.799942
O22   O     O_R   0.288310 0.965490 0.917650 -0.550981
O23   O     O_R   0.121180 0.892010 0.999220 -0.539694
C62   C     C_R   0.456805 0.949676 0.893964 0.678032
O24   O     O_R   0.621230 0.107990 0.000760 -0.535845
O25   O     O_3   0.455770 0.976060 0.026840 -0.340641
V3    V     V_3+5 0.179680 0.004440 0.995020 1.496941
O26   O     O_R   0.791670 0.888040 0.004570 -0.553962
C63   C     C_R   0.961149 0.854902 0.001581 0.750671
O27   O     O_R   0.794680 0.034510 0.082370 -0.499997
C64   C     C_R   0.964114 0.050057 0.106153 0.860898
V4    V     V_3+5 0.680070 0.995560 0.005010 1.541872
O28   O     O_3   0.953840 0.023940 0.973160 -0.394082
H11   H     H_    0.277272 0.761110 0.994750 0.149237
F1    F     F_    0.675298 0.188511 0.289724 -0.617538
F2    F     F_    0.783109 0.405828 0.714809 -0.577693
F3    F     F_    0.467475 0.371321 0.824522 -0.630183
F4    F     F_    0.435533 0.313562 0.708871 -0.565820
F5    F     F_    0.089831 0.669280 0.552589 -0.640583
F6    F     F_    0.025636 0.830349 0.447436 -0.642361
H12   H     H_    0.956080 0.880104 0.554686 0.176703
H13   H     H_    0.909067 0.592456 0.291765 0.167637
H14   H     H_    0.838283 0.738936 0.005392 0.148206
H15   H     H_    0.206444 0.907297 0.708220 0.167629
H16   H     H_    0.181543 0.957360 0.812624 0.141267
H17   H     H_    0.777516 0.238845 0.005271 0.145390
H18   H     H_    0.047094 0.411390 0.430600 0.177698
H19   H     H_    0.032300 0.036168 0.466644 0.197887
H20   H     H_    0.059077 0.089515 0.569774 0.177946
F7    F     F_    0.301547 0.032704 0.172377 -0.603186
F8    F     F_    0.651017 0.132163 0.173960 -0.590225

loop_
_geom_bond_atom_site_label_1
_geom_bond_atom_site_label_2
_ccdc_geom_bond_type
C56   H8    S    
C60   H10   S    
C7    N1    A    
C1    O6    A    
C51   H7    S    
C25   F1    S    
C8    O12   S    
C54   C55   A    
C31   C32   A    
C21   C26   A    
C13   C14   A    
C40   C41   A    
C40   C45   A    
C15   C16   A    
C48   C49   A    
C37   C44   A    
O5    C3    A    
C17   C18   A    
V2    O10   S    
O23   V3    S    
C34   C35   A    
C5    C6    D    
N3    C58   S    
C12   H1    S    
O21   C64   A    
O8    V2    S    
C24   F8    S    
N4    C46   A    
C9    C12   A    
O20   C61   A    
O27   C64   A    
C45   O17   S    
C53   C58   A    
C19   O13   S    
C57   C58   A    
O7    V1    S    
C27   C32   A    
C21   C22   A    
O22   V3    S    
C17   H19   S    
O9    C4    A    
N2    C26   S    
O27   V4    S    
C4    C5    S    
C13   H18   S    
C5    H11   S    
C51   C52   A    
N2    C20   A    
C33   C37   A    
C30   F3    S    
C45   N4    A    
C46   O18   S    
C47   H13   S    
C48   H5    S    
O19   V4    S    
C59   H17   S    
C50   C51   A    
C55   C56   A    
C35   C38   A    
C12   C13   A    
C61   O24   A    
C16   C20   A    
C20   O14   S    
C38   C39   A    
O2    C1    A    
C47   C48   A    
C6    C63   S    
C1    C49   S    
C16   C17   A    
C27   C28   A    
C33   O15   S    
C10   C11   A    
C34   O16   S    
N3    C34   A    
C29   C30   A    
C54   H16   S    
C10   C15   A    
C53   C54   A    
O3    C4    A    
C22   F7    S    
O1    V2    S    
C39   H4    S    
C21   H2    S    
O22   C62   A    
O6    V2    S    
O9    V2    S    
C23   C24   A    
C50   H6    S    
C38   F5    S    
C22   C23   A    
O2    V1    S    
C6    H14   S    
C14   C15   A    
C24   C25   A    
O4    C2    A    
C31   F4    S    
C36   C41   A    
C27   F2    S    
O26   V4    S    
C33   N3    A    
C28   H3    S    
C14   C19   A    
O1    C2    A    
N4    C52   S    
N1    C32   S    
O5    V1    S    
C3    C29   S    
O8    C3    A    
C42   C46   A    
O26   C63   A    
O23   C63   A    
O25   V4    S    
C42   C43   A    
O20   V3    S    
C7    C11   A    
O7    V2    S    
C11   C18   A    
C30   C31   A    
O3    V1    S    
V1    O10   S    
V4    O28   S    
C19   N2    A    
V3    O28   S    
C49   C50   A    
C47   C52   A    
C35   C36   A    
C2    C59   S    
C28   C29   A    
C59   C60   D    
C23   C64   S    
C39   C40   A    
C36   C37   A    
O21   V3    S    
C41   C42   A    
C25   C26   A    
O4    V1    S    
N1    C8    A    
C43   C44   A    
C44   H12   S    
O25   V3    S    
C56   C57   A    
C43   F6    S    
C9    C10   A    
O24   V4    S    
C7    O11   S    
C18   H20   S    
C57   H9    S    
C8    C9    A    
C55   C62   S    
C60   C61   S    
O19   C62   A    
C53   H15   S    
