data_mof_unit_65799.cif
_audit_creation_date              2012-12-10T18:16:56-0500
_audit_creation_method            fapswitch 2.2
_symmetry_space_group_name_H-M    P1
_symmetry_Int_Tables_number       1
_space_group_crystal_system       triclinic
_cell_length_a                    29.177681
_cell_length_b                    29.177682
_cell_length_c                    38.77487
_cell_angle_alpha                 89.999978
_cell_angle_beta                  89.999967
_cell_angle_gamma                 90.0
_cell_volume                      33010.4852901

loop_
_atom_site_label
_atom_site_type_symbol
_atom_type_description
_atom_site_fract_x
_atom_site_fract_y
_atom_site_fract_z
_atom_type_partial_charge
C1    C     C_R   0.500000 0.913190 0.000000 0.875956
C2    C     C_1   0.229405 0.500000 0.000000 0.015740
C3    C     C_R   1.000000 0.500000 0.894210 -0.366031
C4    C     C_R   1.000000 0.500000 0.605790 -0.366027
C5    C     C_R   0.500000 1.000000 0.605790 -0.366029
C6    C     C_R   0.000000 0.500000 0.394210 -0.366029
C7    C     C_R   0.500000 1.000000 0.394210 -0.366029
C8    C     C_R   0.500000 1.000000 0.284652 0.256365
C9    C     C_R   1.000000 0.500000 0.284652 0.256363
C10   C     C_R   0.500000 1.000000 0.715348 0.256364
C11   C     C_R   1.000000 0.500000 0.715348 0.256366
C12   C     C_R   1.000000 0.500000 0.784652 0.256362
C13   C     C_1   0.500000 0.229405 0.000000 0.015740
C14   C     C_R   0.500000 1.000000 0.784652 0.256365
C15   C     C_R   0.000000 0.500000 0.215348 0.256364
C16   C     C_R   0.500000 1.000000 0.215348 0.256364
C17   C     C_1   0.500000 0.862564 0.000000 -0.221885
C18   C     C_1   0.137436 0.500000 0.000000 -0.221885
C19   C     C_1   0.500000 0.137436 0.000000 -0.221886
C20   C     C_1   0.862564 0.500000 0.000000 -0.221885
C21   C     C_1   1.000000 0.362564 0.500000 -0.221886
C22   C     C_1   0.637436 0.000000 0.500000 -0.221885
C23   C     C_1   0.000000 0.637436 0.500000 -0.221886
C24   C     C_1   0.770595 0.500000 1.000000 0.015740
C25   C     C_1   0.362564 1.000000 0.500000 -0.221885
C26   C     C_1   0.500000 0.820384 1.000000 0.005659
C27   C     C_1   0.179616 0.500000 0.000000 0.005659
C28   C     C_1   0.500000 0.179615 0.000000 0.005659
C29   C     C_1   0.820384 0.500000 0.000000 0.005659
C30   C     C_1   1.000000 0.320384 0.500000 0.005659
C31   C     C_1   0.679616 0.000000 0.500000 0.005659
C32   C     C_1   0.000000 0.679615 0.500000 0.005659
C33   C     C_1   0.320384 0.000000 0.500000 0.005659
C34   C     C_3   0.552912 0.908044 0.099948 -0.182905
C35   C     C_1   1.000000 0.270595 0.500000 0.015740
C36   C     C_3   0.091956 0.552911 0.099947 -0.182907
C37   C     C_3   0.447087 0.091956 0.099947 -0.182904
C38   C     C_3   0.908044 0.447089 0.099948 -0.182902
C39   C     C_3   0.552910 0.091957 0.900052 -0.182903
C40   C     C_3   0.091954 0.447085 0.900052 -0.182900
C41   C     C_3   0.447090 0.908043 0.900053 -0.182905
C42   C     C_3   0.908046 0.552915 0.900052 -0.182900
C43   C     C_3   0.052908 0.408042 0.599947 -0.182909
C44   C     C_3   0.591956 0.052912 0.599948 -0.182903
C45   C     C_3   0.947092 0.591958 0.599947 -0.182910
C46   C     C_1   0.729405 0.000000 0.500000 0.015740
C47   C     C_3   0.408044 0.947088 0.599948 -0.182902
C48   C     C_3   0.052910 0.591957 0.400052 -0.182901
C49   C     C_3   0.591956 0.947089 0.400052 -0.182907
C50   C     C_3   0.947090 0.408043 0.400053 -0.182903
C51   C     C_3   0.408043 0.052911 0.400053 -0.182906
C52   C     C_2   0.574674 0.956205 0.179301 0.480375
C53   C     C_2   0.043797 0.574673 0.179301 0.480374
C54   C     C_2   0.425326 0.043795 0.179301 0.480376
C55   C     C_2   0.956203 0.425327 0.179301 0.480375
C56   C     C_2   0.574673 0.043797 0.820699 0.480376
C57   C     C_1   0.000000 0.729405 0.500000 0.015740
C58   C     C_2   0.043792 0.425324 0.820699 0.480373
C59   C     C_2   0.425327 0.956203 0.820699 0.480375
C60   C     C_2   0.956208 0.574676 0.820699 0.480373
C61   C     C_2   0.074671 0.456200 0.679301 0.480378
C62   C     C_2   0.543796 0.074674 0.679301 0.480374
C63   C     C_2   0.925328 0.543800 0.679301 0.480378
C64   C     C_2   0.456204 0.925326 0.679301 0.480374
C65   C     C_2   0.074673 0.543797 0.320699 0.480373
C66   C     C_2   0.543797 0.925327 0.320699 0.480374
C67   C     C_2   0.925327 0.456203 0.320699 0.480374
C68   C     C_1   0.270595 0.000000 0.500000 0.015740
C69   C     C_2   0.456203 0.074673 0.320699 0.480375
C70   C     C_1   0.500000 0.728411 1.000000 0.016191
C71   C     C_1   0.271589 0.500000 0.000000 0.016191
C72   C     C_1   0.500000 0.271589 0.000000 0.016191
C73   C     C_R   0.086809 0.500000 0.000000 0.875955
C74   C     C_1   0.728411 0.500000 1.000000 0.016191
C75   C     C_1   1.000000 0.228411 0.500000 0.016191
C76   C     C_1   0.771589 0.000000 0.500000 0.016191
C77   C     C_1   0.000000 0.771589 0.500000 0.016191
C78   C     C_1   0.228411 0.000000 0.500000 0.016191
C79   C     C_1   0.500000 0.678617 1.000000 0.013418
C80   C     C_1   0.321382 0.500000 0.000000 0.013418
C81   C     C_1   0.500000 0.321382 0.000000 0.013418
C82   C     C_1   0.678618 0.500000 1.000000 0.013418
C83   C     C_1   1.000000 0.178617 0.500000 0.013418
C84   C     C_R   0.500000 0.086809 0.000000 0.875955
C85   C     C_1   0.821382 0.000000 0.500000 0.013418
C86   C     C_1   0.000000 0.821382 0.500000 0.013418
C87   C     C_1   0.178617 0.000000 0.500000 0.013418
C88   C     C_1   0.500000 0.636432 1.000000 -0.192058
C89   C     C_1   0.363568 0.500000 0.000000 -0.192058
C90   C     C_1   0.500000 0.363568 0.000000 -0.192058
C91   C     C_1   0.636432 0.500000 1.000000 -0.192058
C92   C     C_1   1.000000 0.136432 0.500000 -0.192058
C93   C     C_1   0.863568 0.000000 0.500000 -0.192058
C94   C     C_1   0.000000 0.863568 0.500000 -0.192058
C95   C     C_R   0.913191 0.500000 0.000000 0.875956
C96   C     C_1   0.136432 0.000000 0.500000 -0.192058
C97   C     C_R   0.414211 0.500000 0.000000 0.878943
C98   C     C_R   0.500000 0.414211 0.000000 0.878943
C99   C     C_R   0.585789 0.500000 0.000000 0.878942
C100  C     C_R   0.500000 0.585789 0.000000 0.878942
C101  C     C_R   0.914211 1.000000 0.500000 0.878943
C102  C     C_R   1.000000 0.914211 0.500000 0.878943
C103  C     C_R   0.085789 0.000000 0.500000 0.878942
C104  C     C_R   0.000000 0.085789 0.500000 0.878942
C105  C     C_R   0.500000 0.000000 0.068078 0.967409
C106  C     C_R   1.000000 0.413190 0.500000 0.875956
C107  C     C_R   1.000000 0.500000 0.068078 0.967410
C108  C     C_R   0.500000 1.000000 0.931922 0.967411
C109  C     C_R   0.000000 0.500000 0.931922 0.967408
C110  C     C_R   1.000000 0.500000 0.568078 0.967411
C111  C     C_R   0.500000 0.000000 0.568078 0.967409
C112  C     C_R   0.000000 0.500000 0.431922 0.967410
C113  C     C_R   0.500000 1.000000 0.431922 0.967410
C114  C     C_R   0.534978 0.976827 0.123722 0.466917
C115  C     C_R   0.023173 0.534978 0.123722 0.466917
C116  C     C_R   0.465021 0.023172 0.123722 0.466916
C117  C     C_R   0.586809 0.000000 0.500000 0.875955
C118  C     C_R   0.976827 0.465022 0.123722 0.466916
C119  C     C_R   0.534978 0.023173 0.876278 0.466917
C120  C     C_R   0.023171 0.465021 0.876278 0.466917
C121  C     C_R   0.465022 0.976827 0.876278 0.466919
C122  C     C_R   0.976828 0.534979 0.876278 0.466918
C123  C     C_R   0.034977 0.476826 0.623722 0.466915
C124  C     C_R   0.523173 0.034978 0.623722 0.466917
C125  C     C_R   0.965023 0.523174 0.623722 0.466917
C126  C     C_R   0.476827 0.965022 0.623722 0.466916
C127  C     C_R   0.034978 0.523173 0.376278 0.466916
C128  C     C_R   0.000000 0.586809 0.500000 0.875955
C129  C     C_R   0.523173 0.965022 0.376278 0.466917
C130  C     C_R   0.965022 0.476827 0.376278 0.466917
C131  C     C_R   0.476827 0.034978 0.376278 0.466918
C132  C     C_R   0.536276 0.978326 0.159965 -0.104812
C133  C     C_R   0.021674 0.536276 0.159965 -0.104812
C134  C     C_R   0.463723 0.021673 0.159965 -0.104813
C135  C     C_R   0.978326 0.463724 0.159965 -0.104813
C136  C     C_R   0.536276 0.021674 0.840035 -0.104813
C137  C     C_R   0.021672 0.463723 0.840035 -0.104813
C138  C     C_R   0.463724 0.978325 0.840035 -0.104812
C139  C     C_R   0.413190 1.000000 0.500000 0.875956
C140  C     C_R   0.978328 0.536277 0.840035 -0.104813
C141  C     C_R   0.036275 0.478325 0.659965 -0.104813
C142  C     C_R   0.521674 0.036276 0.659965 -0.104813
C143  C     C_R   0.963724 0.521675 0.659965 -0.104813
C144  C     C_R   0.478326 0.963723 0.659965 -0.104812
C145  C     C_R   0.036276 0.521674 0.340035 -0.104812
C146  C     C_R   0.521674 0.963724 0.340035 -0.104813
C147  C     C_R   0.963724 0.478326 0.340035 -0.104813
C148  C     C_R   0.478326 0.036276 0.340035 -0.104813
C149  C     C_R   0.500000 1.000000 0.177822 -0.212562
C150  C     C_1   0.500000 0.770595 1.000000 0.015740
C151  C     C_R   0.000000 0.500000 0.177822 -0.212563
C152  C     C_R   0.500000 1.000000 0.822178 -0.212562
C153  C     C_R   1.000000 0.500000 0.822178 -0.212561
C154  C     C_R   1.000000 0.500000 0.677822 -0.212562
C155  C     C_R   0.500000 1.000000 0.677822 -0.212562
C156  C     C_R   1.000000 0.500000 0.322178 -0.212562
C157  C     C_R   0.500000 1.000000 0.322178 -0.212562
C158  C     C_R   0.500000 1.000000 0.105790 -0.366029
C159  C     C_R   0.000000 0.500000 0.105790 -0.366028
C160  C     C_R   0.500000 1.000000 0.894210 -0.366029
H1    H     H_    0.521263 0.907442 0.083936 0.110193
H2    H     H_    0.907442 0.478738 0.083936 0.110192
H3    H     H_    0.889713 0.453060 0.124720 0.153753
H4    H     H_    0.889053 0.420205 0.085636 0.195258
H5    H     H_    0.521261 0.092559 0.916065 0.110192
H6    H     H_    0.546939 0.110287 0.875280 0.153754
H7    H     H_    0.579793 0.110947 0.914365 0.195258
H8    H     H_    0.092558 0.478734 0.916064 0.110192
H9    H     H_    0.110285 0.453055 0.875279 0.153756
H10   H     H_    0.110943 0.420201 0.914364 0.195258
H11   H     H_    0.478739 0.907441 0.916065 0.110192
H12   H     H_    0.546942 0.889714 0.124720 0.153755
H13   H     H_    0.453061 0.889713 0.875280 0.153755
H14   H     H_    0.420206 0.889053 0.914365 0.195259
H15   H     H_    0.907442 0.521266 0.916064 0.110192
H16   H     H_    0.889715 0.546945 0.875279 0.153756
H17   H     H_    0.889057 0.579799 0.914364 0.195258
H18   H     H_    0.021259 0.407441 0.583935 0.110193
H19   H     H_    0.046937 0.389711 0.624720 0.153752
H20   H     H_    0.079791 0.389051 0.585635 0.195259
H21   H     H_    0.592558 0.021263 0.583936 0.110192
H22   H     H_    0.610287 0.046941 0.624720 0.153754
H23   H     H_    0.579796 0.889054 0.085636 0.195258
H24   H     H_    0.610946 0.079795 0.585635 0.195258
H25   H     H_    0.978741 0.592559 0.583935 0.110193
H26   H     H_    0.953063 0.610288 0.624720 0.153753
H27   H     H_    0.920209 0.610949 0.585635 0.195259
H28   H     H_    0.407442 0.978737 0.583936 0.110192
H29   H     H_    0.389713 0.953059 0.624720 0.153754
H30   H     H_    0.389054 0.920204 0.585636 0.195258
H31   H     H_    0.021261 0.592558 0.416065 0.110191
H32   H     H_    0.046939 0.610287 0.375280 0.153755
H33   H     H_    0.079794 0.610947 0.414365 0.195258
H34   H     H_    0.092558 0.521262 0.083935 0.110193
H35   H     H_    0.592558 0.978738 0.416064 0.110193
H36   H     H_    0.610287 0.953060 0.375280 0.153754
H37   H     H_    0.610947 0.920205 0.414364 0.195259
H38   H     H_    0.978739 0.407441 0.416065 0.110192
H39   H     H_    0.953061 0.389712 0.375280 0.153755
H40   H     H_    0.920206 0.389053 0.414365 0.195258
H41   H     H_    0.407442 0.021262 0.416064 0.110193
H42   H     H_    0.389713 0.046940 0.375280 0.153754
H43   H     H_    0.389053 0.079795 0.414365 0.195259
H44   H     H_    0.571609 0.949306 0.206686 0.058999
H45   H     H_    0.110287 0.546940 0.124720 0.153755
H46   H     H_    0.050697 0.571608 0.206685 0.058999
H47   H     H_    0.428390 0.050694 0.206686 0.058999
H48   H     H_    0.949303 0.428392 0.206685 0.058999
H49   H     H_    0.571608 0.050696 0.793314 0.058999
H50   H     H_    0.050689 0.428388 0.793314 0.058999
H51   H     H_    0.428392 0.949303 0.793315 0.058999
H52   H     H_    0.949311 0.571613 0.793314 0.058999
H53   H     H_    0.071605 0.449299 0.706685 0.058998
H54   H     H_    0.550695 0.071609 0.706686 0.058999
H55   H     H_    0.928394 0.550701 0.706685 0.058998
H56   H     H_    0.110947 0.579794 0.085635 0.195259
H57   H     H_    0.449305 0.928391 0.706686 0.058999
H58   H     H_    0.071609 0.550695 0.293314 0.058999
H59   H     H_    0.550696 0.928392 0.293315 0.058999
H60   H     H_    0.928391 0.449305 0.293314 0.058999
H61   H     H_    0.449304 0.071608 0.293315 0.058998
H62   H     H_    0.478736 0.092558 0.083935 0.110192
H63   H     H_    0.453058 0.110286 0.124720 0.153754
H64   H     H_    0.420204 0.110946 0.085635 0.195258
N1    N     N_R   0.528408 0.028383 0.232873 -0.160444
N2    N     N_R   0.471617 0.028408 0.732873 -0.160444
N3    N     N_R   0.971584 0.471625 0.732873 -0.160444
N4    N     N_R   0.528383 0.971592 0.732873 -0.160444
N5    N     N_R   0.028406 0.471615 0.267127 -0.160443
N6    N     N_R   0.471618 0.971590 0.267127 -0.160444
N7    N     N_R   0.971594 0.528385 0.267127 -0.160443
N8    N     N_R   0.528381 0.028410 0.267127 -0.160444
N9    N     N_R   0.971620 0.528411 0.232873 -0.160444
N10   N     N_R   0.471592 0.971617 0.232873 -0.160444
N11   N     N_R   0.028380 0.471589 0.232873 -0.160444
N12   N     N_R   0.528410 0.971618 0.767127 -0.160444
N13   N     N_R   0.971610 0.471598 0.767127 -0.160443
N14   N     N_R   0.471590 0.028381 0.767127 -0.160444
N15   N     N_R   0.028389 0.528402 0.767127 -0.160443
N16   N     N_R   0.028416 0.528375 0.732873 -0.160444
O1    O     O_R   0.535610 0.936800 0.000040 -0.598272
O2    O     O_R   0.563200 0.035610 0.500040 -0.598271
O3    O     O_R   0.964390 0.563200 0.500040 -0.598270
O4    O     O_R   0.436800 0.964390 0.500040 -0.598271
O5    O     O_R   0.035610 0.563200 0.499960 -0.598271
O6    O     O_R   0.563200 0.964390 0.499960 -0.598271
O7    O     O_R   0.964390 0.436800 0.499960 -0.598271
O8    O     O_R   0.436800 0.035610 0.499960 -0.598271
O9    O     O_R   0.535610 0.999940 0.050970 -0.576656
O10   O     O_R   0.000060 0.535610 0.050970 -0.576657
O11   O     O_R   0.464390 0.000060 0.050970 -0.576656
O12   O     O_R   0.063200 0.535610 0.000040 -0.598270
O13   O     O_R   0.999940 0.464390 0.050970 -0.576656
O14   O     O_R   0.535610 0.000060 0.949030 -0.576657
O15   O     O_R   0.000060 0.464390 0.949030 -0.576655
O16   O     O_R   0.464390 0.999940 0.949030 -0.576656
O17   O     O_R   0.999940 0.535610 0.949030 -0.576655
O18   O     O_R   0.035610 0.499940 0.550970 -0.576657
O19   O     O_R   0.500060 0.035610 0.550970 -0.576657
O20   O     O_R   0.964390 0.500060 0.550970 -0.576657
O21   O     O_R   0.499940 0.964390 0.550970 -0.576656
O22   O     O_R   0.035610 0.500060 0.449030 -0.576657
O23   O     O_R   0.464390 0.063200 0.000040 -0.598271
O24   O     O_R   0.500060 0.964390 0.449030 -0.576656
O25   O     O_R   0.964390 0.499940 0.449030 -0.576656
O26   O     O_R   0.499940 0.035610 0.449030 -0.576657
O27   O     O_R   0.436800 0.499970 0.028810 -0.590207
O28   O     O_R   0.500030 0.436800 0.028810 -0.590207
O29   O     O_R   0.563200 0.500030 0.028810 -0.590208
O30   O     O_R   0.499970 0.563200 0.028810 -0.590208
O31   O     O_R   0.436800 0.500030 0.971190 -0.590207
O32   O     O_R   0.500030 0.563200 0.971190 -0.590207
O33   O     O_R   0.563200 0.499970 0.971190 -0.590207
O34   O     O_R   0.936800 0.464390 0.000040 -0.598270
O35   O     O_R   0.499970 0.436800 0.971190 -0.590207
O36   O     O_R   0.936800 0.999970 0.528810 -0.590207
O37   O     O_R   0.000030 0.936800 0.528810 -0.590207
O38   O     O_R   0.063200 0.000030 0.528810 -0.590208
O39   O     O_R   0.999970 0.063200 0.528810 -0.590208
O40   O     O_R   0.936800 0.000030 0.471190 -0.590207
O41   O     O_R   0.000030 0.063200 0.471190 -0.590207
O42   O     O_R   0.063200 0.999970 0.471190 -0.590207
O43   O     O_R   0.999970 0.936800 0.471190 -0.590207
O44   O     O_3   0.568409 0.953248 0.105604 -0.538780
O45   O     O_R   0.535610 0.063200 0.999960 -0.598271
O46   O     O_3   0.046753 0.568408 0.105604 -0.538781
O47   O     O_3   0.431591 0.046751 0.105604 -0.538780
O48   O     O_3   0.953248 0.431591 0.105604 -0.538781
O49   O     O_3   0.568408 0.046753 0.894396 -0.538781
O50   O     O_3   0.046749 0.431589 0.894396 -0.538780
O51   O     O_3   0.431592 0.953247 0.894396 -0.538781
O52   O     O_3   0.953250 0.568411 0.894396 -0.538781
O53   O     O_3   0.068407 0.453246 0.605604 -0.538781
O54   O     O_3   0.546752 0.068409 0.605604 -0.538781
O55   O     O_3   0.931593 0.546754 0.605604 -0.538781
O56   O     O_R   0.063200 0.464390 0.999960 -0.598272
O57   O     O_3   0.453248 0.931591 0.605604 -0.538780
O58   O     O_3   0.068408 0.546753 0.394396 -0.538781
O59   O     O_3   0.546752 0.931591 0.394396 -0.538780
O60   O     O_3   0.931592 0.453247 0.394396 -0.538781
O61   O     O_3   0.453247 0.068408 0.394396 -0.538781
O62   O     O_2   0.610588 0.945955 0.165101 -0.501819
O63   O     O_2   0.054046 0.610587 0.165101 -0.501818
O64   O     O_2   0.389412 0.054045 0.165101 -0.501820
O65   O     O_2   0.945954 0.389413 0.165101 -0.501818
O66   O     O_2   0.610586 0.054047 0.834899 -0.501819
O67   O     O_R   0.464390 0.936800 0.999960 -0.598270
O68   O     O_2   0.054042 0.389411 0.834899 -0.501820
O69   O     O_2   0.389414 0.945952 0.834899 -0.501818
O70   O     O_2   0.945958 0.610589 0.834899 -0.501820
O71   O     O_2   0.110585 0.445951 0.665101 -0.501818
O72   O     O_2   0.554046 0.110587 0.665101 -0.501819
O73   O     O_2   0.889414 0.554049 0.665101 -0.501818
O74   O     O_2   0.445954 0.889413 0.665101 -0.501818
O75   O     O_2   0.110586 0.554048 0.334899 -0.501819
O76   O     O_2   0.554046 0.889413 0.334899 -0.501818
O77   O     O_2   0.889414 0.445952 0.334899 -0.501820
O78   O     O_R   0.936800 0.535610 0.999960 -0.598272
O79   O     O_2   0.445954 0.110587 0.334899 -0.501818
O80   O     O_R   0.035610 0.436800 0.500040 -0.598270
Zn1   Zn    Zn3+2 0.547570 0.000000 0.000000 1.043537
Zn2   Zn    Zn3+2 0.500000 0.500000 0.961560 0.992231
Zn3   Zn    Zn3+2 1.000000 1.000000 0.538440 0.992230
Zn4   Zn    Zn3+2 1.000000 1.000000 0.461560 0.992231
Zn5   Zn    Zn3+2 0.000000 0.547570 0.000000 1.043536
Zn6   Zn    Zn3+2 0.452430 0.000000 0.000000 1.043537
Zn7   Zn    Zn3+2 0.000000 0.452430 0.000000 1.043537
Zn8   Zn    Zn3+2 0.047570 0.500000 0.500000 1.043537
Zn9   Zn    Zn3+2 0.500000 0.047570 0.500000 1.043537
Zn10  Zn    Zn3+2 0.952430 0.500000 0.500000 1.043537
Zn11  Zn    Zn3+2 0.500000 0.952430 0.500000 1.043537
Zn12  Zn    Zn3+2 0.500000 0.500000 0.038440 0.992230

loop_
_geom_bond_atom_site_label_1
_geom_bond_atom_site_label_2
_ccdc_geom_bond_type
C41   H14   S    
C34   O44   S    
O36   Zn3   S    
O6    Zn11  S    
C70   C150  T    
C36   O46   S    
C34   H1    S    
C15   C151  S    
C50   H38   S    
C146  C157  A    
C55   H48   S    
O33   Zn2   S    
C4    C125  A    
C67   H60   S    
C6    C127  A    
C60   O70   D    
O26   Zn9   S    
C141  C154  A    
C61   O71   D    
C54   C134  S    
C111  O21   A    
C50   O60   S    
C11   C154  S    
C9    C156  S    
O15   Zn7   S    
C5    C126  A    
C16   C149  S    
O20   Zn10  S    
C106  O80   A    
C73   O12   A    
C44   O54   S    
O37   Zn3   S    
C62   H54   S    
O41   Zn4   S    
O1    Zn1   S    
C32   C57   S    
O18   Zn8   S    
C8    C157  S    
C40   H9    S    
C136  C152  A    
C41   O51   S    
O16   Zn6   S    
C43   H20   S    
C52   C132  S    
C53   C133  S    
C93   C101  S    
C59   O69   D    
C143  C154  A    
C49   H35   S    
O17   Zn5   S    
C82   C91   T    
C130  O60   S    
C39   H5    S    
C110  O20   A    
C66   H59   S    
C104  O41   A    
C105  C158  S    
O29   Zn12  S    
C123  C141  A    
O2    Zn9   S    
C137  C153  A    
C60   H52   S    
C127  C145  A    
C81   C90   T    
C43   O53   S    
C67   C147  S    
O32   Zn2   S    
C2    C71   T    
C70   C79   S    
C102  O43   A    
C13   C72   T    
C64   C144  S    
C119  C136  A    
C119  O49   S    
C56   H49   S    
C42   H16   S    
C127  O58   S    
O31   Zn2   S    
C45   H25   S    
N6    N10   A    
C69   H61   S    
O80   Zn8   S    
C36   H34   S    
C66   C146  S    
C92   C104  S    
O13   Zn7   S    
C44   H21   S    
C23   C128  S    
C78   C87   S    
C43   H18   S    
O21   Zn11  S    
O56   Zn7   S    
C48   H33   S    
C39   O49   S    
C101  O40   A    
C6    C130  A    
C37   O47   S    
C38   O48   S    
C49   H37   S    
C117  O6    A    
C41   H11   S    
C95   O34   A    
C64   H57   S    
C128  O5    A    
C110  O18   A    
C62   O72   D    
C49   O59   S    
C48   H31   S    
C113  O26   A    
C85   C93   T    
C97   O27   A    
C98   O28   A    
C31   C46   S    
O67   Zn6   S    
C106  O7    A    
C21   C106  S    
C51   H42   S    
C61   H53   S    
C62   C142  S    
C124  O54   S    
C56   C136  S    
C59   H51   S    
N1    N8    A    
C48   H32   S    
C111  O19   A    
C37   H63   S    
C133  C151  A    
C51   O61   S    
O40   Zn4   S    
C45   H27   S    
C59   C138  S    
C11   N16   A    
C134  C149  A    
C129  O59   S    
O24   Zn11  S    
C63   O73   D    
O30   Zn12  S    
C116  C158  A    
C53   H46   S    
C34   H23   S    
C13   C28   S    
C19   C28   T    
C55   O65   D    
C94   C102  S    
C60   C140  S    
C61   C141  S    
C38   H3    S    
C18   C73   S    
C69   O79   D    
C102  O37   A    
C123  O53   S    
C14   N12   A    
C69   C148  S    
C41   H13   S    
C107  O10   A    
C108  O14   A    
C130  C147  A    
C7    C131  A    
C131  O61   S    
C10   C155  S    
C50   H39   S    
C65   O75   D    
C66   O76   D    
C1    C17   S    
C47   H30   S    
C122  C140  A    
C36   H56   S    
O8    Zn9   S    
O14   Zn1   S    
C125  C143  A    
C76   C85   S    
C126  C144  A    
C148  C157  A    
O38   Zn3   S    
C11   N3    A    
C14   C152  S    
C63   C143  S    
C103  O38   A    
C91   C99   S    
C112  O25   A    
C33   C68   S    
C25   C33   T    
C84   O45   A    
C67   O77   D    
C45   O55   S    
N15   N16   A    
C120  O50   S    
C40   H10   S    
C126  O57   S    
C100  O30   A    
C1    O67   A    
C5    C124  A    
C43   H19   S    
C73   O56   A    
C25   C139  S    
O27   Zn12  S    
C48   O58   S    
C116  C134  A    
O4    Zn11  S    
C107  O13   A    
C116  O47   S    
O39   Zn3   S    
C80   C89   T    
C24   C29   S    
C114  C158  A    
O43   Zn4   S    
C125  O55   S    
C145  C156  A    
C121  C160  A    
C101  O36   A    
C40   O50   S    
C2    C27   S    
C103  O42   A    
C118  O48   S    
C72   C81   S    
C140  C153  A    
C117  O2    A    
C108  O16   A    
C132  C149  A    
C118  C159  A    
C74   C82   S    
C139  O8    A    
C104  O39   A    
O9    Zn1   S    
C79   C88   T    
C51   H43   S    
C68   C78   T    
C16   N1    A    
C57   C77   T    
C26   C150  S    
C53   O63   D    
C14   N14   A    
C97   O31   A    
C115  C133  A    
C138  C152  A    
C99   O29   A    
C115  C159  A    
C52   H44   S    
C113  O24   A    
C121  O51   S    
N5    N11   A    
O78   Zn5   S    
C52   O62   D    
C16   N10   A    
C122  O52   S    
N7    N9    A    
C147  C156  A    
C129  C146  A    
C88   C100  S    
O45   Zn1   S    
C12   N13   A    
O3    Zn10  S    
C44   H22   S    
C34   H12   S    
C100  O32   A    
O34   Zn7   S    
C4    C110  S    
C6    C112  S    
C64   O74   D    
C49   H36   S    
C21   C30   T    
O42   Zn4   S    
C23   C32   T    
C39   H6    S    
C105  O9    A    
C56   O66   D    
C75   C83   S    
C3    C109  S    
C135  C151  A    
C36   H45   S    
C7    C129  A    
C98   O35   A    
C96   C103  S    
C15   N11   A    
C128  O3    A    
C120  C137  A    
C42   H17   S    
C95   O78   A    
C63   H55   S    
C118  C135  A    
C51   H41   S    
C22   C117  S    
N2    N14   A    
C12   C153  S    
O23   Zn6   S    
C46   C76   T    
C99   O33   A    
O22   Zn8   S    
C83   C92   T    
C35   C75   T    
C30   C35   S    
C17   C26   T    
C47   O57   S    
C37   H62   S    
C42   H15   S    
C65   H58   S    
C45   H26   S    
C115  O46   S    
N3    N13   A    
O35   Zn2   S    
C9    N5    A    
C58   O68   D    
C86   C94   T    
C8    N6    A    
C12   N15   A    
C119  C160  A    
C84   O23   A    
C142  C155  A    
C44   H24   S    
C3    C122  A    
C38   H4    S    
C10   N4    A    
C124  C142  A    
C71   C80   S    
C20   C29   T    
C58   H50   S    
C42   O52   S    
C40   H8    S    
C22   C31   T    
C105  O11   A    
C54   O64   D    
C50   H40   S    
C5    C111  S    
C109  O15   A    
C4    C123  A    
C89   C97   S    
C121  C138  A    
C47   H29   S    
O11   Zn6   S    
C87   C96   T    
C15   N9    A    
C131  C148  A    
C139  O4    A    
O5    Zn8   S    
C1    O1    A    
C58   C137  S    
C114  O44   S    
C20   C95   S    
C77   C86   S    
O28   Zn12  S    
O25   Zn10  S    
C65   C145  S    
C19   C84   S    
C114  C132  A    
C18   C27   T    
C37   H64   S    
C107  C159  S    
C108  C160  S    
C9    N7    A    
C7    C113  S    
C144  C155  A    
C8    N8    A    
C24   C74   T    
O7    Zn10  S    
C55   C135  S    
O10   Zn5   S    
C109  O17   A    
O19   Zn9   S    
N4    N12   A    
C3    C120  A    
C39   H7    S    
C38   H2    S    
C54   H47   S    
C10   N2    A    
C47   H28   S    
O12   Zn5   S    
C90   C98   S    
C112  O22   A    
