data_mof_unit_40870.cif
_audit_creation_date              2012-12-10T17:43:40-0500
_audit_creation_method            fapswitch 2.2
_symmetry_space_group_name_H-M    P1
_symmetry_Int_Tables_number       1
_space_group_crystal_system       triclinic
_cell_length_a                    14.990374
_cell_length_b                    10.520677
_cell_length_c                    9.899323
_cell_angle_alpha                 91.11567
_cell_angle_beta                  89.829577
_cell_angle_gamma                 91.749369
_cell_volume                      1560.18327982

loop_
_atom_site_label
_atom_site_type_symbol
_atom_type_description
_atom_site_fract_x
_atom_site_fract_y
_atom_site_fract_z
_atom_type_partial_charge
C1    C     C_R   0.518520 0.264316 0.498397 0.904154
C2    C     C_R   0.184284 0.465312 0.382762 -0.252933
C3    C     C_R   0.230800 0.497441 0.501189 -0.071414
C4    C     C_R   0.326719 0.499257 0.500260 0.888436
C5    C     C_R   0.185748 0.527617 0.620813 -0.213428
C6    C     C_R   0.619302 0.143456 0.720712 -0.153639
C7    C     C_R   0.654451 0.079743 0.829438 -0.023069
C8    C     C_R   0.652674 0.947493 0.829350 -0.065120
C9    C     C_R   0.614221 0.878552 0.721742 -0.180571
C10   C     C_R   0.574336 0.940947 0.613393 0.107323
C11   C     C_R   0.579243 0.075012 0.611255 0.051354
C12   C     C_R   0.907314 0.531000 0.623805 -0.030838
C13   C     C_R   0.550837 0.135539 0.493407 -0.264648
C14   C     C_R   0.547295 0.065261 0.371259 0.405382
C15   C     C_R   0.530241 0.936669 0.377567 -0.284952
C16   C     C_R   0.509770 0.740893 0.501101 0.909710
C17   C     C_R   0.535089 0.875075 0.500963 -0.203358
C18   C     C_R   0.378392 0.340235 0.137784 -0.090108
C19   C     C_R   0.317232 0.263089 0.066482 -0.171636
C20   C     C_R   0.317234 0.262714 0.926675 -0.171277
C21   C     C_R   0.378234 0.339687 0.857435 -0.140849
C22   C     C_R   0.439439 0.421952 0.926414 0.164304
C23   C     C_R   0.952505 0.431281 0.265212 -0.132714
C24   C     C_R   0.439491 0.422072 0.071098 0.204662
C25   C     C_R   0.559133 0.572563 0.072965 -0.072435
C26   C     C_R   0.559514 0.571751 0.929922 -0.093222
C27   C     C_R   0.673265 0.500586 0.499888 0.864539
C28   C     C_R   0.814658 0.532387 0.619597 -0.163901
C29   C     C_R   0.769088 0.500245 0.500347 -0.103269
C30   C     C_R   0.814576 0.466786 0.382654 -0.205903
C31   C     C_R   0.906642 0.464915 0.383292 0.115375
C32   C     C_R   0.953355 0.497171 0.503702 0.004299
C33   C     C_R   0.045027 0.431266 0.264846 -0.174733
C34   C     C_R   0.091985 0.463910 0.382945 0.124102
C35   C     C_R   0.046175 0.496080 0.503189 0.070064
C36   C     C_R   0.093414 0.527793 0.622433 0.036433
C37   C     C_R   0.048220 0.560151 0.741220 -0.302600
C38   C     C_R   0.955232 0.562598 0.743664 0.472980
H1    H     H_    0.776866 0.559264 0.708112 0.224328
H2    H     H_    0.270688 0.200785 0.871308 0.158120
H3    H     H_    0.376210 0.330269 0.750329 0.206974
H4    H     H_    0.778386 0.441354 0.290804 0.186865
H5    H     H_    0.609175 0.628717 0.877914 0.143018
H6    H     H_    0.916830 0.405530 0.173196 0.198265
H7    H     H_    0.079815 0.406036 0.172445 0.159565
H8    H     H_    0.219725 0.440844 0.290677 0.154458
H9    H     H_    0.222496 0.552667 0.712256 0.167268
H10   H     H_    0.085871 0.584263 0.831890 0.196261
H11   H     H_    0.794680 0.525138 0.017941 0.373126
H12   H     H_    0.629692 0.245523 0.719550 0.178800
H13   H     H_    0.705913 0.018803 0.211085 0.359179
H14   H     H_    0.686776 0.133307 0.910927 0.205826
H15   H     H_    0.683984 0.897885 0.910481 0.195655
H16   H     H_    0.622468 0.777417 0.720079 0.158858
H17   H     H_    0.517007 0.884417 0.283953 0.218389
H18   H     H_    0.607485 0.631821 0.127828 0.151609
H19   H     H_    0.377937 0.329641 0.244454 0.193325
H20   H     H_    0.270923 0.201151 0.120141 0.152465
N1    N     N_R   0.499150 0.498800 0.142780 -0.115973
N2    N     N_R   0.499120 0.498720 0.857170 -0.129054
O1    O     O_R   0.500000 0.316780 0.614690 -0.650690
O2    O     O_2   0.851167 0.725476 0.876441 -0.333806
O3    O     O_3   0.830095 0.488584 0.942823 -0.593994
O4    O     O_2   0.506302 0.132171 0.119731 -0.282368
O5    O     O_2   0.631901 0.251233 0.226335 -0.303579
O6    O     O_3   0.655273 0.018829 0.147028 -0.586184
O7    O     O_R   0.499990 0.316750 0.385360 -0.574371
O8    O     O_R   0.367850 0.499980 0.614680 -0.641315
O9    O     O_R   0.367840 0.499960 0.385350 -0.646193
O10   O     O_R   0.500010 0.683250 0.614640 -0.618181
O11   O     O_R   0.500000 0.683220 0.385310 -0.619607
O12   O     O_R   0.632160 0.500040 0.614650 -0.650453
O13   O     O_R   0.632150 0.500020 0.385320 -0.597608
O14   O     O_2   0.969050 0.630050 0.008149 -0.305172
S1    S     S_3+6 0.901839 0.606321 0.897395 -0.020079
S2    S     S_3+6 0.584285 0.123779 0.213467 0.005192
Zn1   Zn    Zn3+2 0.500010 0.500020 0.653130 0.933821
Zn2   Zn    Zn3+2 0.499990 0.499980 0.346870 0.990764

loop_
_geom_bond_atom_site_label_1
_geom_bond_atom_site_label_2
_ccdc_geom_bond_type
H11   O3    S    
C27   C29   S    
C33   H7    S    
C35   C36   A    
C25   H18   S    
C7    C8    A    
C2    H8    S    
C5    H9    S    
C29   C30   A    
O5    S2    D    
C12   C28   A    
C18   C24   A    
C21   C22   A    
C36   C37   A    
C7    H14   S    
C18   C19   A    
C22   N2    A    
C30   C31   A    
C20   H2    S    
C10   C17   A    
C5    C36   A    
C34   C35   A    
O12   Zn1   S    
C19   C20   A    
O1    Zn1   S    
C8    C9    A    
C23   C33   A    
O13   Zn2   S    
C9    C10   A    
C2    C34   A    
C13   C14   A    
C12   C32   A    
O10   Zn1   S    
O9    Zn2   S    
C16   O11   A    
N1    Zn2   S    
C4    O9    A    
C26   H5    S    
C38   S1    S    
C19   H20   S    
N2    Zn1   S    
O14   S1    D    
C32   C35   A    
C16   O10   A    
C6    C11   A    
C4    O8    A    
C16   C17   S    
C28   H1    S    
C23   C31   A    
C25   C26   A    
C23   H6    S    
H13   O6    S    
C14   S2    S    
C37   C38   A    
C18   H19   S    
C31   C32   A    
O6    S2    S    
C33   C34   A    
O4    S2    D    
C6    H12   S    
C37   H10   S    
C21   H3    S    
C22   C24   A    
O2    S1    D    
C1    C13   S    
C3    C4    S    
O8    Zn1   S    
C15   C17   A    
C28   C29   A    
C3    C5    A    
C1    O1    A    
C8    H15   S    
C6    C7    A    
O7    Zn2   S    
C2    C3    A    
C11   C13   A    
O3    S1    S    
C24   N1    A    
C1    O7    A    
C12   C38   A    
C10   C11   A    
C20   C21   A    
C14   C15   A    
C30   H4    S    
C9    H16   S    
C25   N1    A    
C27   O13   A    
C26   N2    A    
O11   Zn2   S    
C27   O12   A    
C15   H17   S    
