data_mof_unit_18065.cif
_audit_creation_date              2012-12-11T14:21:03-0500
_audit_creation_method            fapswitch 2.2
_symmetry_space_group_name_H-M    P1
_symmetry_Int_Tables_number       1
_space_group_crystal_system       triclinic
_cell_length_a                    11.553424
_cell_length_b                    11.555633
_cell_length_c                    19.458813
_cell_angle_alpha                 90.656723
_cell_angle_beta                  90.050734
_cell_angle_gamma                 60.032476
_cell_volume                      2250.39187514

loop_
_atom_site_label
_atom_site_type_symbol
_atom_type_description
_atom_site_fract_x
_atom_site_fract_y
_atom_site_fract_z
_atom_type_partial_charge
C1    C     C_R   0.640683 0.117722 0.598975 0.541249
C2    C     C_1   0.641629 0.703304 0.667747 0.008488
C3    C     C_1   0.127420 0.198093 0.859502 0.010329
C4    C     C_1   0.170805 0.170530 0.727556 -0.029028
C5    C     C_1   0.150382 0.181829 0.798950 -0.028379
C6    C     C_1   0.194213 0.161569 0.667054 0.007664
C7    C     C_1   0.678246 0.190546 0.861074 0.011135
C8    C     C_1   0.658413 0.167613 0.728992 -0.029163
C9    C     C_1   0.665312 0.180584 0.800462 -0.028476
C10   C     C_1   0.653074 0.150318 0.668404 0.006635
C11   C     C_R   0.653878 0.684687 0.191115 -0.003244
C12   C     C_R   0.612708 0.745532 0.598375 0.544315
C13   C     C_R   0.539538 0.704503 0.227570 0.021504
C14   C     C_R   0.557849 0.664322 0.296088 0.025695
C15   C     C_R   0.759345 0.679712 0.299147 -0.138209
C16   C     C_R   0.763054 0.674697 0.227838 -0.150277
C17   C     C_R   0.413518 0.746379 0.196842 0.027888
C18   C     C_R   0.323167 0.717217 0.228842 -0.145651
C19   C     C_R   0.355530 0.650909 0.291554 -0.158284
C20   C     C_R   0.471234 0.625830 0.325453 -0.080985
C21   C     C_R   0.655946 0.674819 0.334286 0.007497
C22   C     C_R   0.139453 0.200328 0.195656 0.002472
C23   C     C_R   0.240263 0.145693 0.597863 0.552381
C24   C     C_R   0.147528 0.297204 0.237070 0.008390
C25   C     C_R   0.124147 0.299227 0.307997 0.026550
C26   C     C_R   0.165545 0.072115 0.298499 -0.154802
C27   C     C_R   0.145049 0.088989 0.227828 -0.141587
C28   C     C_R   0.177258 0.392230 0.210629 -0.093116
C29   C     C_R   0.162240 0.497865 0.251597 -0.174841
C30   C     C_R   0.110278 0.515058 0.317911 -0.146629
C31   C     C_R   0.084754 0.419095 0.346015 0.086136
C32   C     C_R   0.160522 0.175651 0.339033 0.033435
C33   C     C_R   0.660577 0.177795 0.190049 -0.008388
C34   C     C_R   0.646319 0.113702 0.402602 0.535074
C35   C     C_R   0.746934 0.053438 0.220584 0.024365
C36   C     C_R   0.770258 0.053476 0.291369 0.026085
C37   C     C_R   0.565130 0.266205 0.302468 -0.142534
C38   C     C_R   0.566567 0.283061 0.231607 -0.150766
C39   C     C_R   0.824572 0.933652 0.182335 0.027362
C40   C     C_R   0.944808 0.834574 0.209342 -0.137633
C41   C     C_R   0.982444 0.850126 0.275263 -0.157992
C42   C     C_R   0.894610 0.955896 0.317016 -0.083966
C43   C     C_R   0.667982 0.151036 0.333500 -0.001218
C44   C     C_R   0.082371 0.230731 0.928855 0.552351
C45   C     C_R   0.619260 0.734542 0.403167 0.549376
C46   C     C_R   0.683664 0.604882 0.929741 0.559890
C47   C     C_R   0.708072 0.206252 0.930427 0.551426
C48   C     C_R   0.084156 0.235552 0.125683 0.554925
C49   C     C_R   0.680167 0.617424 0.124134 0.564813
C50   C     C_R   0.704149 0.208657 0.125031 0.548531
C51   C     C_R   0.237237 0.143356 0.403403 0.572614
C52   C     C_1   0.670192 0.647074 0.860364 0.013320
C53   C     C_1   0.655116 0.683375 0.728340 -0.028669
C54   C     C_1   0.663489 0.666989 0.799767 -0.028433
Cr1   Cr    Cr6+3 0.404720 0.198220 0.499960 1.056215
Cr2   Cr    Cr6+3 0.698290 0.897110 0.500380 1.072196
Cr3   Cr    Cr6+3 0.396970 0.904720 0.499610 1.035055
Cr4   Cr    Cr6+3 0.926180 0.151990 0.028120 1.062085
Cr5   Cr    Cr6+3 0.921330 0.451820 0.027470 1.045170
Cr6   Cr    Cr6+3 0.626260 0.446870 0.028710 1.045293
H1    H     H_    0.835821 0.688842 0.326636 0.157866
H2    H     H_    0.186515 0.568567 0.230310 0.107139
H3    H     H_    0.090076 0.602563 0.347743 0.133439
H4    H     H_    0.485094 0.343809 0.333027 0.138771
H5    H     H_    0.497002 0.378831 0.209737 0.145698
H6    H     H_    0.009553 0.746997 0.178730 0.104047
H7    H     H_    0.077730 0.778814 0.295396 0.102535
H8    H     H_    0.926661 0.963105 0.368366 0.145289
H9    H     H_    0.852496 0.658405 0.201608 0.149206
H10   H     H_    0.229275 0.744126 0.204328 0.103752
H11   H     H_    0.289485 0.623412 0.316186 0.106604
H12   H     H_    0.491476 0.579065 0.375321 0.134120
H13   H     H_    0.188116 0.977843 0.321000 0.142538
H14   H     H_    0.216402 0.383318 0.159157 0.144538
H15   H     H_    0.135680 0.014150 0.198353 0.150482
O1    O     O_R   0.267740 0.231960 0.575440 -0.490333
O2    O     O_R   0.685970 0.784660 0.430010 -0.476540
O3    O     O_R   0.502530 0.767000 0.423990 -0.524921
O4    O     O_R   0.288330 0.026350 0.429250 -0.502681
O5    O     O_3   0.499990 0.000020 0.499980 -0.263666
O6    O     O_R   0.821500 0.119340 0.952830 -0.495901
O7    O     O_R   0.037130 0.162530 0.957360 -0.487809
O8    O     O_R   0.056440 0.344740 0.951340 -0.506579
O9    O     O_R   0.797900 0.560360 0.957470 -0.488770
O10   O     O_R   0.596130 0.579390 0.952730 -0.498909
O11   O     O_R   0.639060 0.321160 0.958670 -0.499239
O12   O     O_R   0.527280 0.186640 0.570530 -0.497056
O13   O     O_R   0.821240 0.124200 0.104370 -0.505645
O14   O     O_R   0.036890 0.167040 0.097840 -0.486872
O15   O     O_R   0.056180 0.349610 0.102880 -0.526131
O16   O     O_R   0.797660 0.564870 0.097950 -0.494805
O17   O     O_R   0.595880 0.584250 0.104270 -0.506609
O18   O     O_R   0.638830 0.325670 0.099150 -0.503084
O19   O     O_3   0.824590 0.350230 0.028100 -0.264758
O20   O     O_R   0.728090 0.003450 0.576380 -0.500964
O21   O     O_R   0.682970 0.789190 0.570490 -0.480573
O22   O     O_R   0.499290 0.771880 0.575530 -0.508866
O23   O     O_R   0.285330 0.030870 0.569730 -0.495867
O24   O     O_R   0.270980 0.227080 0.423890 -0.504437
O25   O     O_R   0.530280 0.182120 0.430050 -0.502712
O26   O     O_R   0.731330 0.998570 0.424830 -0.517822
C55   C     C_2   0.012558 0.447372 0.412993 0.576765
O27   O     O_2   0.003868 0.536552 0.450946 -0.527862
O28   O     O_R   0.951492 0.374060 0.431949 -0.716049
H16   H     H_    0.904575 0.403417 0.478168 0.335697
C56   C     C_1   0.780794 0.909409 0.116787 0.201135
N1    N     N_1   0.745712 0.889838 0.064418 -0.288098
C57   C     C_1   0.373521 0.823422 0.134422 0.198015
N2    N     N_1   0.341592 0.885053 0.084505 -0.289710

loop_
_geom_bond_atom_site_label_1
_geom_bond_atom_site_label_2
_ccdc_geom_bond_type
C18   H10   S    
C39   C56   S    
C22   C48   S    
C25   C31   A    
Cr2   O20   S    
C41   C42   A    
Cr3   O4    S    
C36   C42   A    
C35   C36   A    
C23   O1    A    
C44   O8    A    
C2    C12   S    
C41   H7    S    
C53   C54   S    
C26   C32   A    
C26   C27   A    
C29   C30   A    
C14   C21   A    
C28   C29   A    
Cr5   O8    S    
Cr2   O26   S    
C44   O7    A    
Cr4   O7    S    
C30   C31   A    
C56   N1    T    
Cr3   O23   S    
C15   C16   A    
C46   C52   S    
C26   H13   S    
C57   N2    T    
Cr2   O21   S    
C18   C19   A    
C1    O12   A    
C19   H11   S    
C19   C20   A    
C8    C9    S    
Cr1   O25   S    
C34   O25   A    
C45   O3    A    
Cr5   O19   S    
C13   C14   A    
C50   O13   A    
C46   O10   A    
Cr6   O18   S    
C25   C32   A    
C28   H14   S    
C40   H6    S    
C30   H3    S    
C42   H8    S    
Cr3   O5    S    
C49   O16   A    
C27   H15   S    
O28   H16   S    
C52   C54   T    
C21   C45   S    
Cr6   O17   S    
C51   O24   A    
C3    C44   S    
C34   O26   A    
C1    C10   S    
C31   C55   S    
C14   C20   A    
C24   C25   A    
C4    C6    T    
Cr4   O6    S    
C39   C40   A    
Cr6   O11   S    
C33   C50   S    
Cr2   O2    S    
Cr5   O15   S    
C7    C47   S    
C37   C43   A    
C35   C39   A    
C47   O11   A    
C32   C51   S    
C37   C38   A    
C11   C49   S    
C11   C16   A    
C38   H5    S    
C1    O20   A    
Cr3   O22   S    
C17   C18   A    
C15   H1    S    
Cr5   O16   S    
Cr5   O9    S    
C55   O28   S    
C12   O22   A    
C46   O9    A    
Cr1   O1    S    
C40   C41   A    
C22   C27   A    
C22   C24   A    
C17   C57   S    
C49   O17   A    
C37   H4    S    
C7    C9    T    
C29   H2    S    
C48   O15   A    
Cr3   O3    S    
C12   O21   A    
C16   H9    S    
C24   C28   A    
C4    C5    S    
C3    C5    T    
C2    C53   T    
Cr4   O13   S    
Cr6   O10   S    
C50   O18   A    
C33   C38   A    
Cr2   O5    S    
C13   C17   A    
C48   O14   A    
Cr4   O19   S    
Cr1   O5    S    
C11   C13   A    
C6    C23   S    
C33   C35   A    
C47   O6    A    
Cr1   O12   S    
C55   O27   D    
Cr4   O14   S    
C51   O4    A    
C15   C21   A    
C23   O23   A    
C8    C10   T    
Cr1   O24   S    
C20   H12   S    
C36   C43   A    
C45   O2    A    
C34   C43   S    
Cr6   O19   S    
