data_mof_unit_24423.cif
_audit_creation_date              2012-10-26T21:20:36-0400
_audit_creation_method            fapswitch 2.2
_symmetry_space_group_name_H-M    P1
_symmetry_Int_Tables_number       1
_space_group_crystal_system       triclinic
_cell_length_a                    15.090841
_cell_length_b                    13.796056
_cell_length_c                    14.345992
_cell_angle_alpha                 89.997954
_cell_angle_beta                  89.959227
_cell_angle_gamma                 89.992603
_cell_volume                      2986.74993101

loop_
_atom_site_label
_atom_site_type_symbol
_atom_type_description
_atom_site_fract_x
_atom_site_fract_y
_atom_site_fract_z
_atom_type_partial_charge
C1    C     C_R   0.329761 0.499983 0.500018 0.554560
C2    C     C_R   0.951437 0.498502 0.499688 0.099093
C3    C     C_R   0.500011 0.500001 0.330837 0.544260
C4    C     C_R   0.499992 0.499999 0.669162 0.544249
C5    C     C_R   0.446568 0.106722 0.563624 0.208607
C6    C     C_R   0.450885 0.892839 0.433197 0.231239
C7    C     C_R   0.553425 0.106680 0.436448 0.208671
C8    C     C_R   0.549069 0.892803 0.566877 0.231198
C9    C     C_R   0.449620 0.209629 0.563063 0.023417
C10   C     C_R   0.453865 0.790690 0.433558 0.040509
C11   C     C_R   0.550388 0.209587 0.436965 0.023480
C12   C     C_R   0.670234 0.499975 0.499961 0.554579
C13   C     C_R   0.546115 0.790655 0.566469 0.040541
C14   C     C_1   0.500017 0.500004 0.228602 -0.047295
C15   C     C_1   0.499991 0.499997 0.771398 -0.047335
C16   C     C_1   0.500018 0.500004 0.143245 -0.046166
C17   C     C_1   0.499995 0.499997 0.856755 -0.046189
C18   C     C_1   0.500012 0.500001 0.042680 -0.004503
C19   C     C_1   0.500004 0.499999 0.957320 -0.004507
C20   C     C_R   0.499992 0.054805 0.500043 0.094470
C21   C     C_R   0.499977 0.945616 0.500044 0.094901
C22   C     C_R   0.094602 0.574011 0.455179 0.249423
C23   C     C_R   0.186911 0.575845 0.458236 -0.145104
C24   C     C_R   0.905142 0.424000 0.453814 0.249862
C25   C     C_R   0.905438 0.573743 0.544868 0.249199
C26   C     C_R   0.094811 0.423693 0.545312 0.250320
C27   C     C_3   0.311207 0.095261 0.640632 -0.009239
C28   C     C_3   0.248684 0.017021 0.677606 -0.249408
C29   C     C_3   0.154688 0.055998 0.689713 -0.490529
C30   C     C_3   0.318046 0.963527 0.396611 -0.001601
C31   C     C_3   0.252151 0.881815 0.375525 -0.280211
C32   C     C_3   0.157744 0.911071 0.401418 -0.473517
C33   C     C_3   0.688843 0.095003 0.359597 -0.009273
C34   C     C_R   0.812450 0.423331 0.457233 -0.150553
C35   C     C_3   0.751290 0.016617 0.322726 -0.249535
C36   C     C_3   0.845376 0.055356 0.310773 -0.490414
C37   C     C_3   0.681917 0.963371 0.603570 -0.001453
C38   C     C_3   0.747780 0.881672 0.624888 -0.280441
C39   C     C_3   0.842220 0.910844 0.599066 -0.473723
C40   C     C_3   0.050217 0.631012 0.314158 -0.004721
C41   C     C_3   0.980953 0.695688 0.267699 -0.250042
C42   C     C_3   0.978972 0.680186 0.162383 -0.490972
C43   C     C_3   0.929359 0.344678 0.315261 -0.002045
C44   C     C_3   0.002304 0.289895 0.263491 -0.250557
C45   C     C_R   0.813099 0.575607 0.541907 -0.146040
C46   C     C_3   0.982417 0.282883 0.159402 -0.493077
C47   C     C_3   0.947370 0.632162 0.686340 -0.004824
C48   C     C_3   0.017504 0.695118 0.733507 -0.249994
C49   C     C_3   0.016510 0.681636 0.839098 -0.491128
C50   C     C_3   0.068995 0.345196 0.683782 -0.001774
C51   C     C_3   0.996467 0.288572 0.734335 -0.250484
C52   C     C_3   0.014731 0.282401 0.838802 -0.493177
C53   C     C_R   0.187486 0.423088 0.542138 -0.150192
C54   C     C_R   0.233344 0.499785 0.500271 -0.076520
C55   C     C_R   0.766641 0.499768 0.499587 -0.076094
C56   C     C_R   0.048536 0.498474 0.499830 0.099068
Cu1   Cu    Cu3+1 0.500000 0.596430 0.500000 0.920459
Cu2   Cu    Cu3+1 0.500000 0.403570 0.500000 0.917594
H1    H     H_    0.222111 0.635210 0.425449 0.126759
H2    H     H_    0.110957 0.997506 0.716403 0.143786
H3    H     H_    0.128099 0.081683 0.621863 0.159317
H4    H     H_    0.296296 0.030002 0.359385 0.159052
H5    H     H_    0.316325 0.981252 0.472245 0.139112
H6    H     H_    0.254755 0.863603 0.300106 0.174500
H7    H     H_    0.270034 0.816208 0.416161 0.151672
H8    H     H_    0.153606 0.929349 0.476705 0.152892
H9    H     H_    0.112040 0.849836 0.387151 0.183909
H10   H     H_    0.136379 0.974640 0.359556 0.140871
H11   H     H_    0.716691 0.123430 0.426314 0.111335
H12   H     H_    0.776173 0.364098 0.425664 0.118776
H13   H     H_    0.685668 0.154454 0.307344 0.132522
H14   H     H_    0.752468 0.954524 0.372061 0.163073
H15   H     H_    0.726649 0.990005 0.254357 0.182794
H16   H     H_    0.846071 0.116150 0.260042 0.144283
H17   H     H_    0.889054 0.996724 0.284249 0.143846
H18   H     H_    0.871882 0.081068 0.378645 0.159294
H19   H     H_    0.703626 0.029903 0.640714 0.158943
H20   H     H_    0.683732 0.980965 0.527910 0.138921
H21   H     H_    0.745087 0.863601 0.700336 0.174282
H22   H     H_    0.729942 0.815994 0.584348 0.151455
H23   H     H_    0.777883 0.634826 0.574929 0.125779
H24   H     H_    0.846454 0.928939 0.523742 0.152991
H25   H     H_    0.887909 0.849635 0.613543 0.183332
H26   H     H_    0.863527 0.974508 0.640812 0.140856
H27   H     H_    0.411786 0.251038 0.613090 0.121972
H28   H     H_    0.418066 0.750684 0.380812 0.139488
H29   H     H_    0.588237 0.250950 0.386920 0.121943
H30   H     H_    0.581907 0.750620 0.619210 0.139435
H31   H     H_    0.034151 0.554014 0.297073 0.122861
H32   H     H_    0.116836 0.649199 0.285682 0.126301
H33   H     H_    0.914477 0.678870 0.297019 0.176209
H34   H     H_    0.223677 0.363665 0.573521 0.119453
H35   H     H_    0.996210 0.772979 0.282483 0.164204
H36   H     H_    0.044466 0.697918 0.131366 0.146536
H37   H     H_    0.928145 0.728196 0.130779 0.147523
H38   H     H_    0.961917 0.603724 0.145972 0.141157
H39   H     H_    0.922838 0.418191 0.283374 0.114045
H40   H     H_    0.865997 0.304465 0.306744 0.124119
H41   H     H_    0.066483 0.328112 0.273374 0.169404
H42   H     H_    0.008482 0.215602 0.292816 0.174326
H43   H     H_    0.918868 0.244144 0.147731 0.143195
H44   H     H_    0.036283 0.242181 0.124030 0.148090
H45   H     H_    0.283304 0.123755 0.573961 0.111529
H46   H     H_    0.978274 0.356451 0.128201 0.142585
H47   H     H_    0.960718 0.554932 0.705032 0.121913
H48   H     H_    0.880744 0.653260 0.712858 0.126281
H49   H     H_    0.084081 0.675252 0.706271 0.175378
H50   H     H_    0.005043 0.772631 0.716964 0.164902
H51   H     H_    0.950908 0.702440 0.868034 0.146659
H52   H     H_    0.068067 0.728318 0.871204 0.147374
H53   H     H_    0.030738 0.604916 0.857302 0.141183
H54   H     H_    0.073046 0.419072 0.715339 0.114724
H55   H     H_    0.133178 0.306953 0.693872 0.123701
H56   H     H_    0.314559 0.154691 0.692889 0.132674
H57   H     H_    0.931604 0.324985 0.723120 0.169887
H58   H     H_    0.992504 0.214050 0.705134 0.174080
H59   H     H_    0.078916 0.245384 0.851780 0.143183
H60   H     H_    0.961198 0.240389 0.873290 0.148135
H61   H     H_    0.016705 0.356150 0.869839 0.142550
H62   H     H_    0.247323 0.954936 0.628272 0.163153
H63   H     H_    0.273381 0.990349 0.745935 0.182832
H64   H     H_    0.154192 0.116869 0.740363 0.144485
N1    N     N_R   0.500000 0.258690 0.500000 -0.268336
N2    N     N_R   0.500000 0.741310 0.500000 -0.280837
O1    O     O_R   0.371460 0.581430 0.500010 -0.495152
O2    O     O_3   0.403960 0.939965 0.363865 -0.557595
O3    O     O_3   0.603448 0.054540 0.372065 -0.561908
O4    O     O_3   0.595963 0.939895 0.636242 -0.557582
O5    O     O_3   0.048689 0.647722 0.411254 -0.546156
O6    O     O_3   0.951954 0.349933 0.410742 -0.540040
O7    O     O_3   0.951547 0.647151 0.589059 -0.545903
O8    O     O_3   0.048087 0.349272 0.587835 -0.539878
O9    O     O_R   0.628540 0.418570 0.499990 -0.495638
O10   O     O_R   0.628540 0.581430 0.499990 -0.495161
O11   O     O_R   0.371460 0.418570 0.500010 -0.495611
O12   O     O_R   0.500000 0.581450 0.376050 -0.482182
O13   O     O_R   0.500000 0.418550 0.623950 -0.481386
O14   O     O_R   0.500000 0.581450 0.623950 -0.482194
O15   O     O_R   0.500000 0.418550 0.376050 -0.481345
O16   O     O_3   0.396518 0.054614 0.628007 -0.561979

loop_
_geom_bond_atom_site_label_1
_geom_bond_atom_site_label_2
_ccdc_geom_bond_type
Cu2   O15   S    
C40   O5    S    
C30   O2    S    
C8    C13   A    
C41   C42   S    
C35   C36   S    
C43   H40   S    
C1    C54   S    
C5    C20   A    
C48   H50   S    
C53   C54   A    
C7    C11   A    
C46   H44   S    
Cu2   N1    S    
C23   C54   A    
C42   H38   S    
C49   H51   S    
C28   C29   S    
C1    O1    A    
C39   H26   S    
C18   C19   T    
C10   N2    A    
Cu1   O1    S    
C38   C39   S    
C44   H41   S    
C48   H49   S    
C38   H21   S    
C33   O3    S    
C15   C17   T    
C3    O12   A    
C36   H18   S    
C9    H27   S    
C4    O13   A    
C8    O4    S    
C35   H15   S    
C31   C32   S    
C11   H29   S    
C47   H47   S    
Cu1   O12   S    
C40   H31   S    
C34   H12   S    
C33   H11   S    
C32   H10   S    
C37   O4    S    
C52   H59   S    
C34   C55   A    
C12   O10   A    
C30   H5    S    
C44   C46   S    
C50   C51   S    
Cu2   O9    S    
C46   H43   S    
C29   H3    S    
C42   H37   S    
C6    O2    S    
C28   H62   S    
C13   N2    A    
C28   H63   S    
C17   C19   S    
C22   C56   A    
C6    C21   A    
C46   H46   S    
C24   C34   A    
C51   C52   S    
C47   O7    S    
C23   H1    S    
C43   C44   S    
C27   H56   S    
C5    C9    A    
C37   C38   S    
C36   H17   S    
C47   C48   S    
C29   H2    S    
C47   H48   S    
C29   H64   S    
C53   H34   S    
C50   H54   S    
C8    C21   A    
C3    C14   S    
C50   O8    S    
C32   H9    S    
C9    N1    A    
Cu2   O13   S    
C40   C41   S    
C41   H33   S    
C35   H14   S    
C12   O9    A    
C30   H4    S    
C22   O5    S    
C2    C24   A    
C14   C16   T    
Cu1   O10   S    
C3    O15   A    
C25   O7    S    
C26   C53   A    
C25   C45   A    
C26   O8    S    
C5    O16   S    
C32   H8    S    
C31   H7    S    
C37   H19   S    
C36   H16   S    
C42   H36   S    
C31   H6    S    
C43   O6    S    
C11   N1    A    
C43   H39   S    
C39   H24   S    
C26   C56   A    
C6    C10   A    
C7    O3    S    
Cu2   O11   S    
C37   H20   S    
C51   H58   S    
C49   H53   S    
C50   H55   S    
C41   H35   S    
C4    C15   S    
C39   H25   S    
C2    C56   S    
Cu1   N2    S    
C44   H42   S    
C10   H28   S    
Cu1   Cu2   S    
C30   C31   S    
C38   H22   S    
C48   C49   S    
C13   H30   S    
C27   H45   S    
C33   C35   S    
Cu1   O14   S    
C2    C25   A    
C45   H23   S    
C51   H57   S    
C12   C55   S    
C33   H13   S    
C4    O14   A    
C52   H61   S    
C24   O6    S    
C27   O16   S    
C20   C21   S    
C45   C55   A    
C16   C18   S    
C7    C20   A    
C27   C28   S    
C22   C23   A    
C40   H32   S    
C1    O11   A    
C49   H52   S    
C52   H60   S    
