data_mof_unit_37551.cif
_audit_creation_date              2012-12-11T17:06:26-0500
_audit_creation_method            fapswitch 2.2
_symmetry_space_group_name_H-M    P1
_symmetry_Int_Tables_number       1
_space_group_crystal_system       triclinic
_cell_length_a                    7.022533
_cell_length_b                    14.533353
_cell_length_c                    15.947181
_cell_angle_alpha                 90.458441
_cell_angle_beta                  89.544902
_cell_angle_gamma                 89.640725
_cell_volume                      1627.44836735

loop_
_atom_site_label
_atom_site_type_symbol
_atom_type_description
_atom_site_fract_x
_atom_site_fract_y
_atom_site_fract_z
_atom_type_partial_charge
O1    O     O_R   0.494400 0.415450 0.412630 -0.518303
O2    O     O_R   0.823940 0.405730 0.586760 -0.553154
O3    O     O_R   0.994240 0.584550 0.587370 -0.522241
C1    C     C_R   0.654530 0.382529 0.614028 0.726819
O4    O     O_R   0.824110 0.404430 0.413240 -0.531098
O5    O     O_R   0.994420 0.583240 0.412620 -0.516494
C2    C     C_R   0.655598 0.380389 0.385884 0.742660
O6    O     O_R   0.494230 0.416760 0.587380 -0.532164
O7    O     O_3   0.660800 0.558670 0.500000 -0.338675
V1    V     V_3+5 0.935650 0.489120 0.500000 1.642021
O8    O     O_R   0.324140 0.594270 0.413240 -0.517820
C3    C     C_R   0.155287 0.617619 0.385773 0.812889
O9    O     O_R   0.323960 0.595570 0.586760 -0.522635
C4    C     C_R   0.154322 0.616802 0.616028 0.756792
V2    V     V_3+5 0.435660 0.510880 0.500000 1.682140
O10   O     O_3   0.160640 0.441330 0.500000 -0.364955
C5    C     C_3   0.036080 0.675474 0.770283 0.404182
C6    C     C_3   0.207947 0.710208 0.819797 -0.257695
H1    H     H_    0.266386 0.679217 0.877633 0.154694
C7    C     C_3   0.128417 0.809130 0.811095 -0.153734
C8    C     C_3   0.954002 0.773805 0.763310 -0.121611
C9    C     C_3   0.064637 0.785461 0.679175 -0.157922
C10   C     C_3   0.239631 0.821991 0.727893 -0.108569
C11   C     C_3   0.315017 0.722144 0.735525 0.257335
C12   C     C_3   0.142612 0.686129 0.686890 -0.079906
H2    H     H_    0.809660 0.800610 0.778361 0.175450
H3    H     H_    0.005195 0.816162 0.621461 0.208434
H4    H     H_    0.327770 0.882144 0.710745 0.194987
C13   C     C_R   0.289253 0.763163 0.196686 -0.055827
C14   C     C_R   0.123360 0.816143 0.184158 -0.096644
C15   C     C_R   0.987419 0.817080 0.249703 -0.157651
H5    H     H_    0.879964 0.870509 0.251529 0.185386
C16   C     C_R   0.007773 0.758287 0.319321 0.353153
C17   C     C_R   0.144856 0.687373 0.317935 -0.144936
C18   C     C_R   0.298511 0.699242 0.262966 -0.044444
C19   C     C_3   0.486573 0.736305 0.291057 0.566683
C20   C     C_3   0.483441 0.800760 0.216324 0.026461
H6    H     H_    0.588185 0.782079 0.166279 0.094534
C21   C     C_R   0.479779 0.305341 0.731683 0.010581
C22   C     C_R   0.642520 0.312765 0.680909 -0.052492
C23   C     C_R   0.789083 0.248366 0.692995 -0.117360
H7    H     H_    0.909044 0.246768 0.650946 0.180336
C24   C     C_R   0.775116 0.181418 0.755818 -0.056375
H8    H     H_    0.882091 0.129024 0.760288 0.192360
C25   C     C_R   0.619826 0.179294 0.811120 -0.073669
C26   C     C_R   0.470071 0.240345 0.795796 0.044283
C27   C     C_3   0.270171 0.216195 0.776026 0.372387
C28   C     C_3   0.280078 0.285969 0.704818 0.029569
H9    H     H_    0.185526 0.346803 0.714544 0.129702
C29   C     C_R   0.485612 0.303966 0.267095 -0.024947
C30   C     C_R   0.642982 0.306388 0.321014 -0.203198
C31   C     C_R   0.780300 0.234014 0.311488 0.405431
C32   C     C_R   0.769155 0.172632 0.242413 -0.098111
H10   H     H_    0.878577 0.120267 0.234747 0.159915
C33   C     C_R   0.618802 0.177600 0.184336 -0.115830
C34   C     C_R   0.473557 0.241230 0.201009 -0.039250
C35   C     C_3   0.377876 0.308358 0.144181 0.138306
C36   C     C_3   0.391791 0.378064 0.216332 0.552008
H11   H     H_    0.229867 0.288334 0.127626 0.124383
O11   O     O_R   0.771650 0.079500 0.908680 -0.527439
O12   O     O_R   0.441690 0.091800 0.082800 -0.534579
O13   O     O_R   0.271460 0.912980 0.083410 -0.521575
C37   C     C_R   0.609972 0.113731 0.111668 0.766464
O14   O     O_R   0.441930 0.090510 0.909280 -0.516899
O15   O     O_R   0.271690 0.911670 0.908660 -0.532404
C38   C     C_R   0.610449 0.111275 0.879850 0.746835
O16   O     O_R   0.771410 0.080810 0.083440 -0.541852
O17   O     O_3   0.605100 0.937580 0.996050 -0.379773
V3    V     V_3+5 0.330220 0.007110 0.996030 1.554979
O18   O     O_R   0.941980 0.900620 0.909250 -0.550410
C39   C     C_R   0.112417 0.878773 0.880836 0.755383
O19   O     O_R   0.941740 0.901920 0.082770 -0.552155
C40   C     C_R   0.110645 0.881859 0.113042 0.731336
V4    V     V_3+5 0.830220 0.985300 0.996000 1.502308
O20   O     O_3   0.105210 0.054870 0.996020 -0.348627
Br1   Br    Br    0.464033 0.795039 0.402727 -0.344186
Br2   Br    Br    0.489776 0.932439 0.244383 -0.477808
Br3   Br    Br    0.112617 0.254348 0.871104 -0.538721
Br4   Br    Br    0.243552 0.086275 0.742609 -0.523352
Br5   Br    Br    0.270839 0.234902 0.590231 -0.457676
O21   O     O_3   0.927295 0.220580 0.366971 -0.595172
H12   H     H_    0.886170 0.243265 0.422951 0.313975
O22   O     O_3   0.933707 0.596964 0.792189 -0.608241
H13   H     H_    0.882536 0.609728 0.849243 0.314076
O23   O     O_3   0.492248 0.331008 0.074870 -0.610280
H14   H     H_    0.462740 0.285164 0.030479 0.310076
Br6   Br    Br    0.145216 0.414916 0.260800 -0.523100
O24   O     O_3   0.509033 0.454310 0.199808 -0.613120
H15   H     H_    0.639940 0.431808 0.186900 0.324888
Br7   Br    Br    0.566948 0.675623 0.714086 -0.533968
Br8   Br    Br    0.918474 0.800460 0.426612 -0.403220
O25   O     O_3   0.632455 0.669523 0.287654 -0.627223
H16   H     H_    0.628916 0.638139 0.232133 0.295288

loop_
_geom_bond_atom_site_label_1
_geom_bond_atom_site_label_2
_ccdc_geom_bond_type
C8    H2    S    
C23   H7    S    
C18   C19   S    
C27   Br4   S    
C1    O6    A    
C36   Br6   S    
O21   H12   S    
C32   H10   S    
C20   H6    S    
C6    C11   S    
C19   C20   S    
C17   C18   A    
C16   Br8   S    
O5    C3    A    
C14   C15   A    
C35   H11   S    
O17   V4    S    
V2    O10   S    
C34   C35   S    
C6    H1    S    
O12   C37   A    
C19   Br1   S    
O8    V2    S    
C27   C28   S    
O17   V3    S    
C9    C12   S    
C33   C37   S    
O18   V4    S    
C10   C11   S    
C15   C16   A    
O13   C40   A    
O18   C39   A    
O1    V2    S    
O7    V1    S    
C19   O25   S    
O11   C38   A    
C8    C9    S    
C23   C24   A    
C16   C17   A    
C32   C33   A    
C37   O16   A    
V4    O20   S    
C30   C31   A    
C29   C36   S    
C1    C22   S    
C11   C12   S    
O19   V4    S    
C21   C22   A    
O4    C2    A    
C14   C40   S    
C29   C30   A    
O23   H14   S    
C20   Br2   S    
C29   C34   A    
O13   V3    S    
C36   O24   S    
C5    O22   S    
O14   C38   A    
O2    C1    A    
C24   H8    S    
C13   C14   A    
O22   H13   S    
C7    C10   S    
C33   C34   A    
C5    C6    S    
C7    C39   S    
O16   V4    S    
O14   V3    S    
C7    C8    S    
C24   C25   A    
O3    C4    A    
C21   C26   A    
C22   C23   A    
O6    V2    S    
C9    H3    S    
O9    V2    S    
C10   H4    S    
C3    C17   S    
O2    V1    S    
C31   C32   A    
O12   V3    S    
C26   C27   S    
C28   H9    S    
O1    C2    A    
C15   H5    S    
O19   C40   A    
C11   Br7   S    
O5    V1    S    
O8    C3    A    
C13   C18   A    
C5    C12   S    
C28   Br5   S    
O7    V2    S    
C2    C30   S    
O4    V1    S    
O3    V1    S    
O15   C39   A    
C35   C36   S    
O15   V3    S    
O11   V4    S    
O25   H16   S    
C35   O23   S    
V3    O20   S    
C6    C7    S    
C4    C12   S    
C31   O21   S    
C5    C8    S    
C25   C26   A    
O24   H15   S    
C13   C20   S    
C25   C38   S    
C9    C10   S    
V1    O10   S    
C27   Br3   S    
O9    C4    A    
C21   C28   S    
