data_mof_unit_52801.cif
_audit_creation_date              2012-12-10T19:49:26-0500
_audit_creation_method            fapswitch 2.2
_symmetry_space_group_name_H-M    P1
_symmetry_Int_Tables_number       1
_space_group_crystal_system       triclinic
_cell_length_a                    15.104236
_cell_length_b                    14.302843
_cell_length_c                    14.898807
_cell_angle_alpha                 91.124297
_cell_angle_beta                  90.055163
_cell_angle_gamma                 90.174654
_cell_volume                      3218.00537967

loop_
_atom_site_label
_atom_site_type_symbol
_atom_type_description
_atom_site_fract_x
_atom_site_fract_y
_atom_site_fract_z
_atom_type_partial_charge
C1    C     C_R   0.327927 0.500296 0.502660 0.971390
C2    C     C_R   0.816793 0.421184 0.470084 0.264039
C3    C     C_R   0.813588 0.588022 0.506867 0.313397
C4    C     C_R   0.182485 0.423122 0.528766 0.287413
C5    C     C_R   0.231842 0.502704 0.505597 -0.429881
C6    C     C_R   0.768316 0.502598 0.491563 -0.423340
C7    C     C_R   0.048212 0.507888 0.498188 -0.166374
C8    C     C_R   0.952243 0.508398 0.492625 -0.170806
C9    C     C_R   0.517281 0.103103 0.418465 0.297415
C10   C     C_R   0.548770 0.897302 0.561688 0.282691
C11   C     C_R   0.482993 0.104369 0.576397 0.254260
C12   C     C_R   0.672133 0.500323 0.496984 0.957810
C13   C     C_R   0.448330 0.892885 0.435889 0.209083
C14   C     C_R   0.513080 0.202600 0.420760 0.365934
C15   C     C_R   0.539860 0.798721 0.567765 0.388142
C16   C     C_R   0.494252 0.203328 0.578426 0.355372
C17   C     C_R   0.457538 0.793543 0.432193 0.346647
C18   C     C_R   0.499374 0.052338 0.497124 -0.092317
C19   C     C_R   0.498315 0.946208 0.498343 -0.108579
C20   C     C_R   0.499019 0.499224 0.327517 0.849377
C21   C     C_R   0.500805 0.500866 0.672544 0.854401
C22   C     C_R   0.578782 0.533244 0.813974 -0.098319
C23   C     C_R   0.341061 0.453469 0.041656 0.406423
C24   C     C_R   0.421073 0.466783 0.186139 -0.079252
C25   C     C_R   0.502882 0.503372 0.767906 -0.123685
C26   C     C_R   0.496302 0.498127 0.232320 -0.099015
C27   C     C_R   0.426684 0.476432 0.811243 -0.223458
C28   C     C_R   0.569593 0.533232 0.189272 -0.269190
C29   C     C_R   0.422984 0.478002 0.904107 0.019586
C30   C     C_R   0.571936 0.536050 0.096539 0.033987
C31   C     C_R   0.498392 0.508696 0.953358 -0.024279
C32   C     C_R   0.495992 0.507167 0.047270 -0.018055
C33   C     C_R   0.576625 0.539062 0.908461 -0.040374
C34   C     C_R   0.649576 0.573603 0.959428 0.400676
C35   C     C_R   0.418304 0.475337 0.092150 -0.045340
C36   C     C_R   0.344978 0.450564 0.948141 -0.123273
C37   C     C_R   0.648394 0.568148 0.052795 -0.119629
C38   C     C_1   0.658437 0.551100 0.762318 0.281876
C39   C     C_1   0.348994 0.426305 0.237042 0.308989
C40   C     C_1   0.267366 0.418572 0.898704 0.219268
C41   C     C_1   0.727491 0.595305 0.102478 0.192560
C42   C     C_3   0.211479 0.514810 0.092812 0.105646
C43   C     C_3   0.122505 0.491714 0.134817 -0.832653
C44   C     C_3   0.713046 0.709499 0.916089 0.106282
C45   C     C_R   0.097791 0.582818 0.465337 0.376165
C46   C     C_3   0.789194 0.752109 0.863951 -0.813347
C47   C     C_3   0.076407 0.654380 0.332307 0.122269
C48   C     C_3   0.045097 0.744210 0.289772 -0.800582
C49   C     C_3   0.955665 0.365976 0.326279 0.112355
C50   C     C_3   0.017983 0.294240 0.284314 -0.827367
C51   C     C_3   0.953197 0.661118 0.648771 0.133984
C52   C     C_3   0.967656 0.758693 0.688641 -0.818079
C53   C     C_3   0.031085 0.387774 0.669786 0.114927
C54   C     C_3   0.989853 0.306527 0.719249 -0.795726
C55   C     C_3   0.223762 0.706035 0.578668 0.199798
C56   C     C_R   0.908091 0.428756 0.458436 0.382443
C57   C     C_3   0.251831 0.807930 0.585066 -0.889440
C58   C     C_3   0.792021 0.276042 0.523772 0.196130
C59   C     C_3   0.756789 0.179248 0.500115 -0.921020
C60   C     C_3   0.773748 0.700788 0.411790 0.213528
C61   C     C_3   0.737042 0.798685 0.403260 -0.908591
C62   C     C_3   0.206937 0.273387 0.482712 0.209071
C63   C     C_3   0.244379 0.179901 0.509614 -0.869004
C64   C     C_3   0.613629 0.009295 0.336934 0.126955
C65   C     C_3   0.649318 0.000679 0.241698 -0.849816
C66   C     C_3   0.691356 0.934006 0.598853 0.122370
C67   C     C_R   0.903953 0.586964 0.521760 0.370003
C68   C     C_3   0.749290 0.977680 0.672066 -0.852496
C69   C     C_3   0.369139 0.065060 0.667842 0.111760
C70   C     C_3   0.343648 0.011173 0.750896 -0.854582
C71   C     C_3   0.307858 0.930332 0.393807 0.138979
C72   C     C_3   0.253474 0.976301 0.321069 -0.819385
C73   C     C_3   0.608362 0.258545 0.314843 0.210722
C74   C     C_3   0.613544 0.268943 0.213540 -0.835665
C75   C     C_3   0.513672 0.765040 0.714983 0.183922
C76   C     C_3   0.541170 0.844419 0.779209 -0.855710
C77   C     C_3   0.575262 0.217487 0.708298 0.175131
C78   C     C_R   0.091010 0.431619 0.537601 0.363705
C79   C     C_3   0.609775 0.293729 0.771554 -0.841503
C80   C     C_3   0.455558 0.758258 0.281265 0.170621
C81   C     C_3   0.393787 0.723987 0.206893 -0.837788
C82   C     C_R   0.187448 0.586333 0.484795 0.274458
H1    H     H_    0.370220 0.454283 0.771011 0.156340
H2    H     H_    0.787206 0.727518 0.792891 0.271919
H3    H     H_    0.783657 0.829504 0.865816 0.196947
H4    H     H_    0.853416 0.732040 0.894262 0.257771
H5    H     H_    0.040513 0.594563 0.300120 0.111265
H6    H     H_    0.148714 0.647460 0.318614 0.159602
H7    H     H_    0.080379 0.805109 0.320573 0.260602
H8    H     H_    0.059126 0.741661 0.216610 0.197705
H9    H     H_    0.972773 0.752880 0.299892 0.248716
H10   H     H_    0.979701 0.436769 0.307690 0.113915
H11   H     H_    0.888131 0.354350 0.298025 0.163819
H12   H     H_    0.625447 0.556891 0.229633 0.135153
H13   H     H_    0.996538 0.222512 0.301791 0.260210
H14   H     H_    0.017547 0.300603 0.210153 0.219050
H15   H     H_    0.086467 0.306397 0.309255 0.242853
H16   H     H_    0.011516 0.617326 0.665083 0.097702
H17   H     H_    0.893064 0.631211 0.681018 0.146146
H18   H     H_    0.908733 0.802791 0.675791 0.263667
H19   H     H_    0.978023 0.754513 0.762240 0.200101
H20   H     H_    0.026678 0.791719 0.658036 0.256013
H21   H     H_    0.985403 0.448472 0.675471 0.107965
H22   H     H_    0.095196 0.405748 0.703156 0.160200
H23   H     H_    0.198747 0.547285 0.026690 0.135146
H24   H     H_    0.033298 0.244171 0.713628 0.263785
H25   H     H_    0.981562 0.325822 0.791303 0.213900
H26   H     H_    0.923920 0.289224 0.690341 0.225136
H27   H     H_    0.268356 0.664904 0.622360 0.118097
H28   H     H_    0.155030 0.701662 0.605536 0.133266
H29   H     H_    0.207142 0.850917 0.543627 0.252353
H30   H     H_    0.247320 0.833052 0.655872 0.204206
H31   H     H_    0.321205 0.815798 0.562263 0.237065
H32   H     H_    0.758609 0.301896 0.586058 0.128433
H33   H     H_    0.864164 0.268710 0.537192 0.193966
H34   H     H_    0.246185 0.566434 0.137478 0.124184
H35   H     H_    0.783947 0.155056 0.434461 0.263292
H36   H     H_    0.777504 0.129689 0.552222 0.220335
H37   H     H_    0.683548 0.180446 0.496939 0.220329
H38   H     H_    0.732600 0.652590 0.369266 0.115978
H39   H     H_    0.842656 0.701381 0.385014 0.147542
H40   H     H_    0.780038 0.849458 0.440092 0.251145
H41   H     H_    0.735257 0.817573 0.331409 0.206964
H42   H     H_    0.668862 0.801530 0.430407 0.227297
H43   H     H_    0.239458 0.294482 0.419280 0.149550
H44   H     H_    0.134858 0.263049 0.470132 0.187053
H45   H     H_    0.132242 0.464045 0.203221 0.250283
H46   H     H_    0.215745 0.158942 0.574848 0.252882
H47   H     H_    0.227269 0.126014 0.457971 0.209771
H48   H     H_    0.317360 0.184979 0.515149 0.240505
H49   H     H_    0.603137 0.937362 0.360620 0.134291
H50   H     H_    0.665057 0.043734 0.379906 0.101092
H51   H     H_    0.665639 0.070637 0.215614 0.252242
H52   H     H_    0.710559 0.957986 0.241048 0.204720
H53   H     H_    0.599374 0.966352 0.197187 0.260177
H54   H     H_    0.705571 0.969236 0.534500 0.117002
H55   H     H_    0.709293 0.858681 0.592847 0.209130
H56   H     H_    0.081403 0.555830 0.139603 0.198957
H57   H     H_    0.741916 0.938462 0.735142 0.251357
H58   H     H_    0.819784 0.975344 0.651071 0.213598
H59   H     H_    0.729859 0.051506 0.684979 0.248277
H60   H     H_    0.332171 0.034050 0.609736 0.134825
H61   H     H_    0.349264 0.139322 0.678853 0.185607
H62   H     H_    0.381408 0.038065 0.810024 0.266307
H63   H     H_    0.271736 0.019515 0.764111 0.216118
H64   H     H_    0.357978 0.935700 0.740376 0.243679
H65   H     H_    0.293962 0.966614 0.458980 0.120800
H66   H     H_    0.286598 0.855903 0.396895 0.208642
H67   H     H_    0.087103 0.438581 0.092809 0.268298
H68   H     H_    0.263455 0.938794 0.255900 0.255776
H69   H     H_    0.182131 0.973743 0.338833 0.199777
H70   H     H_    0.274046 0.050423 0.314101 0.272188
H71   H     H_    0.650578 0.198406 0.332964 0.125719
H72   H     H_    0.636922 0.322169 0.347320 0.199088
H73   H     H_    0.576959 0.331791 0.192647 0.266978
H74   H     H_    0.683756 0.275782 0.192561 0.201123
H75   H     H_    0.583715 0.206906 0.179180 0.272835
H76   H     H_    0.515896 0.700414 0.754350 0.163364
H77   H     H_    0.443052 0.773406 0.694309 0.094600
H78   H     H_    0.713415 0.740903 0.985036 0.139727
H79   H     H_    0.515375 0.912132 0.756186 0.313999
H80   H     H_    0.512987 0.832313 0.846843 0.185477
H81   H     H_    0.614290 0.848416 0.784638 0.275334
H82   H     H_    0.631207 0.196380 0.663415 0.109241
H83   H     H_    0.556149 0.157068 0.749838 0.199223
H84   H     H_    0.556260 0.317829 0.817383 0.275915
H85   H     H_    0.664993 0.266105 0.812430 0.202450
H86   H     H_    0.635185 0.353062 0.732186 0.250594
H87   H     H_    0.519177 0.719777 0.276191 0.142352
H88   H     H_    0.470466 0.833005 0.268797 0.170686
H89   H     H_    0.650001 0.728017 0.882373 0.136594
H90   H     H_    0.334336 0.769371 0.204497 0.246612
H91   H     H_    0.428268 0.725854 0.141145 0.203479
H92   H     H_    0.372082 0.651406 0.219677 0.256618
N1    N     N_R   0.500000 0.252470 0.500000 -0.207303
N2    N     N_R   0.500000 0.747530 0.500000 -0.208049
N3    N     N_1   0.721481 0.564537 0.720369 -0.207260
N4    N     N_1   0.291884 0.394126 0.278047 -0.227663
N5    N     N_1   0.205440 0.393008 0.859438 -0.225503
N6    N     N_1   0.790507 0.616952 0.142081 -0.248380
O1    O     O_R   0.369060 0.579480 0.500010 -0.561269
O2    O     O_3   0.723545 0.611412 0.918625 -0.600149
O3    O     O_3   0.057814 0.658193 0.425131 -0.529284
O4    O     O_3   0.954874 0.355140 0.420187 -0.562970
O5    O     O_3   0.944474 0.667374 0.554766 -0.522964
O6    O     O_3   0.043659 0.361541 0.578921 -0.563285
O7    O     O_3   0.228692 0.672896 0.488454 -0.535715
O8    O     O_3   0.775114 0.336685 0.451968 -0.600632
O9    O     O_3   0.771758 0.673685 0.502749 -0.537504
O10   O     O_3   0.223376 0.340546 0.551752 -0.558852
O11   O     O_3   0.532316 0.058490 0.336179 -0.514508
O12   O     O_R   0.630940 0.420520 0.499990 -0.606611
O13   O     O_3   0.601678 0.946476 0.622118 -0.550795
O14   O     O_3   0.461238 0.058112 0.654102 -0.568561
O15   O     O_3   0.398297 0.938236 0.372261 -0.544895
O16   O     O_3   0.518595 0.248441 0.340315 -0.542739
O17   O     O_3   0.573527 0.754190 0.641839 -0.556188
O18   O     O_3   0.500442 0.250119 0.660355 -0.551027
O19   O     O_3   0.414958 0.742174 0.365405 -0.537424
O20   O     O_R   0.630940 0.579480 0.499990 -0.560321
O21   O     O_R   0.369060 0.420520 0.500010 -0.571036
O22   O     O_R   0.499980 0.579490 0.367850 -0.599118
O23   O     O_R   0.500020 0.420510 0.632150 -0.543427
O24   O     O_R   0.500020 0.579490 0.632150 -0.620970
O25   O     O_R   0.499980 0.420510 0.367850 -0.584866
O26   O     O_3   0.261542 0.431869 0.082791 -0.594776
Zn1   Zn    Zn3+2 0.500000 0.606140 0.500000 1.019303
Zn2   Zn    Zn3+2 0.500000 0.393860 0.500000 1.025714

loop_
_geom_bond_atom_site_label_1
_geom_bond_atom_site_label_2
_ccdc_geom_bond_type
C66   C68   S    
C11   C18   A    
C27   C29   A    
C34   C37   A    
C73   C74   S    
C21   O23   A    
C41   N6    T    
C71   H65   S    
C45   C82   A    
C11   O14   S    
C80   H88   S    
C9    C14   A    
C3    C6    A    
C1    O21   A    
C8    C56   A    
C7    C8    S    
C62   O10   S    
C53   C54   S    
C29   C36   A    
C52   H20   S    
C62   C63   S    
C15   N2    A    
C61   H42   S    
C1    C5    S    
N1    Zn2   S    
N2    Zn1   S    
O1    Zn1   S    
C24   C26   A    
C66   H54   S    
C10   C15   A    
C3    O9    S    
C6    C12   S    
C15   O17   S    
C51   H16   S    
C50   H13   S    
C63   H48   S    
C57   H30   S    
C53   H22   S    
C77   H83   S    
C22   C38   S    
C24   C39   S    
C43   H56   S    
C28   H12   S    
C18   C19   S    
C81   H90   S    
C75   C76   S    
C76   H80   S    
C64   H50   S    
C60   O9    S    
C72   H70   S    
C22   C25   A    
C73   H72   S    
C31   C33   A    
C42   O26   S    
C78   O6    S    
C47   H6    S    
C55   O7    S    
C79   H86   S    
C77   O18   S    
C63   H46   S    
C43   H67   S    
C17   N2    A    
C46   H3    S    
C77   H82   S    
C77   C79   S    
C71   H66   S    
C59   H35   S    
C38   N3    T    
C48   H8    S    
C55   H27   S    
O12   Zn2   S    
C21   O24   A    
C76   H79   S    
C2    C6    A    
C64   O11   S    
C80   H87   S    
C44   C46   S    
C2    O8    S    
C75   O17   S    
C69   C70   S    
C51   H17   S    
C12   O12   A    
C52   H19   S    
C24   C35   A    
C54   H24   S    
C58   O8    S    
C51   C52   S    
C32   C35   A    
C4    O10   S    
C36   C40   S    
C47   O3    S    
C10   O13   S    
C43   H45   S    
C62   H44   S    
C1    O1    A    
C4    C5    A    
C13   C19   A    
C57   H31   S    
C56   O4    S    
C69   H60   S    
C80   O19   S    
C52   H18   S    
C30   C37   A    
C60   C61   S    
C81   H91   S    
C53   O6    S    
C4    C78   A    
C14   N1    A    
C51   O5    S    
C61   H41   S    
C48   H9    S    
C49   O4    S    
C11   C16   A    
C71   O15   S    
C47   C48   S    
C64   H49   S    
C10   C19   A    
C72   H69   S    
C33   C34   A    
C12   O20   A    
C34   O2    S    
C74   H74   S    
C68   H59   S    
C70   H63   S    
C7    C45   A    
C65   H53   S    
C7    C78   A    
C70   H64   S    
C54   H25   S    
C75   H76   S    
C42   H34   S    
C49   C50   S    
C59   H36   S    
C23   C35   A    
O22   Zn1   S    
C55   C57   S    
C55   H28   S    
C58   H33   S    
C44   H78   S    
C46   H2    S    
C68   H58   S    
C69   H61   S    
C42   C43   S    
C40   N5    T    
C44   O2    S    
C39   N4    T    
C16   O18   S    
C16   N1    A    
O25   Zn2   S    
C75   H77   S    
C22   C33   A    
C21   C25   S    
C50   H15   S    
C59   H37   S    
O20   Zn1   S    
C74   H75   S    
C26   C28   A    
C31   C32   A    
C3    C67   A    
C65   H52   S    
C80   C81   S    
C68   H57   S    
C62   H43   S    
C66   O13   S    
C54   H26   S    
C45   O3    S    
C25   C27   A    
O23   Zn2   S    
C70   H62   S    
C13   C17   A    
C82   O7    S    
C48   H7    S    
C49   H11   S    
C81   H92   S    
C28   C30   A    
C14   O16   S    
C44   H89   S    
C20   O22   A    
C71   C72   S    
C23   O26   S    
C2    C56   A    
C64   C65   S    
C30   C32   A    
C5    C82   A    
C50   H14   S    
C57   H29   S    
C66   H55   S    
C20   C26   S    
C53   H21   S    
C72   H68   S    
C27   H1    S    
C69   O14   S    
O21   Zn2   S    
C74   H73   S    
C17   O19   S    
O24   Zn1   S    
C63   H47   S    
C79   H84   S    
C37   C41   S    
C60   H39   S    
C42   H23   S    
C58   C59   S    
C60   H38   S    
C9    C18   A    
C8    C67   A    
C29   C31   A    
C23   C36   A    
C13   O15   S    
C73   O16   S    
C73   H71   S    
C58   H32   S    
C61   H40   S    
C76   H81   S    
C49   H10   S    
C79   H85   S    
C9    O11   S    
C65   H51   S    
C67   O5    S    
C47   H5    S    
C46   H4    S    
C20   O25   A    
