data_mof_unit_59683.cif
_audit_creation_date              2012-10-26T20:33:57-0400
_audit_creation_method            fapswitch 2.2
_symmetry_space_group_name_H-M    P1
_symmetry_Int_Tables_number       1
_space_group_crystal_system       triclinic
_cell_length_a                    15.928238
_cell_length_b                    9.088725
_cell_length_c                    7.786588
_cell_angle_alpha                 89.994459
_cell_angle_beta                  89.940989
_cell_angle_gamma                 90.026758
_cell_volume                      1127.24317819

loop_
_atom_site_label
_atom_site_type_symbol
_atom_type_description
_atom_site_fract_x
_atom_site_fract_y
_atom_site_fract_z
_atom_type_partial_charge
C1    C     C_R   0.500015 0.220034 0.500005 0.561019
C2    C     C_3   0.048656 0.347160 0.398826 -0.040813
C3    C     C_3   0.950979 0.501639 0.693582 -0.063590
C4    C     C_3   0.950020 0.339464 0.415881 -0.041929
C5    C     C_1   0.749440 0.496272 0.500118 0.045600
C6    C     C_1   0.250551 0.495378 0.500691 0.041189
C7    C     C_3   0.083273 0.481613 0.505222 -0.023956
C8    C     C_3   0.916701 0.483418 0.505588 -0.036161
C9    C     C_3   0.951890 0.616052 0.400917 -0.282015
C10   C     C_3   0.048928 0.622472 0.414859 -0.285766
C11   C     C_2   0.902821 0.420994 0.834062 0.578927
C12   C     C_1   0.824664 0.491158 0.501742 0.001487
C13   C     C_2   0.911645 0.198551 0.487640 0.652480
C14   C     C_2   0.084046 0.366087 0.811407 0.618107
C15   C     C_2   0.095023 0.201157 0.411128 0.625247
C16   C     C_1   0.175325 0.489678 0.502266 0.001600
C17   C     C_R   0.339856 0.499837 0.500114 0.551874
C18   C     C_R   0.660138 0.500034 0.499938 0.552884
C19   C     C_1   0.500027 0.934626 0.499992 -0.027515
C20   C     C_1   0.500027 0.065388 0.500007 -0.022295
C21   C     C_R   0.500016 0.779976 0.499995 0.548690
C22   C     C_3   0.049120 0.485083 0.694798 -0.063493
Cu1   Cu    Cu3+1 0.500000 0.500010 0.669080 1.073781
Cu2   Cu    Cu3+1 0.500000 0.500010 0.330920 1.065006
H1    H     H_    0.067559 0.722615 0.487910 0.159616
H2    H     H_    0.073745 0.589052 0.752030 0.119671
H3    H     H_    0.925989 0.341882 0.281514 0.121188
H4    H     H_    0.939287 0.619363 0.726657 0.132692
H5    H     H_    0.076311 0.634228 0.283892 0.161643
H6    H     H_    0.924913 0.721590 0.448226 0.166441
H7    H     H_    0.933582 0.606129 0.263556 0.181120
H8    H     H_    0.831513 0.439195 0.047596 0.343554
H9    H     H_    0.808065 0.071250 0.505082 0.345927
H10   H     H_    0.160713 0.317532 0.009694 0.350745
H11   H     H_    0.107887 0.995826 0.315718 0.341994
H12   H     H_    0.060779 0.376751 0.262081 0.115070
N1    N     N_1   0.500000 0.499970 0.076820 -0.069236
N2    N     N_1   0.500000 0.499970 0.923180 -0.068807
O1    O     O_R   0.500000 0.288400 0.642760 -0.492921
O2    O     O_R   0.863023 0.503075 0.962396 -0.718228
O3    O     O_2   0.952582 0.111821 0.573289 -0.408389
O4    O     O_R   0.827488 0.167251 0.451884 -0.694351
O5    O     O_2   0.062828 0.237791 0.795603 -0.379298
O6    O     O_R   0.141181 0.405190 0.939807 -0.713265
O7    O     O_2   0.152779 0.182934 0.512115 -0.471383
O8    O     O_R   0.072970 0.087863 0.298233 -0.665455
O9    O     O_R   0.500000 0.288400 0.357240 -0.493515
O10   O     O_R   0.379440 0.500020 0.642850 -0.488374
O11   O     O_R   0.379440 0.500020 0.357150 -0.498924
O12   O     O_R   0.620560 0.500020 0.642850 -0.491534
O13   O     O_R   0.620560 0.500020 0.357150 -0.497595
O14   O     O_R   0.500000 0.711620 0.642810 -0.497375
O15   O     O_R   0.500000 0.711620 0.357190 -0.497488
O16   O     O_2   0.897058 0.287138 0.835280 -0.423878

loop_
_geom_bond_atom_site_label_1
_geom_bond_atom_site_label_2
_ccdc_geom_bond_type
C8    C9    S    
C7    C10   S    
C2    C4    S    
Cu1   Cu2   S    
N1    N2    T    
Cu1   O10   S    
Cu1   N2    S    
C9    C10   S    
C3    C22   S    
C1    O1    A    
C19   C20   T    
C17   O10   A    
C4    C8    S    
C8    C12   S    
C14   C22   S    
Cu2   O13   S    
C13   O3    D    
Cu2   N1    S    
C21   O15   A    
C2    C15   S    
H11   O8    S    
C10   H5    S    
Cu1   O14   S    
C11   O16   D    
C9    H6    S    
Cu1   O1    S    
H9    O4    S    
C10   H1    S    
C1    O9    A    
C13   O4    S    
C19   C21   S    
C18   O13   A    
H8    O2    S    
C11   O2    S    
C3    H4    S    
C3    C11   S    
C9    H7    S    
C6    C16   T    
C7    C22   S    
Cu2   O11   S    
C4    H3    S    
H10   O6    S    
C18   O12   A    
C5    C12   T    
C14   O6    S    
C3    C8    S    
C22   H2    S    
C2    H12   S    
C4    C13   S    
C6    C17   S    
C15   O7    D    
C7    C16   S    
C1    C20   S    
C5    C18   S    
C15   O8    S    
Cu2   O15   S    
Cu2   O9    S    
C21   O14   A    
C17   O11   A    
C2    C7    S    
C14   O5    D    
Cu1   O12   S    
