data_mof_unit_39675.cif
_audit_creation_date              2012-12-11T14:21:06-0500
_audit_creation_method            fapswitch 2.2
_symmetry_space_group_name_H-M    P1
_symmetry_Int_Tables_number       1
_space_group_crystal_system       triclinic
_cell_length_a                    21.996415
_cell_length_b                    7.20497
_cell_length_c                    14.919437
_cell_angle_alpha                 90.112093
_cell_angle_beta                  107.256875
_cell_angle_gamma                 90.014394
_cell_volume                      2258.04076271

loop_
_atom_site_label
_atom_site_type_symbol
_atom_type_description
_atom_site_fract_x
_atom_site_fract_y
_atom_site_fract_z
_atom_type_partial_charge
O1    O     O_R   0.584770 0.505770 0.002090 -0.535594
O2    O     O_R   0.415230 0.005770 0.997910 -0.535263
O3    O     O_R   0.467060 0.173340 0.861950 -0.536224
O4    O     O_R   0.532940 0.673340 0.138050 -0.541985
C1    C     C_R   0.454436 0.344331 0.825785 0.755708
C2    C     C_R   0.544851 0.844611 0.174020 0.759769
O5    O     O_R   0.587510 0.175890 0.993210 -0.498535
O6    O     O_R   0.412490 0.675890 0.006790 -0.500691
O7    O     O_R   0.536540 0.008150 0.130100 -0.538008
O8    O     O_R   0.463460 0.508150 0.869900 -0.543801
C3    C     C_R   0.613138 0.344476 0.998631 0.742206
C4    C     C_R   0.386862 0.844434 0.001362 0.741692
O9    O     O_3   0.483140 0.340040 0.044760 -0.379893
O10   O     O_3   0.516860 0.840040 0.955240 -0.378621
V1    V     V_3+5 0.503130 0.064190 0.991700 1.638144
V2    V     V_3+5 0.496870 0.564190 0.008300 1.629079
C5    C     C_2   0.213601 0.731952 0.001431 -0.245472
C6    C     C_2   0.786357 0.231900 0.998478 -0.258126
C7    C     C_2   0.181883 0.890550 0.006337 0.445360
C8    C     C_2   0.818122 0.390472 0.993662 0.449137
H1    H     H_    0.187915 0.601192 0.992645 0.173796
H2    H     H_    0.812006 0.101173 0.007204 0.172465
C9    C     C_2   0.283158 0.717402 0.012319 0.710408
C10   C     C_2   0.716810 0.217309 0.987684 0.698095
C11   C     C_2   0.318461 0.858390 0.994669 -0.307055
C12   C     C_2   0.681530 0.358535 0.005282 -0.307139
H3    H     H_    0.296541 0.990705 0.970464 0.206448
H4    H     H_    0.703445 0.491132 0.029392 0.210040
C13   C     C_R   0.928610 0.884490 0.723669 -0.222212
C14   C     C_R   0.072381 0.391944 0.277207 -0.221299
C15   C     C_R   0.575017 0.854995 0.275149 -0.171235
C16   C     C_R   0.425648 0.357058 0.723932 -0.170389
C17   C     C_R   0.939542 0.826577 0.569772 -0.115470
C18   C     C_R   0.062155 0.452053 0.431703 -0.117712
C19   C     C_R   0.967524 0.855824 0.665556 0.177066
C20   C     C_R   0.034230 0.433102 0.335186 0.179624
C21   C     C_R   0.862416 0.894561 0.685000 0.606475
C22   C     C_R   0.138485 0.373429 0.316473 0.604341
C23   C     C_R   0.834245 0.891198 0.586685 -0.020664
C24   C     C_R   0.168114 0.419434 0.411826 -0.024220
C25   C     C_R   0.873226 0.836937 0.530828 -0.096047
C26   C     C_R   0.128526 0.444394 0.470405 -0.096994
C27   C     C_R   0.767822 0.920365 0.543080 -0.051742
C28   C     C_R   0.235532 0.435330 0.451838 -0.056472
C29   C     C_R   0.739555 0.854765 0.449245 -0.114658
C30   C     C_R   0.262163 0.422410 0.551539 -0.118339
C31   C     C_R   0.779471 0.768359 0.402261 0.735342
C32   C     C_R   0.221017 0.452342 0.607566 0.731931
C33   C     C_R   0.845281 0.775837 0.439311 -0.183248
C34   C     C_R   0.155522 0.465439 0.566919 -0.179224
C35   C     C_R   0.728603 0.015495 0.588495 0.399367
C36   C     C_R   0.276880 0.484650 0.398287 0.394489
C37   C     C_R   0.662751 0.000583 0.553915 -0.174236
C38   C     C_R   0.342587 0.481310 0.439122 -0.185325
C39   C     C_R   0.634155 0.926757 0.465011 0.000715
C40   C     C_R   0.369278 0.436540 0.533502 -0.000302
C41   C     C_R   0.672312 0.873270 0.407538 -0.023752
C42   C     C_R   0.329534 0.401680 0.591104 -0.020029
C43   C     C_R   0.567491 0.925021 0.429479 -0.126463
C44   C     C_R   0.435789 0.436322 0.571876 -0.128483
C45   C     C_R   0.538062 0.884244 0.335376 -0.261547
C46   C     C_R   0.463620 0.402785 0.667085 -0.257528
C47   C     C_R   0.641571 0.854575 0.309929 0.658661
C48   C     C_R   0.359267 0.346597 0.685430 0.660109
H5    H     H_    0.874426 0.717054 0.399227 0.196857
H6    H     H_    0.125634 0.492606 0.611652 0.190778
H7    H     H_    0.486601 0.887604 0.308273 0.153068
H8    H     H_    0.514850 0.412630 0.696571 0.153384
H9    H     H_    0.633592 0.064327 0.592676 0.155515
H10   H     H_    0.373200 0.521344 0.397288 0.157337
H11   H     H_    0.969471 0.790142 0.526310 0.167875
H12   H     H_    0.031995 0.476945 0.476260 0.166358
H13   H     H_    0.538179 0.961818 0.473773 0.141323
H14   H     H_    0.466292 0.468171 0.528682 0.141491
O11   O     O_R   0.036450 0.233070 0.130130 -0.527797
O12   O     O_R   0.963550 0.733070 0.869870 -0.531628
O13   O     O_R   0.912470 0.560570 0.006790 -0.499965
O14   O     O_R   0.087530 0.060570 0.993210 -0.502077
C49   C     C_R   0.886753 0.392393 0.000853 0.693764
C50   C     C_R   0.113248 0.892429 0.999152 0.694611
O15   O     O_R   0.032920 0.562940 0.138050 -0.540031
O16   O     O_R   0.967080 0.062940 0.861950 -0.539311
O17   O     O_R   0.084790 0.730500 0.002090 -0.566109
O18   O     O_R   0.915210 0.230500 0.997910 -0.566118
C51   C     C_R   0.045198 0.394851 0.174737 0.823438
C52   C     C_R   0.955708 0.894050 0.825497 0.832405
O19   O     O_3   0.016820 0.396170 0.955260 -0.384800
O20   O     O_3   0.983180 0.896170 0.044740 -0.383871
V3    V     V_3+5 0.996880 0.672090 0.008300 1.634276
V4    V     V_3+5 0.003120 0.172090 0.991700 1.636921
Br1   Br    Br    0.058398 0.838466 0.715589 -0.533625
Br2   Br    Br    0.943561 0.458435 0.285402 -0.528157
F1    F     F_    0.826075 0.880705 0.744150 -0.635019
F2    F     F_    0.172539 0.299171 0.262723 -0.630402
F3    F     F_    0.756214 0.659686 0.325404 -0.605342
F4    F     F_    0.243488 0.497808 0.699771 -0.605978
Br3   Br    Br    0.759103 0.208811 0.680728 -0.435946
Br4   Br    Br    0.249499 0.616800 0.280670 -0.423924
F5    F     F_    0.213068 0.055661 0.025084 -0.628604
F6    F     F_    0.786997 0.555507 0.975024 -0.630301
F7    F     F_    0.310343 0.548402 0.037474 -0.612888
F8    F     F_    0.689611 0.047994 0.962691 -0.615339
F9    F     F_    0.674604 0.864629 0.246300 -0.623153
F10   F     F_    0.325523 0.270538 0.738992 -0.625486

loop_
_geom_bond_atom_site_label_1
_geom_bond_atom_site_label_2
_ccdc_geom_bond_type
C35   Br3   S    
C39   C43   A    
C15   C45   A    
C18   C26   A    
O12   C52   A    
C37   H9    S    
C2    O7    A    
C23   C25   A    
O14   V4    S    
O5    C3    A    
O13   V3    S    
C5    C9    S    
C33   H5    S    
C6    C10   S    
C10   C12   D    
C49   O18   A    
O14   C50   A    
C14   C22   A    
C44   C46   A    
C29   C31   A    
C44   H14   S    
O11   V4    S    
C17   C19   A    
O11   C51   A    
C36   C38   A    
C38   H10   S    
C43   H13   S    
C6    C8    D    
O12   V3    S    
C1    C16   S    
O15   V3    S    
C20   Br2   S    
C32   C34   A    
C2    C15   S    
O2    C4    A    
O6    V2    S    
C30   C42   A    
O18   V4    S    
C50   O17   A    
C25   C33   A    
C28   C30   A    
C41   C47   A    
C30   C32   A    
C37   C39   A    
C42   C48   A    
O17   V3    S    
C38   C40   A    
C43   C45   A    
C15   C47   A    
C16   C48   A    
C47   F9    S    
C7    F5    S    
C23   C27   A    
O5    V1    S    
C3    C12   S    
O16   C52   A    
C5    H1    S    
C40   C44   A    
C35   C37   A    
O4    V2    S    
C10   F8    S    
C34   H6    S    
C45   H7    S    
C8    F6    S    
O6    C4    A    
C29   C41   A    
C22   F2    S    
O13   C49   A    
C21   F1    S    
O1    V2    S    
C14   C51   S    
O2    V1    S    
C27   C29   A    
C13   C52   S    
C26   C34   A    
O4    C2    A    
C31   C33   A    
C39   C41   A    
O9    V2    S    
C18   H12   S    
O3    V1    S    
C48   F10   S    
C32   F4    S    
C8    C49   S    
C6    H2    S    
C24   C26   A    
O3    C1    A    
C46   H8    S    
C11   H3    S    
C13   C19   A    
C12   H4    S    
O16   V4    S    
C14   C20   A    
C4    C11   S    
C17   C25   A    
O7    V1    S    
C16   C46   A    
C1    O8    A    
C21   C23   A    
O8    V2    S    
C22   C24   A    
C28   C36   A    
C9    F7    S    
C27   C35   A    
C36   Br4   S    
C5    C7    D    
C40   C42   A    
C18   C20   A    
C9    C11   D    
C7    C50   S    
C17   H11   S    
C24   C28   A    
O20   V3    S    
O19   V4    S    
C13   C21   A    
C31   F3    S    
O10   V1    S    
O1    C3    A    
O15   C51   A    
C19   Br1   S    
