data_mof_unit_44708.cif
_audit_creation_date              2012-12-10T17:54:15-0500
_audit_creation_method            fapswitch 2.2
_symmetry_space_group_name_H-M    P1
_symmetry_Int_Tables_number       1
_space_group_crystal_system       triclinic
_cell_length_a                    27.688423
_cell_length_b                    10.69078
_cell_length_c                    9.983498
_cell_angle_alpha                 91.692434
_cell_angle_beta                  91.134108
_cell_angle_gamma                 93.30771
_cell_volume                      2948.32904983

loop_
_atom_site_label
_atom_site_type_symbol
_atom_type_description
_atom_site_fract_x
_atom_site_fract_y
_atom_site_fract_z
_atom_type_partial_charge
Br1   Br    Br    0.246502 0.540693 0.782961 -0.388582
Br2   Br    Br    0.139497 0.870113 0.362220 -0.244260
Br3   Br    Br    0.883047 0.883940 0.651022 -0.316247
Br4   Br    Br    0.476626 0.888277 0.034510 -0.508443
Br5   Br    Br    0.604590 0.526781 0.880450 -0.409679
Br6   Br    Br    0.126826 0.135264 0.627914 -0.243460
Br7   Br    Br    0.637485 0.338155 0.255898 -0.353337
Br8   Br    Br    0.756074 0.397107 0.236452 -0.317526
C1    C     C_R   0.496513 0.259418 0.497544 0.859523
C2    C     C_R   0.972739 0.392947 0.507303 0.044578
C3    C     C_R   0.978619 0.620833 0.523075 0.029796
C4    C     C_R   0.406182 0.500260 0.498866 0.875329
C5    C     C_R   0.950301 0.507371 0.516771 0.093603
C6    C     C_R   0.944389 0.284483 0.468661 -0.208234
C7    C     C_R   0.894103 0.284413 0.462411 0.258125
C8    C     C_R   0.871089 0.395459 0.496692 -0.090614
C9    C     C_R   0.899494 0.508549 0.518637 -0.128157
C10   C     C_R   0.877399 0.623002 0.541648 -0.097007
C11   C     C_R   0.826847 0.622935 0.527412 0.581716
C12   C     C_R   0.277086 0.488401 0.374176 -0.110296
C13   C     C_R   0.820829 0.399425 0.507006 0.604614
C14   C     C_R   0.722174 0.454239 0.391883 0.301554
C15   C     C_R   0.671457 0.441848 0.393646 0.217820
C16   C     C_R   0.505749 0.740053 0.502567 0.886825
C17   C     C_R   0.673108 0.569250 0.599998 -0.187762
C18   C     C_R   0.723095 0.570480 0.605059 -0.083752
C19   C     C_R   0.748019 0.513039 0.501934 0.141585
C20   C     C_R   0.023364 0.392704 0.527398 -0.027761
C21   C     C_R   0.051294 0.505591 0.507193 0.039566
C22   C     C_R   0.028235 0.619596 0.493098 -0.023778
C23   C     C_R   0.252899 0.503352 0.494579 0.215994
C24   C     C_R   0.046624 0.286284 0.571431 0.088074
C25   C     C_R   0.105372 0.724558 0.435236 0.309227
C26   C     C_R   0.956963 0.729820 0.566386 -0.202615
C27   C     C_R   0.906923 0.732103 0.576519 0.341619
C28   C     C_R   0.593830 0.498767 0.500295 0.942671
C29   C     C_R   0.054694 0.724989 0.442989 0.094395
C30   C     C_R   0.448079 0.098892 0.700115 -0.190878
C31   C     C_R   0.444458 0.041772 0.823988 -0.170704
C32   C     C_R   0.475954 0.949364 0.856200 0.278331
C33   C     C_R   0.506121 0.903569 0.756868 0.167781
C34   C     C_R   0.101968 0.504434 0.501070 -0.130313
C35   C     C_R   0.500910 0.943657 0.624377 -0.000273
C36   C     C_R   0.480607 0.057223 0.605233 0.074189
C37   C     C_R   0.494148 0.124316 0.491833 -0.109840
C38   C     C_R   0.515079 0.063368 0.383231 -0.126869
C39   C     C_R   0.522213 0.936957 0.389166 -0.123809
C40   C     C_R   0.175577 0.393057 0.510786 0.612490
C41   C     C_R   0.513486 0.875199 0.508741 -0.118253
C42   C     C_R   0.427458 0.362176 0.133757 -0.176137
C43   C     C_R   0.387739 0.306362 0.063560 -0.215810
C44   C     C_R   0.385033 0.313701 0.925500 0.156103
C45   C     C_R   0.125062 0.391577 0.524622 -0.120919
C46   C     C_R   0.423204 0.372610 0.857926 -0.200765
C47   C     C_R   0.461570 0.441099 0.925602 0.105207
C48   C     C_R   0.462736 0.437297 0.069385 0.166688
C49   C     C_R   0.537559 0.549961 0.076833 -0.054821
C50   C     C_R   0.539656 0.538207 0.936077 0.335557
C51   C     C_R   0.180207 0.613353 0.476121 0.610596
C52   C     C_R   0.278778 0.518448 0.616577 0.346225
C53   C     C_R   0.328927 0.517707 0.617346 -0.215370
C54   C     C_R   0.327236 0.487719 0.375079 -0.185849
C55   C     C_R   0.097283 0.283978 0.566027 0.308244
C56   C     C_R   0.129454 0.616140 0.471368 -0.125891
C57   C     C_R   0.353459 0.501749 0.496850 -0.090375
C58   C     C_R   0.646750 0.500730 0.498900 -0.177202
H1    H     H_    0.345337 0.475804 0.280850 0.183632
H2    H     H_    0.569033 0.586295 0.134653 0.191869
H3    H     H_    0.431181 0.339267 0.236735 0.203525
H4    H     H_    0.360231 0.252273 0.116053 0.189216
H5    H     H_    0.423937 0.352936 0.754342 0.192985
H6    H     H_    0.961436 0.200147 0.437509 0.194361
H7    H     H_    0.348533 0.529809 0.712200 0.197785
H8    H     H_    0.979104 0.813179 0.595945 0.207310
H9    H     H_    0.655138 0.623815 0.674391 0.226772
H10   H     H_    0.742617 0.618164 0.688599 0.202810
H11   H     H_    0.525554 0.112671 0.294098 0.205973
H12   H     H_    0.424130 0.170101 0.673929 0.153132
H13   H     H_    0.419375 0.073686 0.897288 0.198316
H14   H     H_    0.256906 0.477073 0.280160 0.177636
H15   H     H_    0.534384 0.887539 0.300959 0.206207
I1    I     I_    0.018277 0.869909 0.341530 -0.187287
I2    I     I_    0.573450 0.834762 0.813522 -0.214786
I3    I     I_    0.325959 0.221946 0.818201 -0.237700
I4    I     I_    0.858341 0.116786 0.380210 -0.016717
I5    I     I_    0.007803 0.144628 0.683973 -0.176514
N1    N     N_R   0.201438 0.503076 0.492530 -0.362993
N2    N     N_R   0.799784 0.512084 0.511493 -0.347296
N3    N     N_R   0.499540 0.498800 0.142780 -0.140589
N4    N     N_R   0.499520 0.498720 0.857170 -0.140268
O1    O     O_R   0.500000 0.316780 0.614690 -0.607727
O2    O     O_R   0.571250 0.499990 0.614680 -0.565442
O3    O     O_R   0.571240 0.499970 0.385350 -0.599723
O4    O     O_2   0.199345 0.286699 0.514504 -0.451129
O5    O     O_2   0.792883 0.292545 0.514914 -0.469172
O6    O     O_2   0.208749 0.719102 0.467655 -0.455539
O7    O     O_2   0.804775 0.731977 0.524897 -0.469878
O8    O     O_R   0.500000 0.316750 0.385360 -0.630539
O9    O     O_R   0.428760 0.500030 0.614650 -0.645848
O10   O     O_R   0.428750 0.500010 0.385320 -0.633515
O11   O     O_R   0.500000 0.683250 0.614640 -0.598601
O12   O     O_R   0.500000 0.683220 0.385310 -0.596021
Zn1   Zn    Zn3+2 0.500000 0.500020 0.653130 1.010228
Zn2   Zn    Zn3+2 0.500000 0.499980 0.346870 0.993090

loop_
_geom_bond_atom_site_label_1
_geom_bond_atom_site_label_2
_ccdc_geom_bond_type
Br6   C55   S    
O9    Zn1   S    
C47   C48   A    
C1    C37   S    
C1    O8    A    
C21   C34   A    
C45   C55   A    
C1    O1    A    
C11   O7    S    
C39   C41   A    
C37   C38   A    
C51   C56   A    
C8    C13   A    
C40   O4    S    
C54   H1    S    
C15   C58   A    
C20   C21   A    
C42   H3    S    
C26   C27   A    
C47   N4    A    
C34   C45   A    
C30   C31   A    
C28   C58   S    
C7    C8    A    
C33   I2    S    
O10   Zn2   S    
C10   C11   A    
C44   I3    S    
C4    O9    A    
O2    Zn1   S    
C46   C47   A    
C28   O3    A    
C46   H5    S    
Br4   C32   S    
C3    C22   A    
C8    C9    A    
Br8   C14   S    
C43   H4    S    
C10   C27   A    
C7    I4    S    
C28   O2    A    
C13   N2    A    
O11   Zn1   S    
C33   C35   A    
O3    Zn2   S    
C44   C46   A    
C42   C43   A    
C51   N1    A    
C40   C45   A    
C23   N1    S    
C12   H14   S    
C43   C44   A    
C20   C24   A    
C11   N2    A    
C2    C6    A    
Br1   C52   S    
C31   C32   A    
C35   C41   A    
C13   O5    S    
C53   H7    S    
C17   C18   A    
C25   C29   A    
C22   C29   A    
C52   C53   A    
C17   H9    S    
C31   H13   S    
C23   C52   A    
C35   C36   A    
C30   C36   A    
C21   C22   A    
C18   H10   S    
Br3   C27   S    
C24   I5    S    
C9    C10   A    
C18   C19   A    
C40   N1    A    
O12   Zn2   S    
C50   N4    A    
C49   N3    A    
C26   H8    S    
Br5   C50   S    
Br2   C25   S    
C48   N3    A    
C14   C19   A    
N3    Zn2   S    
C29   I1    S    
C51   O6    S    
C49   H2    S    
C34   C56   A    
C36   C37   A    
C2    C20   A    
C16   C41   S    
C38   C39   A    
C32   C33   A    
C54   C57   A    
C14   C15   A    
C6    H6    S    
C3    C26   A    
C17   C58   A    
C24   C55   A    
O1    Zn1   S    
C2    C5    A    
C38   H11   S    
C30   H12   S    
C4    C57   S    
C5    C9    A    
C16   O11   A    
C3    C5    A    
C49   C50   A    
C25   C56   A    
Br7   C15   S    
C16   O12   A    
C39   H15   S    
C12   C54   A    
C19   N2    S    
C42   C48   A    
N4    Zn1   S    
C4    O10   A    
C53   C57   A    
C6    C7    A    
O8    Zn2   S    
C12   C23   A    
