data_mof_unit_9130.cif
_audit_creation_date              2012-12-11T17:15:57-0500
_audit_creation_method            fapswitch 2.2
_symmetry_space_group_name_H-M    P1
_symmetry_Int_Tables_number       1
_space_group_crystal_system       triclinic
_cell_length_a                    14.731814
_cell_length_b                    7.31753
_cell_length_c                    13.364077
_cell_angle_alpha                 89.999788
_cell_angle_beta                  99.788098
_cell_angle_gamma                 90.000068
_cell_volume                      1419.68279794

loop_
_atom_site_label
_atom_site_type_symbol
_atom_type_description
_atom_site_fract_x
_atom_site_fract_y
_atom_site_fract_z
_atom_type_partial_charge
O1    O     O_R   0.398210 0.494340 0.401550 -0.538191
O2    O     O_R   0.601790 0.994340 0.598450 -0.538193
O3    O     O_R   0.586310 0.821730 0.403360 -0.511857
O4    O     O_R   0.413690 0.321730 0.596640 -0.511847
C1    C     C_R   0.612266 0.656125 0.378451 0.740318
C2    C     C_R   0.387732 0.156125 0.621548 0.740313
O5    O     O_R   0.397970 0.823900 0.389580 -0.521154
O6    O     O_R   0.602030 0.323900 0.610420 -0.521153
O7    O     O_R   0.412100 0.996500 0.584560 -0.556422
O8    O     O_R   0.587900 0.496500 0.415440 -0.556418
C3    C     C_R   0.365370 0.655357 0.363157 0.734257
C4    C     C_R   0.634630 0.155357 0.636842 0.734253
O9    O     O_3   0.504860 0.661550 0.563990 -0.381761
O10   O     O_3   0.495140 0.161550 0.436010 -0.381760
V1    V     V_3+5 0.499100 0.935510 0.488130 1.538375
V2    V     V_3+5 0.500900 0.435510 0.511870 1.538389
C5    C     C_1   0.715716 0.144747 0.717081 -0.107205
C6    C     C_1   0.284284 0.644747 0.282918 -0.107226
C7    C     C_1   0.783662 0.133844 0.783683 -0.116573
C8    C     C_1   0.216338 0.633843 0.216316 -0.116596
C9    C     C_3   0.265795 0.264484 0.857957 -0.335319
C10   C     C_3   0.734210 0.764499 0.142048 -0.335331
H1    H     H_    0.239025 0.405621 0.859369 0.232206
H2    H     H_    0.760986 0.905635 0.140651 0.232200
H3    H     H_    0.288888 0.227485 0.939028 0.162310
H4    H     H_    0.711120 0.727525 0.060974 0.162311
C11   C     C_3   0.349061 0.256250 0.799222 0.601865
C12   C     C_3   0.650941 0.756255 0.200777 0.601874
H5    H     H_    0.227825 0.371390 0.614580 0.248951
H6    H     H_    0.772178 0.871388 0.385412 0.248946
C13   C     C_3   0.144176 0.200165 0.700066 0.356608
C14   C     C_3   0.855824 0.700142 0.299938 0.356623
C15   C     C_3   0.229192 0.945842 0.799227 -0.339203
C16   C     C_3   0.770799 0.445845 0.200764 -0.339229
C17   C     C_3   0.185431 0.136353 0.810843 -0.177283
C18   C     C_3   0.814569 0.636351 0.189157 -0.177287
H7    H     H_    0.174810 0.844430 0.772074 0.238797
H8    H     H_    0.825175 0.344417 0.227907 0.238794
H9    H     H_    0.266485 0.897433 0.873984 0.228885
H10   H     H_    0.733500 0.397457 0.126006 0.228884
C19   C     C_3   0.317074 0.152506 0.694038 -0.167225
C20   C     C_3   0.682925 0.652507 0.305961 -0.167239
C21   C     C_3   0.222919 0.227892 0.637132 -0.374719
C22   C     C_3   0.777080 0.727886 0.362868 -0.374739
C23   C     C_3   0.295803 0.953838 0.721481 -0.338283
C24   C     C_3   0.704193 0.453839 0.278516 -0.338258
H11   H     H_    0.360767 0.883706 0.753295 0.261791
H12   H     H_    0.639226 0.383708 0.246707 0.261794
H13   H     H_    0.263270 0.882200 0.650982 0.204772
H14   H     H_    0.736729 0.382200 0.349013 0.204774
H15   H     H_    0.100337 0.086190 0.663809 0.115213
H16   H     H_    0.899654 0.586152 0.336192 0.115211
H17   H     H_    0.203748 0.154143 0.563648 0.132807
H18   H     H_    0.796248 0.654144 0.436354 0.132826
O11   O     O_R   0.912140 0.786650 0.084610 -0.504683
O12   O     O_R   0.087860 0.286650 0.915390 -0.504684
O13   O     O_R   0.102040 0.454810 0.110430 -0.543732
O14   O     O_R   0.897960 0.954810 0.889570 -0.543736
C25   C     C_R   0.135038 0.623328 0.136319 0.757606
C26   C     C_R   0.864963 0.123329 0.863680 0.757549
O15   O     O_R   0.913690 0.457060 0.096650 -0.545937
O16   O     O_R   0.086310 0.957060 0.903350 -0.545931
O17   O     O_R   0.898200 0.284560 0.901540 -0.527859
O18   O     O_R   0.101800 0.784560 0.098460 -0.527832
C27   C     C_R   0.886456 0.625639 0.119184 0.743500
C28   C     C_R   0.113543 0.125640 0.880816 0.743462
O19   O     O_3   0.995160 0.617270 0.936040 -0.364363
O20   O     O_3   0.004840 0.117270 0.063960 -0.364347
V3    V     V_3+5 0.000900 0.343280 0.011870 1.577751
V4    V     V_3+5 0.999100 0.843280 0.988130 1.577765
Br1   Br    Br    0.451523 0.127321 0.884496 -0.347198
Br2   Br    Br    0.548482 0.627330 0.115496 -0.347195
S1    S     S_3+6 0.392141 0.484607 0.788297 0.034827
O21   O     O_2   0.385990 0.592649 0.882604 -0.292293
O22   O     O_2   0.491342 0.480181 0.774258 -0.304642
O23   O     O_3   0.327960 0.585458 0.688387 -0.550658
H19   H     H_    0.371619 0.635779 0.647166 0.351275
S2    S     S_3+6 0.607859 0.984608 0.211702 0.034820
O24   O     O_2   0.614003 0.092645 0.117390 -0.292283
O25   O     O_2   0.508660 0.980179 0.225748 -0.304645
O26   O     O_3   0.672045 0.085463 0.311606 -0.550661
H20   H     H_    0.628388 0.135754 0.352843 0.351267
S3    S     S_3+6 0.067168 0.393740 0.687500 0.006615
O27   O     O_2   0.102806 0.542860 0.760631 -0.347189
O28   O     O_2   0.056006 0.467027 0.580980 -0.312895
O29   O     O_3   0.963596 0.325101 0.709410 -0.519022
H21   H     H_    0.924201 0.435429 0.698799 0.356976
S4    S     S_3+6 0.932846 0.893694 0.312516 0.006625
O30   O     O_2   0.897200 0.042865 0.239427 -0.347157
O31   O     O_2   0.944043 0.966902 0.419050 -0.312912
O32   O     O_3   0.036396 0.825054 0.290552 -0.519013
H22   H     H_    0.075835 0.935325 0.301274 0.356953

loop_
_geom_bond_atom_site_label_1
_geom_bond_atom_site_label_2
_ccdc_geom_bond_type
C1    C20   S    
C3    C6    S    
C15   C23   S    
S1    O21   D    
O1    C3    A    
O2    C4    A    
C2    O7    A    
O26   H20   S    
C11   Br1   S    
O5    C3    A    
C25   O18   A    
C15   H9    S    
C13   C21   S    
C26   O17   A    
C16   H10   S    
C14   C18   S    
C10   H2    S    
S2    O25   D    
O13   C25   A    
O14   C26   A    
C14   S4    S    
C13   S3    S    
O16   V4    S    
C20   C24   S    
C14   H16   S    
C5    C7    T    
C21   H17   S    
O17   V3    S    
O20   V3    S    
C2    C19   S    
C4    C5    S    
C16   C24   S    
O18   V4    S    
C12   S2    S    
C16   C18   S    
O5    V1    S    
C9    C11   S    
O6    V2    S    
C10   C12   S    
H5    C21   S    
C19   C21   S    
H6    C22   S    
C12   Br2   S    
C20   C22   S    
O11   C27   A    
C23   H11   S    
C24   H12   S    
O16   C28   A    
O23   H19   S    
O4    C2    A    
O32   H22   S    
O29   H21   S    
O14   V4    S    
C17   C28   S    
C15   H7    S    
C16   H8    S    
O4    V2    S    
C22   H18   S    
C11   C19   S    
S3    O27   D    
S4    O32   S    
C23   H13   S    
O6    C4    A    
C14   C22   S    
O1    V2    S    
C8    C25   S    
O2    V1    S    
S3    O28   D    
S4    O31   D    
C9    H1    S    
S1    O23   S    
C13   C17   S    
S1    O22   D    
O3    V1    S    
O15   V3    S    
C9    H3    S    
C18   C27   S    
C13   H15   S    
O3    C1    A    
C9    C17   S    
C7    C26   S    
C10   C18   S    
C24   H14   S    
O19   V4    S    
O7    V1    S    
C1    O8    A    
O8    V2    S    
S2    O24   D    
S2    O26   S    
O12   C28   A    
C12   C20   S    
C15   C17   S    
C6    C8    T    
O11   V4    S    
O15   C27   A    
S3    O29   S    
S4    O30   D    
O12   V3    S    
C10   H4    S    
O9    V2    S    
C19   C23   S    
O10   V1    S    
O13   V3    S    
C11   S1    S    
