data_mof_unit_26375.cif
_audit_creation_date              2012-12-10T16:59:14-0500
_audit_creation_method            fapswitch 2.2
_symmetry_space_group_name_H-M    P1
_symmetry_Int_Tables_number       1
_space_group_crystal_system       triclinic
_cell_length_a                    7.75814
_cell_length_b                    8.548606
_cell_length_c                    27.31211
_cell_angle_alpha                 91.380999
_cell_angle_beta                  85.332451
_cell_angle_gamma                 94.113276
_cell_volume                      1800.41277192

loop_
_atom_site_label
_atom_site_type_symbol
_atom_type_description
_atom_site_fract_x
_atom_site_fract_y
_atom_site_fract_z
_atom_type_partial_charge
C1    C     C_R   0.546142 0.794893 0.498798 0.955676
C2    C     C_R   0.741136 0.610324 0.120183 -0.050475
C3    C     C_R   0.507980 0.475875 0.647486 -0.127732
C4    C     C_R   0.509954 0.521232 0.352226 -0.134388
C5    C     C_R   0.780202 0.572560 0.016806 0.097564
C6    C     C_R   0.647161 0.287193 0.973596 0.093675
C7    C     C_R   0.666911 0.296740 0.024855 -0.033510
C8    C     C_R   0.778656 0.557281 0.964998 -0.031449
C9    C     C_R   0.720935 0.442974 0.046430 0.085153
C10   C     C_R   0.699895 0.418873 0.944096 0.087244
C11   C     C_R   0.835988 0.714573 0.040193 -0.265726
C12   C     C_R   0.453856 0.205112 0.501287 0.949135
C13   C     C_R   0.571653 0.151453 0.951044 -0.237997
C14   C     C_R   0.822163 0.733904 0.091329 -0.022226
C15   C     C_R   0.541199 0.145573 0.901382 -0.021565
C16   C     C_R   0.501547 0.497858 0.594381 0.890178
C17   C     C_R   0.499728 0.502700 0.405698 0.877113
C18   C     C_R   0.847748 0.678100 0.933254 -0.325982
C19   C     C_R   0.627374 0.166830 0.055892 -0.253557
C20   C     C_2   0.570300 0.958655 0.498108 -0.334126
C21   C     C_2   0.429688 0.041361 0.502135 -0.316447
C22   C     C_R   0.686034 0.542105 0.814872 0.596730
C23   C     C_R   0.669860 0.414132 0.893512 -0.121089
C24   C     C_R   0.646137 0.353382 0.179238 0.624029
C25   C     C_R   0.528298 0.293229 0.824750 0.667997
C26   C     C_R   0.680424 0.630237 0.169760 0.644692
C27   C     C_R   0.663385 0.360532 0.710244 -0.018407
C28   C     C_R   0.704677 0.598117 0.281456 -0.001137
C29   C     C_R   0.639995 0.386448 0.661335 -0.184249
C30   C     C_R   0.661400 0.600354 0.331644 -0.215645
C31   C     C_R   0.388889 0.536895 0.683705 -0.142771
C32   C     C_R   0.385411 0.453966 0.321666 -0.146818
C33   C     C_R   0.408366 0.509418 0.733878 -0.067384
C34   C     C_R   0.709849 0.460989 0.098211 -0.134371
C35   C     C_R   0.422686 0.456786 0.269841 -0.072310
C36   C     C_R   0.546848 0.423022 0.746740 0.148234
C37   C     C_R   0.587524 0.522336 0.250105 0.142992
C38   C     C_2   0.248538 0.631912 0.669520 1.032044
C39   C     C_2   0.221007 0.377361 0.343744 1.050354
C40   C     C_2   0.293386 0.579491 0.773587 0.977489
C41   C     C_2   0.296485 0.383491 0.235921 0.999851
C42   C     C_2   0.878899 0.667627 0.263736 1.045747
C43   C     C_2   0.816480 0.274420 0.721555 1.011456
C44   C     C_2   0.912502 0.876423 0.112898 1.046863
C45   C     C_R   0.726722 0.543948 0.863818 -0.173896
C46   C     C_2   0.479363 0.990941 0.880869 1.022295
C47   C     C_R   0.661991 0.330629 0.128202 -0.164240
C48   C     C_R   0.822514 0.671827 0.883688 0.683462
C49   C     C_R   0.625460 0.183224 0.106572 0.724956
C50   C     C_R   0.580026 0.281538 0.872816 -0.055002
F1    F     F_    0.027828 0.349108 0.458974 -0.545617
F2    F     F_    0.971502 0.648718 0.541855 -0.555774
F3    F     F_    0.889907 0.794204 0.855725 -0.563557
F4    F     F_    0.576694 0.055177 0.134186 -0.591843
H1    H     H_    0.753761 0.656133 0.355527 0.198279
H2    H     H_    0.959771 0.370798 0.350439 0.372280
H3    H     H_    0.151010 0.549754 0.838282 0.350149
H4    H     H_    0.200489 0.383623 0.169358 0.365861
H5    H     H_    0.089602 0.658713 0.216253 0.393537
H6    H     H_    0.040933 0.183889 0.696036 0.373773
H7    H     H_    0.036956 0.974937 0.169294 0.385696
H8    H     H_    0.318451 0.795755 0.889632 0.352284
H9    H     H_    0.727616 0.336384 0.633271 0.212172
H10   H     H_    0.890557 0.814177 0.019564 0.180436
H11   H     H_    0.533368 0.046463 0.971248 0.166603
H12   H     H_    0.922883 0.780359 0.945341 0.196741
H13   H     H_    0.597295 0.049579 0.042387 0.169705
H14   H     H_    0.702785 0.010533 0.494240 0.209793
H15   H     H_    0.297203 0.989484 0.506026 0.209795
H16   H     H_    0.182748 0.816632 0.632207 0.371162
N1    N     N_R   0.585490 0.420000 0.797017 -0.359478
N2    N     N_R   0.640175 0.502045 0.198666 -0.342357
N3    N     N_2   0.950320 0.457960 0.486880 0.252495
N4    N     N_2   0.049680 0.542040 0.513120 0.257739
O1    O     O_R   0.389250 0.738570 0.503220 -0.603738
O2    O     O_2   0.629211 0.229100 0.209241 -0.434951
O3    O     O_2   0.655327 0.774976 0.188500 -0.443844
O4    O     O_2   0.419169 0.182103 0.805844 -0.460301
O5    O     O_2   0.098059 0.597616 0.684534 -0.561770
O6    O     O_R   0.289116 0.761540 0.639398 -0.767005
O7    O     O_2   0.224035 0.264807 0.370371 -0.540935
O8    O     O_R   0.062967 0.432848 0.333460 -0.783333
O9    O     O_2   0.259749 0.716726 0.771715 -0.511065
O10   O     O_R   0.225492 0.488802 0.813468 -0.776715
O11   O     O_2   0.204200 0.266484 0.247939 -0.542947
O12   O     O_R   0.610750 0.261430 0.496780 -0.613274
O13   O     O_R   0.287710 0.445379 0.189306 -0.812678
O14   O     O_2   0.940589 0.785345 0.284075 -0.550117
O15   O     O_R   0.975052 0.597264 0.224936 -0.786065
O16   O     O_2   0.833547 0.232203 0.763202 -0.562890
O17   O     O_R   0.942915 0.241113 0.683955 -0.783161
O18   O     O_2   0.941682 0.995489 0.088783 -0.647067
O19   O     O_R   0.975668 0.871752 0.159282 -0.737397
O20   O     O_2   0.549626 0.939906 0.842666 -0.486824
O21   O     O_R   0.346900 0.899871 0.906767 -0.800841
O22   O     O_R   0.678390 0.711630 0.494810 -0.581015
O23   O     O_R   0.321610 0.288370 0.505190 -0.570199
O24   O     O_R   0.355440 0.513440 0.575450 -0.598081
O25   O     O_R   0.644560 0.486560 0.424550 -0.617182
O26   O     O_R   0.644590 0.486500 0.567040 -0.586421
O27   O     O_R   0.355410 0.513500 0.432960 -0.579002
O28   O     O_2   0.743825 0.661902 0.785169 -0.398460
Zn1   Zn    Zn3+2 0.306940 0.517990 0.505620 1.148047
Zn2   Zn    Zn3+2 0.693060 0.482010 0.494380 1.126924

loop_
_geom_bond_atom_site_label_1
_geom_bond_atom_site_label_2
_ccdc_geom_bond_type
C29   H9    S    
C23   C45   A    
C27   C29   A    
C26   N2    A    
N3    N4    D    
C40   O10   S    
O12   Zn2   S    
H4    O13   S    
C47   C49   A    
C13   H11   S    
C35   C37   A    
C5    C11   A    
F2    N4    S    
C11   C14   A    
H7    O19   S    
C32   C39   S    
C38   O5    D    
C49   F4    S    
O26   Zn2   S    
C33   C36   A    
H5    O15   S    
C15   C50   A    
C28   C42   S    
C3    C29   A    
C17   O27   A    
C25   C50   A    
C44   O19   S    
N3    Zn2   S    
C46   O21   S    
H6    O17   S    
C31   C33   A    
C19   H13   S    
C25   N1    A    
C44   O18   D    
C36   N1    S    
C2    C34   A    
O25   Zn2   S    
O27   Zn1   S    
H8    O21   S    
O1    Zn1   S    
C40   O9    D    
C35   C41   S    
C48   F3    S    
C41   O13   S    
C33   C40   S    
H16   O6    S    
C25   O4    S    
C26   O3    S    
C32   C35   A    
C39   O7    D    
C11   H10   S    
C24   O2    S    
C23   C50   A    
C43   O16   D    
C12   C21   S    
C43   O17   S    
C21   H15   S    
C1    O1    A    
C5    C9    A    
C19   C49   A    
C46   O20   D    
H3    O10   S    
C2    C26   A    
C4    C32   A    
C3    C31   A    
C17   O25   A    
C12   O23   A    
O23   Zn1   S    
C4    C17   S    
C7    C19   A    
O22   Zn2   S    
C9    C34   A    
C10   C23   A    
C42   O14   D    
C22   N1    A    
C24   N2    A    
C14   C44   S    
C45   C48   A    
C7    C9    A    
C1    C20   S    
C24   C47   A    
C20   H14   S    
C16   O26   A    
F1    N3    S    
C39   O8    S    
C18   C48   A    
C6    C10   A    
C5    C8    A    
H2    O8    S    
C6    C7    A    
C27   C36   A    
C18   H12   S    
C41   O11   D    
C30   H1    S    
C22   O28   S    
C31   C38   S    
C12   O12   A    
C42   O15   S    
C13   C15   A    
C6    C13   A    
C16   O24   A    
C38   O6    S    
C28   C37   A    
C1    O22   A    
C28   C30   A    
C2    C14   A    
C8    C18   A    
C27   C43   S    
C22   C45   A    
C20   C21   D    
C8    C10   A    
C37   N2    S    
C34   C47   A    
C15   C46   S    
C4    C30   A    
C3    C16   S    
O24   Zn1   S    
N4    Zn1   S    
