data_mof_unit_41339.cif
_audit_creation_date              2012-12-10T18:43:06-0500
_audit_creation_method            fapswitch 2.2
_symmetry_space_group_name_H-M    P1
_symmetry_Int_Tables_number       1
_space_group_crystal_system       triclinic
_cell_length_a                    10.717666
_cell_length_b                    9.832246
_cell_length_c                    10.732629
_cell_angle_alpha                 90.543755
_cell_angle_beta                  90.048439
_cell_angle_gamma                 89.980955
_cell_volume                      1130.93940394

loop_
_atom_site_label
_atom_site_type_symbol
_atom_type_description
_atom_site_fract_x
_atom_site_fract_y
_atom_site_fract_z
_atom_type_partial_charge
C1    C     C_R   0.259871 0.499954 0.500037 0.844404
C2    C     C_R   0.740144 0.499930 0.500093 0.873315
C3    C     C_R   0.493312 0.498957 0.262428 0.828131
C4    C     C_R   0.503883 0.500363 0.737605 0.812703
C5    C     C_2   0.446508 0.403237 0.930863 0.153610
C6    C     C_2   0.472326 0.386087 0.061441 0.135901
C7    C     C_2   0.515261 0.496650 0.870618 0.315150
C8    C     C_2   0.452348 0.496015 0.135062 0.318124
C9    C     C_R   0.063956 0.377617 0.479820 -0.198477
C10   C     C_R   0.936153 0.377588 0.479940 -0.196466
C11   C     C_R   0.872598 0.499898 0.500155 -0.008025
C12   C     C_R   0.127452 0.499954 0.499922 -0.016248
C13   C     C_R   0.936111 0.622228 0.520280 -0.194557
C14   C     C_R   0.063907 0.622271 0.520057 -0.204576
C15   C     C_R   0.594085 0.072524 0.556294 -0.078415
C16   C     C_R   0.405080 0.071397 0.445132 -0.113409
C17   C     C_R   0.593998 0.928602 0.556450 -0.084119
C18   C     C_R   0.405474 0.927489 0.444435 -0.061517
H1    H     H_    0.112593 0.282484 0.463434 0.148650
H2    H     H_    0.887549 0.282441 0.463608 0.152250
H3    H     H_    0.887486 0.717350 0.536765 0.147449
H4    H     H_    0.112508 0.717432 0.536325 0.153527
H5    H     H_    0.669252 0.127461 0.601401 0.130358
H6    H     H_    0.329614 0.125434 0.400492 0.129403
H7    H     H_    0.669068 0.874564 0.601741 0.113854
H8    H     H_    0.330228 0.872565 0.399419 0.128806
N1    N     N_R   0.500000 0.857200 0.500000 -0.075250
N2    N     N_R   0.500000 0.142810 0.500000 -0.076951
O1    O     O_R   0.316770 0.614620 0.499990 -0.634580
O2    O     O_R   0.683230 0.614620 0.500010 -0.630677
O3    O     O_R   0.316800 0.385290 0.500000 -0.629645
O4    O     O_R   0.683200 0.385290 0.500000 -0.627849
O5    O     O_R   0.500000 0.614630 0.319080 -0.574132
O6    O     O_R   0.500000 0.614630 0.680920 -0.629242
O7    O     O_R   0.500030 0.385300 0.319080 -0.636798
O8    O     O_R   0.499970 0.385300 0.680920 -0.610545
Zn1   Zn    Zn3+2 0.500000 0.653120 0.500000 0.949297
Zn2   Zn    Zn3+2 0.500000 0.346880 0.500000 0.933245
N3    N     N_2   0.337962 0.340471 0.878176 -0.329792
H9    H     H_    0.288154 0.397933 0.815368 0.211174
C19   C     C_3   0.348722 0.197819 0.844658 -0.715040
H10   H     H_    0.325438 0.182812 0.744530 0.242136
H11   H     H_    0.282133 0.138011 0.901151 0.228516
H12   H     H_    0.444703 0.158419 0.859841 0.248304
N4    N     N_2   0.551300 0.275524 0.095589 -0.311546
H13   H     H_    0.630658 0.298473 0.146000 0.233028
C20   C     C_3   0.490798 0.148611 0.126194 -0.739655
H14   H     H_    0.522498 0.068052 0.060427 0.234597
H15   H     H_    0.387396 0.156723 0.121437 0.237318
H16   H     H_    0.517662 0.117939 0.221616 0.248021
O9    O     O_3   0.617139 0.556769 0.931156 -0.632156
C21   C     C_3   0.631794 0.694186 0.897752 -0.242669
H17   H     H_    0.541125 0.749542 0.894864 0.185075
H18   H     H_    0.682087 0.701955 0.807635 0.160844
H19   H     H_    0.690289 0.745224 0.969517 0.179390
O10   O     O_3   0.391552 0.609905 0.088883 -0.607592
C22   C     C_3   0.265896 0.606336 0.127616 -0.347512
H20   H     H_    0.257976 0.617438 0.230536 0.170284
H21   H     H_    0.218727 0.511391 0.095414 0.164705
H22   H     H_    0.215999 0.693294 0.085274 0.195872

loop_
_geom_bond_atom_site_label_1
_geom_bond_atom_site_label_2
_ccdc_geom_bond_type
C16   N2    A    
C4    O8    A    
C15   C17   A    
C6    N4    S    
O4    Zn2   S    
C7    O9    S    
O6    Zn1   S    
C11   C13   A    
C9    C10   A    
C20   H14   S    
C18   H8    S    
O3    Zn2   S    
N2    Zn2   S    
C2    O2    A    
C17   H7    S    
C14   H4    S    
C15   H5    S    
C22   H20   S    
C13   H3    S    
C16   H6    S    
C16   C18   A    
N4    H13   S    
C21   H17   S    
C19   H11   S    
C8    O10   S    
C15   N2    A    
C1    C12   S    
C10   H2    S    
N1    Zn1   S    
C4    C7    S    
C2    C11   S    
C2    O4    A    
C19   H12   S    
C21   H19   S    
C21   H18   S    
C20   H16   S    
C5    N3    S    
C5    C6    S    
C9    C12   A    
C4    O6    A    
C22   H21   S    
C10   C11   A    
C1    O1    A    
C3    O7    A    
O8    Zn2   S    
C17   N1    A    
C1    O3    A    
O7    Zn2   S    
O10   C22   S    
N3    C19   S    
C20   H15   S    
C3    C8    S    
C19   H10   S    
N4    C20   S    
O1    Zn1   S    
N3    H9    S    
C5    C7    D    
C3    O5    A    
C22   H22   S    
C6    C8    D    
C13   C14   A    
C9    H1    S    
O5    Zn1   S    
C18   N1    A    
O9    C21   S    
O2    Zn1   S    
C12   C14   A    
