data_mof_unit_56402.cif
_audit_creation_date              2012-12-11T18:09:07-0500
_audit_creation_method            fapswitch 2.2
_symmetry_space_group_name_H-M    P1
_symmetry_Int_Tables_number       1
_space_group_crystal_system       triclinic
_cell_length_a                    8.332702
_cell_length_b                    12.788289
_cell_length_c                    19.147732
_cell_angle_alpha                 100.262495
_cell_angle_beta                  91.972591
_cell_angle_gamma                 98.026943
_cell_volume                      1984.40265311

loop_
_atom_site_label
_atom_site_type_symbol
_atom_type_description
_atom_site_fract_x
_atom_site_fract_y
_atom_site_fract_z
_atom_type_partial_charge
Ba1   Ba    Ba6+2 0.853180 0.547790 0.465300 1.667807
Ba2   Ba    Ba6+2 0.336650 0.452300 0.534710 1.673524
C1    C     C_3   0.555584 0.910684 0.250630 -0.212044
C2    C     C_3   0.575031 0.824143 0.295194 0.396211
C3    C     C_3   0.472671 0.294525 0.321740 0.366177
C4    C     C_3   0.445908 0.273638 0.240875 -0.425584
C5    C     C_3   0.096191 0.228405 0.727710 0.391677
C6    C     C_3   0.127907 0.193774 0.798493 0.181622
C7    C     C_3   0.584954 0.175647 0.712940 0.368595
C8    C     C_3   0.469006 0.091224 0.662131 -0.293072
C9    C     C_R   0.056709 0.571004 0.802585 -0.221145
C10   C     C_R   0.018659 0.549709 0.727913 0.007527
C11   C     C_R   0.857277 0.419778 0.812331 -0.175143
C12   C     C_3   0.078514 0.740315 0.265105 0.513432
C13   C     C_R   0.786861 0.426432 0.746328 -0.010609
C14   C     C_R   0.335581 0.582155 0.188934 -0.152790
C15   C     C_R   0.403736 0.575088 0.255175 0.017924
C16   C     C_R   0.128678 0.437616 0.200389 -0.157725
C17   C     C_R   0.165049 0.460877 0.275261 0.091495
C18   C     C_R   0.985481 0.498836 0.846611 0.053081
C19   C     C_R   0.876492 0.480590 0.701264 0.178082
C20   C     C_R   0.203391 0.506268 0.155244 -0.015869
C21   C     C_R   0.309994 0.525008 0.301205 -0.258097
C22   C     C_R   0.760262 0.442208 0.958446 -0.079876
C23   C     C_3   0.016721 0.749694 0.190377 0.230317
C24   C     C_R   0.656230 0.391533 0.001205 -0.066480
C25   C     C_R   0.704468 0.397093 0.071385 -0.073038
C26   C     C_R   0.858930 0.447591 0.096317 -0.093477
C27   C     C_R   0.980898 0.472682 0.049909 0.013810
C28   C     C_R   0.928770 0.471927 0.977082 0.027810
C29   C     C_R   0.147751 0.501793 0.075579 -0.017772
C30   C     C_R   0.260038 0.531327 0.024286 0.030762
C31   C     C_R   0.207778 0.531579 0.951609 0.045044
C32   C     C_R   0.040945 0.502687 0.926071 0.036806
C33   C     C_R   0.428835 0.558353 0.042423 -0.086027
C34   C     C_3   0.102278 0.805903 0.659039 0.309684
C35   C     C_R   0.533833 0.608438 0.999835 -0.081768
C36   C     C_R   0.485578 0.604091 0.929841 -0.081238
C37   C     C_R   0.329653 0.556278 0.904976 -0.044514
C38   C     C_R   0.740431 0.182046 0.534683 -0.270070
C39   C     C_R   0.427788 0.805517 0.467213 -0.262413
C40   C     C_R   0.398424 0.980190 0.441818 -0.127326
C41   C     C_R   0.336381 0.871839 0.436436 -0.045954
C42   C     C_R   0.575584 0.846973 0.506770 0.074822
C43   C     C_R   0.637731 0.958500 0.512920 -0.043012
C44   C     C_R   0.548184 0.025179 0.479196 -0.061973
C45   C     C_3   0.069164 0.887915 0.723197 -0.359978
C46   C     C_R   0.606858 0.136823 0.487669 0.038989
C47   C     C_R   0.839538 0.117205 0.560473 -0.011089
C48   C     C_R   0.785602 0.006405 0.552068 -0.068172
C49   C     C_3   0.934630 0.184898 0.332416 0.575120
C50   C     C_3   0.971660 0.069999 0.301955 0.288937
C51   C     C_3   0.671932 0.716392 0.686779 0.384331
C52   C     C_3   0.608980 0.758402 0.758255 -0.342041
H1    H     H_    0.626721 0.861945 0.349225 0.036077
H2    H     H_    0.182582 0.943033 0.744668 0.105991
H3    H     H_    0.976596 0.935656 0.708136 0.112717
H4    H     H_    0.021903 0.845345 0.765489 0.087015
H5    H     H_    0.920926 0.045539 0.246118 0.058916
H6    H     H_    0.788656 0.689068 0.697419 -0.166946
H7    H     H_    0.585900 0.646641 0.659698 0.093889
H8    H     H_    0.675631 0.954504 0.243207 0.135424
H9    H     H_    0.700665 0.821298 0.789991 0.087283
H10   H     H_    0.581637 0.691819 0.787428 0.071663
H11   H     H_    0.497312 0.793155 0.750960 0.141517
H12   H     H_    0.453096 0.783799 0.302776 -0.096774
H13   H     H_    0.481982 0.969312 0.279388 0.088200
H14   H     H_    0.370225 0.331793 0.345712 -0.012526
H15   H     H_    0.586021 0.352333 0.335586 0.104155
H16   H     H_    0.314865 0.255136 0.224580 0.104498
H17   H     H_    0.494584 0.346828 0.220421 0.073891
H18   H     H_    0.507757 0.206386 0.215899 0.135481
H19   H     H_    0.079318 0.699112 0.150084 -0.003249
H20   H     H_    0.188352 0.298332 0.723366 0.107215
H21   H     H_    0.972826 0.251479 0.726391 -0.075515
H22   H     H_    0.242978 0.158486 0.797820 0.089896
H23   H     H_    0.026254 0.131007 0.806397 0.015977
H24   H     H_    0.688175 0.204942 0.682141 -0.032443
H25   H     H_    0.531319 0.023109 0.639817 0.046321
H26   H     H_    0.423052 0.127047 0.617945 0.148946
H27   H     H_    0.015861 0.663934 0.277597 0.006883
H28   H     H_    0.365488 0.059988 0.691170 0.126872
H29   H     H_    0.145873 0.639968 0.824384 0.063410
H30   H     H_    0.805545 0.355125 0.837336 0.092420
H31   H     H_    0.391121 0.645787 0.164123 0.066569
H32   H     H_    0.040385 0.367993 0.179017 0.069352
H33   H     H_    0.354572 0.530569 0.355686 0.061179
H34   H     H_    0.701901 0.462121 0.912810 0.076148
H35   H     H_    0.531125 0.361584 0.982747 0.088451
H36   H     H_    0.617434 0.371472 0.107840 0.074225
H37   H     H_    0.209127 0.737355 0.264401 -0.171150
H38   H     H_    0.877525 0.468992 0.152393 0.121363
H39   H     H_    0.486452 0.536482 0.087497 0.081040
H40   H     H_    0.659431 0.636728 0.018171 0.072520
H41   H     H_    0.573798 0.628396 0.893559 0.067521
H42   H     H_    0.309674 0.536379 0.848750 0.138156
H43   H     H_    0.323898 0.029648 0.420152 0.095718
H44   H     H_    0.859878 0.959409 0.576639 0.095516
H45   H     H_    0.780485 0.267768 0.543604 0.114881
H46   H     H_    0.378000 0.722026 0.464332 0.070621
H47   H     H_    0.885172 0.717448 0.181423 0.069043
H48   H     H_    0.986185 0.756336 0.638916 0.076825
O1    O     O_2   0.875110 0.423180 0.326290 -0.464418
O2    O     O_3   0.696117 0.800696 0.648395 -0.658277
O3    O     O_3   0.050797 0.829300 0.315529 -0.525086
O4    O     O_2   0.314600 0.576860 0.673750 -0.461376
O5    O     O_3   0.066300 0.567050 0.585060 -0.456379
O6    O     O_3   0.528700 0.375020 0.630330 -0.420048
O7    O     O_3   0.216107 0.746100 0.680004 -0.633733
O8    O     O_3   0.611760 0.365720 0.463870 -0.471098
O9    O     O_3   0.107460 0.315620 0.594570 -0.463849
O10   O     O_2   0.165493 0.119814 0.539758 -0.479569
O11   O     O_3   0.108136 0.142262 0.672473 -0.665346
O12   O     O_3   0.123410 0.433040 0.414950 -0.493227
O13   O     O_3   0.577950 0.634370 0.536140 -0.502297
O14   O     O_2   0.341900 0.231310 0.465740 -0.482515
O15   O     O_3   0.486273 0.198383 0.346460 -0.615974
O16   O     O_2   0.466912 0.460429 0.758637 -0.510472
O17   O     O_3   0.495735 0.256364 0.744281 -0.594063
O18   O     O_3   0.661010 0.625070 0.369680 -0.462784
O19   O     O_2   0.727893 0.552116 0.240135 -0.534523
O20   O     O_3   0.042852 0.256244 0.303514 -0.695113
O21   O     O_3   0.680006 0.754582 0.263665 -0.580993
O22   O     O_2   0.847800 0.768730 0.534310 -0.487424
O23   O     O_3   0.082250 0.684470 0.405440 -0.498314
O24   O     O_2   0.004334 0.872964 0.450178 -0.431982
P1    P     P_3+3 0.042930 0.392230 0.337410 0.979636
P2    P     P_3+3 0.672230 0.754900 0.555730 0.949273
P3    P     P_3+3 0.123503 0.818742 0.400718 0.999756
P4    P     P_3+3 0.146790 0.607860 0.662600 0.992665
P5    P     P_3+3 0.052254 0.176079 0.591515 0.927713
P6    P     P_3+3 0.617328 0.625831 0.280937 0.935304
P7    P     P_3+3 0.518025 0.229924 0.439257 0.954935
P8    P     P_3+3 0.570691 0.379251 0.720661 0.978361
O25   O     O_3   0.775683 0.191910 0.310328 -0.755652
H49   H     H_    0.772757 0.190251 0.258272 0.285055
C53   C     C_3   0.955887 0.209849 0.413551 -0.178524
H50   H     H_    0.882315 0.272644 0.434729 0.065358
H51   H     H_    0.925594 0.137847 0.436720 0.042607
H52   H     H_    0.082091 0.241788 0.431043 0.127851
O26   O     O_3   0.904629 0.994214 0.341465 -0.681964
H53   H     H_    0.794566 0.009792 0.353140 0.280668
C54   C     C_3   0.153946 0.068042 0.298745 -0.196304
H54   H     H_    0.187525 0.986817 0.291143 0.167076
H55   H     H_    0.199326 0.102903 0.253047 0.082763
H56   H     H_    0.214332 0.115368 0.348558 0.096634
C55   C     C_3   0.476036 0.864789 0.176424 -0.399611
H57   H     H_    0.550221 0.808381 0.146067 0.132155
H58   H     H_    0.351834 0.823217 0.179968 0.166041
H59   H     H_    0.466909 0.931357 0.147063 0.128954
O27   O     O_3   0.140587 0.282794 0.854138 -0.746530
H60   H     H_    0.147987 0.253264 0.899144 0.297263
C56   C     C_3   0.655409 0.123234 0.771090 -0.378462
H61   H     H_    0.752778 0.180017 0.804160 0.098297
H62   H     H_    0.558537 0.097344 0.805968 0.118406
H63   H     H_    0.711125 0.052305 0.746792 0.090334
O28   O     O_3   0.823869 0.463023 0.630808 -0.707558
H64   H     H_    0.796820 0.532583 0.621263 0.291397
O29   O     O_3   0.048271 0.856452 0.180125 -0.732901
H65   H     H_    0.950731 0.871572 0.154218 0.300140
C57   C     C_3   0.174168 0.860261 0.600699 -0.247514
H66   H     H_    0.304502 0.889172 0.613529 0.068032
H67   H     H_    0.162956 0.800522 0.551194 0.102168
H68   H     H_    0.112956 0.928399 0.592258 0.114565

loop_
_geom_bond_atom_site_label_1
_geom_bond_atom_site_label_2
_ccdc_geom_bond_type
C54   H56   S    
C1    C55   S    
O28   H64   S    
O21   P6    S    
C55   H57   S    
Ba1   P2    S    
O15   P7    S    
C38   H45   S    
C57   H66   S    
O25   H49   S    
C52   H11   S    
C43   C44   A    
C24   H35   S    
C4    H18   S    
C47   P5    S    
C11   H30   S    
C24   C25   A    
C31   C37   A    
C10   P4    S    
C34   C45   S    
C26   C27   A    
C55   H58   S    
C35   C36   A    
C22   C24   A    
C14   H31   S    
C16   C17   A    
O5    P4    S    
C3    C4    S    
C52   H9    S    
C51   O2    S    
C38   C47   A    
C54   H55   S    
Ba2   O5    S    
C6    H22   S    
C25   H36   S    
C34   H48   S    
Ba1   Ba2   S    
C40   C44   A    
C17   P1    S    
O20   P1    S    
C38   C46   A    
C3    H15   S    
Ba2   P4    S    
C49   O25   S    
C12   O3    S    
C42   P2    S    
O29   H65   S    
C14   C15   A    
C36   H41   S    
C23   O29   S    
O27   H60   S    
C56   H62   S    
O1    P1    D    
C7    C8    S    
Ba1   O1    S    
O16   P8    D    
O22   P2    D    
C18   C32   S    
C7    C56   S    
C12   C23   S    
C21   H33   S    
C15   P6    S    
C39   C41   A    
Ba2   O14   S    
C3    H14   S    
C57   H67   S    
C51   H6    S    
C5    H20   S    
C33   H39   S    
C4    H17   S    
Ba2   O9    S    
C53   H52   S    
C44   C46   A    
C9    C18   A    
C48   H44   S    
O17   P8    S    
C20   C29   S    
C28   C32   A    
C49   C50   S    
C50   C54   S    
C30   C33   A    
C46   P7    S    
C41   P3    S    
C6    O27   S    
C36   C37   A    
C40   H43   S    
C13   P8    S    
C8    H26   S    
C5    H21   S    
O14   P7    D    
O24   P3    D    
C9    H29   S    
C51   C52   S    
C10   C19   A    
C8    H28   S    
O13   P2    S    
C2    O21   S    
C3    O15   S    
Ba1   O18   S    
C17   C21   A    
O6    P8    S    
C27   C28   A    
C50   H5    S    
Ba1   O8    S    
C45   H3    S    
C53   H51   S    
Ba2   O13   S    
C29   C30   A    
O2    P2    S    
C9    C10   A    
C55   H59   S    
C31   C32   A    
C39   H46   S    
C26   H38   S    
C15   C21   A    
C56   H63   S    
C22   H34   S    
Ba1   O5    S    
C49   C53   S    
O9    P5    S    
C11   C13   A    
C2    H1    S    
C34   C57   S    
C7    O17   S    
C16   H32   S    
C12   H37   S    
C40   C41   A    
O19   P6    D    
C51   H7    S    
C1    C2    S    
O7    P4    S    
C57   H68   S    
C42   C43   A    
C1    H8    S    
O4    P4    D    
C4    H16   S    
Ba2   O8    S    
C14   C20   A    
O11   P5    S    
C11   C18   A    
C33   C35   A    
O18   P6    S    
C19   O28   S    
C1    H13   S    
Ba1   P1    S    
Ba1   O23   S    
O3    P3    S    
C8    H25   S    
C53   H50   S    
C50   O26   S    
C30   C31   A    
C5    O11   S    
C16   C20   A    
Ba1   O22   S    
C27   C29   A    
O26   H53   S    
C45   H4    S    
C2    H12   S    
O12   P1    S    
Ba2   O12   S    
C23   H47   S    
C6    H23   S    
C52   H10   S    
C43   C48   A    
Ba2   O6    S    
C39   C42   A    
Ba2   O4    S    
C35   H40   S    
C23   H19   S    
C7    H24   S    
O10   P5    D    
C22   C28   A    
C37   H42   S    
C5    C6    S    
O23   P3    S    
C13   C19   A    
C47   C48   A    
Ba1   O12   S    
C34   O7    S    
C49   O20   S    
O8    P7    S    
Ba1   O13   S    
C12   H27   S    
C56   H61   S    
C54   H54   S    
C45   H2    S    
C25   C26   A    
