data_mof_unit_23413.cif
_audit_creation_date              2012-12-10T17:43:33-0500
_audit_creation_method            fapswitch 2.2
_symmetry_space_group_name_H-M    P1
_symmetry_Int_Tables_number       1
_space_group_crystal_system       triclinic
_cell_length_a                    14.907885
_cell_length_b                    10.634111
_cell_length_c                    9.955817
_cell_angle_alpha                 89.592991
_cell_angle_beta                  89.821183
_cell_angle_gamma                 91.455762
_cell_volume                      1577.75878077

loop_
_atom_site_label
_atom_site_type_symbol
_atom_type_description
_atom_site_fract_x
_atom_site_fract_y
_atom_site_fract_z
_atom_type_partial_charge
C1    C     C_R   0.513205 0.262096 0.501057 0.878172
C2    C     C_R   0.908720 0.593970 0.560914 0.125418
C3    C     C_R   0.944074 0.266028 0.435806 0.142143
C4    C     C_R   0.035840 0.253519 0.465141 0.154874
C5    C     C_R   0.089709 0.363752 0.492045 0.023386
C6    C     C_R   0.045499 0.477495 0.522812 -0.026947
C7    C     C_R   0.094738 0.587184 0.558549 0.093199
C8    C     C_R   0.052273 0.694437 0.603971 -0.173280
C9    C     C_R   0.959264 0.698248 0.608856 0.183253
C10   C     C_R   0.185243 0.368407 0.484816 0.114787
C11   C     C_R   0.230880 0.484919 0.505421 -0.051271
C12   C     C_R   0.326989 0.497385 0.500732 0.871934
C13   C     C_R   0.186498 0.590187 0.546920 -0.273919
C14   C     C_R   0.556928 0.110745 0.750499 -0.240948
C15   C     C_R   0.533904 0.049760 0.870515 -0.203091
C16   C     C_R   0.474149 0.945912 0.869692 0.235576
C17   C     C_R   0.446464 0.894673 0.745320 0.201088
C18   C     C_R   0.486952 0.942137 0.624472 0.048625
C19   C     C_R   0.526280 0.062272 0.627193 0.062240
C20   C     C_R   0.531873 0.129605 0.504985 -0.110343
C21   C     C_R   0.536195 0.065528 0.383875 -0.183784
C22   C     C_R   0.520676 0.937921 0.383194 -0.191657
C23   C     C_R   0.494930 0.740388 0.500113 0.871061
C24   C     C_R   0.493569 0.875631 0.501547 -0.109016
C25   C     C_R   0.354277 0.393013 0.139350 0.248141
C26   C     C_R   0.270342 0.407560 0.080505 -0.244301
C27   C     C_R   0.266357 0.411141 0.940431 -0.228287
C28   C     C_R   0.346946 0.401310 0.867776 0.243613
C29   C     C_R   0.426330 0.450808 0.929310 0.095569
C30   C     C_R   0.427548 0.450069 0.072926 0.087863
C31   C     C_R   0.570015 0.548418 0.070608 -0.121383
C32   C     C_R   0.570173 0.547916 0.927769 -0.120399
C33   C     C_R   0.672636 0.500774 0.499845 0.864697
C34   C     C_R   0.815773 0.597881 0.553562 -0.254555
C35   C     C_R   0.767710 0.497216 0.500612 -0.055738
C36   C     C_R   0.808795 0.389383 0.457584 -0.235365
C37   C     C_R   0.901611 0.378980 0.468647 0.084119
C38   C     C_R   0.951992 0.482840 0.518691 -0.018309
H1    H     H_    0.779538 0.679191 0.586472 0.148427
H2    H     H_    0.598371 0.195729 0.754572 0.182622
H3    H     H_    0.557564 0.089266 0.964340 0.167172
H4    H     H_    0.530034 0.888206 0.290034 0.169846
H5    H     H_    0.627112 0.588689 0.123199 0.152426
H6    H     H_    0.210131 0.381699 0.136351 0.183982
H7    H     H_    0.202804 0.387878 0.892971 0.179522
H8    H     H_    0.766429 0.312440 0.422144 0.144141
H9    H     H_    0.627367 0.587823 0.873963 0.154505
H10   H     H_    0.223908 0.676100 0.568655 0.142696
H11   H     H_    0.092087 0.775748 0.635448 0.175253
H12   H     H_    0.549851 0.114138 0.289786 0.182760
N1    N     N_R   0.499150 0.498800 0.142780 -0.111429
N2    N     N_R   0.499120 0.498720 0.857170 -0.117431
O1    O     O_R   0.500000 0.316780 0.614690 -0.633347
O2    O     O_R   0.499990 0.316750 0.385360 -0.595305
O3    O     O_R   0.367850 0.499980 0.614680 -0.621766
O4    O     O_R   0.367840 0.499960 0.385350 -0.607225
O5    O     O_R   0.500010 0.683250 0.614640 -0.609565
O6    O     O_R   0.500000 0.683220 0.385310 -0.617110
O7    O     O_R   0.632160 0.500040 0.614650 -0.624233
O8    O     O_R   0.632150 0.500020 0.385320 -0.623198
Zn1   Zn    Zn3+2 0.500010 0.500020 0.653130 0.930643
Zn2   Zn    Zn3+2 0.499990 0.499980 0.346870 0.959279
C39   C     C_3   0.440307 0.891577 0.000950 -0.868243
H13   H     H_    0.470061 0.942575 0.087244 0.244117
H14   H     H_    0.366370 0.899451 0.007954 0.263734
H15   H     H_    0.458335 0.791179 0.009120 0.238082
C40   C     C_3   0.365362 0.806477 0.741895 -0.831476
H16   H     H_    0.344729 0.786345 0.637509 0.216064
H17   H     H_    0.379235 0.717104 0.795316 0.263138
H18   H     H_    0.307479 0.851413 0.790865 0.229290
I1    I     I_    0.372453 0.198439 0.171939 -0.460489
C41   C     C_3   0.351615 0.280183 0.790447 -0.749577
H19   H     H_    0.340246 0.292845 0.682428 0.250298
H20   H     H_    0.416432 0.236207 0.808930 0.255937
H21   H     H_    0.300166 0.209711 0.825671 0.222452
C42   C     C_3   0.891033 0.158665 0.371521 -0.864718
H22   H     H_    0.844580 0.114118 0.446330 0.243289
H23   H     H_    0.852218 0.194473 0.284893 0.228113
H24   H     H_    0.934138 0.085838 0.328346 0.273419
I2    I     I_    0.076576 0.063265 0.504727 -0.480531
C43   C     C_3   0.238989 0.254432 0.451210 -0.836070
H25   H     H_    0.212112 0.209422 0.359121 0.285367
H26   H     H_    0.310669 0.275807 0.432808 0.247471
H27   H     H_    0.238690 0.188759 0.537839 0.259723
C44   C     C_3   0.916032 0.814574 0.662840 -0.878838
H28   H     H_    0.870171 0.788496 0.747174 0.231682
H29   H     H_    0.966449 0.883402 0.702200 0.267108
H30   H     H_    0.877853 0.861455 0.581913 0.250827

loop_
_geom_bond_atom_site_label_1
_geom_bond_atom_site_label_2
_ccdc_geom_bond_type
O6    Zn2   S    
C23   O6    A    
C30   N1    A    
C39   H14   S    
C35   C36   A    
C42   H24   S    
C43   H25   S    
C26   H6    S    
C7    C8    A    
C44   H28   S    
C26   C27   A    
C29   C30   A    
C31   H5    S    
C18   C24   A    
C36   C37   A    
C42   H23   S    
C4    I2    S    
N2    Zn1   S    
C5    C6    A    
C15   C16   A    
C18   C19   A    
O8    Zn2   S    
C34   C35   A    
C1    O1    A    
C32   N2    A    
C9    C44   S    
O1    Zn1   S    
C19   C20   A    
C16   C17   A    
C23   C24   S    
C6    C38   A    
C36   H8    S    
C25   I1    S    
C16   C39   S    
C2    C34   A    
C39   H15   S    
C33   O7    A    
C21   C22   A    
C28   C41   S    
N1    Zn2   S    
C41   H21   S    
C21   H12   S    
C43   H26   S    
C44   H29   S    
C17   C40   S    
O7    Zn1   S    
C40   H16   S    
C42   H22   S    
C15   H3    S    
C41   H20   S    
C41   H19   S    
O2    Zn2   S    
C25   C26   A    
C34   H1    S    
C40   H17   S    
C1    O2    A    
C37   C38   A    
C2    C38   A    
C31   C32   A    
C17   C18   A    
C8    C9    A    
C3    C42   S    
C12   O4    A    
C33   O8    A    
C32   H9    S    
O4    Zn2   S    
C3    C4    A    
C43   H27   S    
C44   H30   S    
C25   C30   A    
C23   O5    A    
C28   C29   A    
C1    C20   S    
C14   C19   A    
C31   N1    A    
C4    C5    A    
C13   H10   S    
C11   C12   S    
O5    Zn1   S    
C6    C7    A    
C10   C43   S    
C40   H18   S    
C5    C10   A    
C11   C13   A    
C27   H7    S    
C22   H4    S    
O3    Zn1   S    
C33   C35   S    
C22   C24   A    
C12   O3    A    
C10   C11   A    
C14   H2    S    
C39   H13   S    
C7    C13   A    
C20   C21   A    
C3    C37   A    
C27   C28   A    
C14   C15   A    
C2    C9    A    
C8    H11   S    
C29   N2    A    
