data_mof_unit_52359.cif
_audit_creation_date              2012-12-10T17:19:02-0500
_audit_creation_method            fapswitch 2.2
_symmetry_space_group_name_H-M    P1
_symmetry_Int_Tables_number       1
_space_group_crystal_system       triclinic
_cell_length_a                    10.314864
_cell_length_b                    10.804186
_cell_length_c                    13.42851
_cell_angle_alpha                 92.721866
_cell_angle_beta                  99.005976
_cell_angle_gamma                 96.068349
_cell_volume                      1466.66400357

loop_
_atom_site_label
_atom_site_type_symbol
_atom_type_description
_atom_site_fract_x
_atom_site_fract_y
_atom_site_fract_z
_atom_type_partial_charge
C1    C     C_R   0.051814 0.731926 0.490654 0.954058
C2    C     C_2   0.997579 0.062921 0.465512 -0.118406
C3    C     C_2   0.429918 0.515690 0.503647 0.362684
C4    C     C_2   0.570110 0.484401 0.496177 0.362819
C5    C     C_R   0.093262 0.516985 0.686862 0.942158
C6    C     C_R   0.906746 0.483027 0.313141 0.931117
C7    C     C_R   0.145209 0.535388 0.796342 -0.159894
C8    C     C_R   0.854873 0.464740 0.203668 -0.156520
C9    C     C_R   0.145174 0.616843 0.969221 -0.082790
C10   C     C_R   0.854884 0.383164 0.030838 -0.083584
C11   C     C_R   0.077336 0.584965 0.869904 0.260639
C12   C     C_R   0.945774 0.267485 0.503443 0.952331
C13   C     C_R   0.922642 0.414820 0.130192 0.260234
C14   C     C_R   0.274357 0.508929 0.825697 -0.159831
C15   C     C_R   0.725902 0.491644 0.174240 -0.161072
C16   C     C_R   0.335339 0.519059 0.925753 0.075246
C17   C     C_R   0.664958 0.481498 0.074169 0.075495
C18   C     C_R   0.276529 0.586110 0.996525 0.013305
C19   C     C_R   0.723695 0.414270 0.003447 0.013101
C20   C     C_R   0.461205 0.476698 0.953402 -0.033850
C21   C     C_R   0.539149 0.523969 0.046470 -0.032817
C22   C     C_2   0.077333 0.685281 0.040746 0.524033
C23   C     C_R   0.487348 0.610973 0.108635 0.380995
C24   C     C_2   0.922606 0.314501 0.959370 0.524587
C25   C     C_2   0.682787 0.616233 0.635483 0.675296
C26   C     C_2   0.317100 0.383343 0.364660 0.676677
C27   C     C_R   0.512999 0.389713 0.891219 0.380658
C28   C     C_R   0.354519 0.628755 0.089031 -0.082009
C29   C     C_R   0.645771 0.371789 0.910887 -0.081579
C30   C     C_2   0.077274 0.863056 0.475890 -0.294312
C31   C     C_2   0.911176 0.134121 0.495861 -0.285305
C32   C     C_2   0.975344 0.930436 0.468201 -0.120692
Cl1   Cl    Cl    0.086512 0.378903 0.162268 -0.610394
Cl2   Cl    Cl    0.913159 0.620093 0.837990 -0.608603
Cl3   Cl    Cl    0.585580 0.720104 0.199866 -0.562404
Cl4   Cl    Cl    0.414805 0.280712 0.799876 -0.554429
Cl5   Cl    Cl    0.592622 0.346975 0.427494 -0.557668
Cl6   Cl    Cl    0.407486 0.653274 0.572156 -0.556939
H1    H     H_    0.317866 0.686505 0.143637 0.224876
H2    H     H_    0.022871 0.347771 0.950662 0.102281
H3    H     H_    0.742459 0.705596 0.653603 0.090070
H4    H     H_    0.257619 0.293827 0.346872 0.082585
H5    H     H_    0.682412 0.314018 0.856288 0.225052
H6    H     H_    0.667849 0.513035 0.231471 0.244478
H7    H     H_    0.332487 0.487837 0.768441 0.244496
H8    H     H_    0.090683 0.102295 0.445187 0.194079
H9    H     H_    0.875148 0.889309 0.471134 0.203773
H10   H     H_    0.818366 0.094250 0.516191 0.184991
H11   H     H_    0.177216 0.904690 0.473058 0.187681
H12   H     H_    0.977119 0.651801 0.049469 0.102054
N1    N     N_2   0.322180 0.446120 0.460900 -0.209903
N2    N     N_2   0.677820 0.553880 0.539100 -0.211590
O1    O     O_R   0.935190 0.693030 0.507870 -0.643694
O2    O     O_2   0.871098 0.215944 0.915242 -0.519873
O3    O     O_2   0.629821 0.566132 0.700898 -0.535918
O4    O     O_2   0.369709 0.433246 0.298984 -0.535530
O5    O     O_R   0.064810 0.306970 0.492130 -0.641935
O6    O     O_R   0.142080 0.658430 0.482770 -0.549661
O7    O     O_R   0.857920 0.341570 0.517230 -0.549988
O8    O     O_R   0.969700 0.527180 0.651960 -0.581160
O9    O     O_R   0.030300 0.472820 0.348040 -0.585118
O10   O     O_R   0.176600 0.492580 0.626860 -0.576893
O11   O     O_R   0.823400 0.507420 0.373140 -0.580602
O12   O     O_2   0.128667 0.783897 0.084906 -0.520849
Zn1   Zn    Zn3+2 0.861850 0.523100 0.516760 1.046235
Zn2   Zn    Zn3+2 0.138150 0.476900 0.483240 1.047731

loop_
_geom_bond_atom_site_label_1
_geom_bond_atom_site_label_2
_ccdc_geom_bond_type
C6    O11   A    
O8    Zn1   S    
C7    C11   A    
C5    O10   A    
O11   Zn1   S    
N1    Zn2   S    
C13   Cl1   S    
C8    C13   A    
C20   C27   A    
C27   Cl4   S    
C27   C29   A    
O1    Zn1   S    
O5    Zn2   S    
C5    O8    A    
C22   H12   S    
C10   C19   A    
C16   C20   A    
C10   C24   S    
C25   N2    S    
C5    C7    S    
C26   N1    S    
C2    H8    S    
C30   C32   D    
C9    C11   A    
C1    O6    A    
C4    N2    D    
C6    C8    S    
C12   O5    A    
C29   H5    S    
C6    O9    A    
C2    C32   S    
C1    C30   S    
C17   C19   A    
C30   H11   S    
C15   H6    S    
C14   H7    S    
C23   Cl3   S    
C31   H10   S    
C21   C23   A    
C12   C31   S    
C32   H9    S    
C14   C16   A    
C9    C22   S    
O10   Zn2   S    
C24   O2    D    
C3    C4    S    
C19   C29   A    
C9    C18   A    
C7    C14   A    
C18   C28   A    
C20   C21   A    
C26   H4    S    
C16   C18   A    
C25   H3    S    
C15   C17   A    
C1    O1    A    
C2    C31   D    
C3    N1    D    
C8    C15   A    
C28   H1    S    
C24   H2    S    
C23   C28   A    
C12   O7    A    
C22   O12   D    
O9    Zn2   S    
O6    Zn2   S    
C11   Cl2   S    
O7    Zn1   S    
N2    Zn1   S    
C25   O3    D    
C3    Cl6   S    
C26   O4    D    
C4    Cl5   S    
C10   C13   A    
C17   C21   A    
