data_mof_unit_11901.cif
_audit_creation_date              2013-03-05T15:44:18-0500
_audit_creation_method            fapswitch 2.2
_symmetry_space_group_name_H-M    P1
_symmetry_Int_Tables_number       1
_space_group_crystal_system       triclinic
_cell_length_a                    20.956616
_cell_length_b                    7.095716
_cell_length_c                    16.344475
_cell_angle_alpha                 90.004296
_cell_angle_beta                  92.330624
_cell_angle_gamma                 89.977977
_cell_volume                      2428.44866221

loop_
_atom_site_label
_atom_site_type_symbol
_atom_site_description
_atom_site_fract_x
_atom_site_fract_y
_atom_site_fract_z
_atom_type_partial_charge
O1    O     O_R   0.564840 0.505290 0.579830 -0.547112
O2    O     O_R   0.435160 0.005290 0.420170 -0.547440
O3    O     O_R   0.556720 0.179930 0.409350 -0.559030
O4    O     O_R   0.443280 0.679930 0.590650 -0.558756
C1    C     C_R   0.570800 0.344289 0.381145 0.843792
C2    C     C_R   0.429214 0.844373 0.618861 0.843683
O5    O     O_R   0.572280 0.175810 0.578530 -0.561187
O6    O     O_R   0.427720 0.675810 0.421470 -0.561021
O7    O     O_R   0.450830 0.001920 0.590540 -0.551686
O8    O     O_R   0.549170 0.501920 0.409460 -0.551501
C3    C     C_R   0.589260 0.342297 0.606232 0.803364
C4    C     C_R   0.410734 0.842377 0.393787 0.803299
O9    O     O_3   0.460130 0.338030 0.503750 -0.277310
O10   O     O_3   0.539870 0.838030 0.496250 -0.277189
V1    V     V_3+5 0.507400 0.064560 0.499310 1.147540
V2    V     V_3+5 0.492600 0.564560 0.500690 1.147763
C5    C     C_R   0.146583 0.922958 0.163928 -0.121539
C6    C     C_R   0.853337 0.423137 0.836178 -0.121748
C7    C     C_R   0.358178 0.837642 0.328711 -0.119003
C8    C     C_R   0.641847 0.337274 0.671276 -0.119044
C9    C     C_R   0.297783 0.663767 0.221465 -0.118930
C10   C     C_R   0.702596 0.162687 0.778022 -0.119267
C11   C     C_R   0.351031 0.680201 0.275135 -0.058202
C12   C     C_R   0.649332 0.179036 0.724384 -0.058249
C13   C     C_R   0.311058 0.979020 0.324064 -0.125299
C14   C     C_R   0.688689 0.479309 0.676330 -0.125067
C15   C     C_R   0.256736 0.960511 0.270327 0.080721
C16   C     C_R   0.743061 0.460776 0.729983 0.080628
C17   C     C_R   0.249439 0.800617 0.218755 0.056517
C18   C     C_R   0.750663 0.300247 0.781118 0.056626
C19   C     C_R   0.194278 0.781376 0.165496 -0.095732
C20   C     C_R   0.805863 0.281009 0.834308 -0.095733
C21   C     C_R   0.155048 0.080095 0.216079 -0.085572
C22   C     C_R   0.844584 0.580871 0.784422 -0.085316
C23   C     C_R   0.209080 0.098627 0.268330 -0.090481
C24   C     C_R   0.790480 0.599485 0.732301 -0.090676
H1    H     H_    0.119569 0.191200 0.216118 0.088957
H2    H     H_    0.879882 0.692414 0.784599 0.089484
H3    H     H_    0.294115 0.540316 0.182470 0.075344
H4    H     H_    0.706527 0.038662 0.816641 0.075257
H5    H     H_    0.213626 0.222108 0.307163 0.063496
H6    H     H_    0.785704 0.723457 0.693801 0.063425
H7    H     H_    0.315329 0.099754 0.364580 0.082021
H8    H     H_    0.684181 0.600615 0.636172 0.082553
C25   C     C_R   0.376043 0.788159 0.834815 -0.077062
C26   C     C_R   0.624244 0.283676 0.165535 -0.077329
H9    H     H_    0.464103 0.759308 0.774938 0.095940
H10   H     H_    0.536277 0.254112 0.225530 0.096224
H11   H     H_    0.295318 0.779646 0.955174 0.074069
H12   H     H_    0.705047 0.273647 0.045287 0.074223
H13   H     H_    0.397863 0.749533 0.893716 0.067618
H14   H     H_    0.602572 0.242864 0.106838 0.067633
C27   C     C_R   0.388255 0.848429 0.690432 -0.083447
C28   C     C_R   0.611761 0.347909 0.309562 -0.083462
C29   C     C_R   0.079811 0.952260 0.732341 -0.093520
C30   C     C_R   0.920036 0.454903 0.267522 -0.093408
C31   C     C_R   0.115073 0.962406 0.662258 -0.062819
C32   C     C_R   0.884705 0.466171 0.337516 -0.062869
C33   C     C_R   0.181043 0.936358 0.666701 -0.074715
C34   C     C_R   0.818785 0.439193 0.333110 -0.074752
C35   C     C_R   0.213808 0.897944 0.742242 0.046872
C36   C     C_R   0.786150 0.398618 0.257707 0.046991
C37   C     C_R   0.176969 0.884644 0.814044 0.010858
C38   C     C_R   0.823073 0.384003 0.186019 0.010860
C39   C     C_R   0.281702 0.870949 0.748809 0.047700
C40   C     C_R   0.718308 0.370640 0.251184 0.047693
C41   C     C_R   0.310370 0.824992 0.826593 0.062924
C42   C     C_R   0.689807 0.322077 0.173616 0.062944
C43   C     C_R   0.273396 0.813438 0.895744 -0.092078
C44   C     C_R   0.726853 0.309342 0.104564 -0.092241
C45   C     C_R   0.207938 0.844239 0.889819 -0.076944
C46   C     C_R   0.792239 0.341326 0.110404 -0.077761
C47   C     C_R   0.322367 0.885674 0.681181 -0.118509
C48   C     C_R   0.677544 0.386748 0.318667 -0.119022
C49   C     C_R   0.414195 0.796131 0.767193 -0.096117
C50   C     C_R   0.586043 0.292623 0.233087 -0.095088
C51   C     C_R   0.109739 0.913294 0.808447 -0.088595
C52   C     C_R   0.890245 0.413719 0.191557 -0.088796
H15   H     H_    0.304343 0.921805 0.620504 0.041667
H16   H     H_    0.695436 0.424971 0.379155 0.042031
H17   H     H_    0.028719 0.976177 0.727286 0.052697
H18   H     H_    0.971072 0.479750 0.272524 0.052859
H19   H     H_    0.204931 0.946267 0.609758 0.057495
H20   H     H_    0.794834 0.450067 0.389977 0.057480
H21   H     H_    0.091056 0.992135 0.603776 0.065605
H22   H     H_    0.908622 0.497583 0.395888 0.065614
H23   H     H_    0.181582 0.834008 0.945250 0.061482
H24   H     H_    0.818656 0.330092 0.055056 0.062218
O11   O     O_R   0.950790 0.256670 0.090520 -0.554594
O12   O     O_R   0.049210 0.756670 0.909480 -0.554447
O13   O     O_R   0.927720 0.590370 0.921470 -0.552963
O14   O     O_R   0.072280 0.090370 0.078530 -0.553019
C53   C     C_R   0.909401 0.422492 0.895902 0.801248
C54   C     C_R   0.090578 0.922450 0.104121 0.801229
O15   O     O_R   0.943270 0.586180 0.090640 -0.555264
O16   O     O_R   0.056730 0.086180 0.909360 -0.555284
O17   O     O_R   0.064850 0.759970 0.079840 -0.555279
O18   O     O_R   0.935150 0.259970 0.920160 -0.555322
C55   C     C_R   0.930261 0.418105 0.119052 0.802662
C56   C     C_R   0.069732 0.918036 0.880950 0.802843
O19   O     O_3   0.039850 0.428050 0.996240 -0.263932
O20   O     O_3   0.960150 0.928050 0.003760 -0.263961
V3    V     V_3+5 0.992610 0.701540 0.000700 1.154103
V4    V     V_3+5 0.007390 0.201540 0.999300 1.153952
C57   C     C_1   0.188044 0.621284 0.110544 0.254838
N1    N     N_1   0.183272 0.493355 0.066774 -0.268141
C58   C     C_1   0.812343 0.120299 0.888884 0.254653
N2    N     N_1   0.817300 0.991874 0.932350 -0.268032
C59   C     C_1   0.396863 0.528510 0.273803 0.291788
N3    N     N_1   0.432952 0.405380 0.272826 -0.307492
C60   C     C_1   0.603928 0.026218 0.725188 0.291582
N4    N     N_1   0.568215 0.902162 0.725715 -0.306712

loop_
_geom_bond_atom_site_label_1
_geom_bond_atom_site_label_2
_geom_bond_distance
_ccdc_geom_bond_type
C30   C52   1.397781 A    
C40   C42   1.421730 A    
C15   C17   1.417963 A    
H10   C50   1.080448 S    
C24   H6    1.083842 S    
C60   N4    1.155904 T    
O1    C3    1.329429 A    
O2    C4    1.329174 A    
C13   H7    1.084249 S    
C2    O7    1.298741 A    
C26   C50   1.391333 A    
C14   H8    1.084258 S    
O5    C3    1.309326 A    
O11   C55   1.315515 A    
C33   H19   1.076877 S    
C29   C51   1.397718 A    
O15   C55   1.312598 A    
C31   C33   1.393708 A    
C25   H13   1.084049 S    
C32   C34   1.393687 A    
C40   C48   1.426860 A    
C26   H14   1.084047 S    
C39   C47   1.426756 A    
C51   C56   1.479565 S    
C34   C36   1.414589 A    
C43   C45   1.388480 A    
C36   C38   1.433908 A    
C28   C48   1.407919 A    
C8    C12   1.423981 A    
C31   H21   1.082733 S    
C39   C41   1.421738 A    
C20   C58   1.450769 S    
C25   C41   1.401868 A    
C58   N2    1.157552 T    
C29   H17   1.083859 S    
C22   C24   1.396455 A    
H11   C43   1.084305 S    
O5    V1    2.001463 S    
O6    V2    2.001127 S    
C48   H16   1.077706 S    
C19   C57   1.450730 S    
C27   C49   1.397037 A    
C12   C60   1.443326 S    
C5    C21   1.410301 A    
C7    C13   1.407271 A    
C32   H22   1.082735 S    
O12   C56   1.315377 A    
C46   H24   1.082552 S    
O15   V3    2.006144 S    
C11   C59   1.443074 S    
C3    C8    1.500227 S    
C33   C35   1.414620 A    
C36   C40   1.435276 A    
C1    C28   1.479218 S    
O4    C2    1.292955 A    
C54   O17   1.326810 A    
C15   C23   1.398413 A    
C9    C17   1.402483 A    
C21   H1    1.083477 S    
C41   C43   1.398511 A    
O4    V2    2.005779 S    
C7    C11   1.423581 A    
C26   C42   1.401793 A    
O13   C53   1.314629 A    
C9    H3    1.084177 S    
O6    C4    1.309585 A    
C10   H4    1.084194 S    
O14   C54   1.314679 A    
C47   H15   1.077701 S    
O1    V2    1.995560 S    
O20   V4    2.181449 S    
O2    V1    1.995763 S    
C6    C22   1.410428 A    
O17   V3    1.994516 S    
C28   C50   1.397150 A    
C42   C44   1.398518 A    
C37   C45   1.404220 A    
O19   V4    1.747032 S    
C29   C31   1.390048 A    
O11   V4    1.981481 S    
C5    C19   1.416387 A    
C45   H23   1.082561 S    
C6    C20   1.416383 A    
C2    C27   1.479071 S    
O3    V1    2.006191 S    
C37   C51   1.422683 A    
O16   V4    2.005730 S    
C10   C18   1.402359 A    
C22   H2    1.083467 S    
C38   C52   1.422704 A    
C35   C37   1.433846 A    
C27   C47   1.407858 A    
O13   V3    2.001477 S    
O3    C1    1.292717 A    
C30   H18   1.083859 S    
C13   C15   1.415418 A    
C57   N1    1.157560 T    
C14   C16   1.415367 A    
C25   C49   1.391388 A    
C9    C11   1.395980 A    
H12   C44   1.084301 S    
H9    C49   1.080375 S    
C1    O8    1.298966 A    
C17   C19   1.425101 A    
O8    V2    1.992401 S    
C59   N3    1.155879 T    
C18   C20   1.425021 A    
C34   H20   1.076890 S    
C8    C14   1.407259 A    
O18   V4    1.994314 S    
O16   C56   1.312754 A    
C4    C7    1.500086 S    
C16   C18   1.417938 A    
C21   C23   1.396523 A    
C30   C32   1.390045 A    
C10   C12   1.395837 A    
C38   C46   1.404206 A    
O7    V1    1.992658 S    
O20   V3    1.746544 S    
C23   H5    1.083830 S    
O12   V3    1.981705 S    
O14   V4    2.001141 S    
C35   C39   1.435281 A    
C16   C24   1.398350 A    
O19   V3    2.180762 S    
O9    V2    1.747245 S    
C52   C55   1.479678 S    
C6    C53   1.496664 S    
O10   V1    1.746756 S    
C44   C46   1.388471 A    
C5    C54   1.496579 S    
C53   O18   1.326826 A    
