data_mof_unit_53440.cif
_audit_creation_date              2012-12-10T20:36:38-0500
_audit_creation_method            fapswitch 2.2
_symmetry_space_group_name_H-M    P1
_symmetry_Int_Tables_number       1
_space_group_crystal_system       triclinic
_cell_length_a                    10.496603
_cell_length_b                    10.697565
_cell_length_c                    9.873854
_cell_angle_alpha                 89.574751
_cell_angle_beta                  90.64144
_cell_angle_gamma                 90.182784
_cell_volume                      1108.6108685

loop_
_atom_site_label
_atom_site_type_symbol
_atom_type_description
_atom_site_fract_x
_atom_site_fract_y
_atom_site_fract_z
_atom_type_partial_charge
C1    C     C_R   0.498486 0.259962 0.500185 0.877215
C2    C     C_3   0.956664 0.607863 0.444026 -0.183782
C3    C     C_3   0.038193 0.509900 0.371142 -0.143044
C4    C     C_3   0.122291 0.501768 0.498235 0.038438
C5    C     C_R   0.442931 0.062464 0.611108 0.087718
C6    C     C_R   0.484750 0.128097 0.497563 -0.090810
C7    C     C_R   0.503491 0.065090 0.375257 -0.228112
C8    C     C_R   0.502286 0.936416 0.374560 -0.232083
C9    C     C_R   0.480814 0.871182 0.495751 -0.113164
C10   C     C_R   0.439606 0.934768 0.609718 0.071823
C11   C     C_3   0.477777 0.923466 0.755806 -0.100146
C12   C     C_R   0.257316 0.500930 0.499274 0.858505
C13   C     C_3   0.484350 0.066011 0.756599 -0.506147
C14   C     C_R   0.388569 0.489360 0.069853 0.227009
C15   C     C_R   0.608888 0.521606 0.072931 -0.150993
C16   C     C_R   0.608935 0.521371 0.929159 -0.151755
C17   C     C_R   0.388341 0.490867 0.927457 0.220038
C18   C     C_3   0.294540 0.386451 0.920016 -0.518460
C19   C     C_3   0.296841 0.382708 0.073816 -0.517604
C20   C     C_R   0.496961 0.739834 0.499326 0.869055
C21   C     C_R   0.742697 0.500124 0.500834 0.863815
C22   C     C_3   0.043320 0.394646 0.556942 -0.183555
C23   C     C_3   0.956654 0.402607 0.429820 -0.177638
C24   C     C_3   0.877745 0.500630 0.502479 0.034929
C25   C     C_3   0.961753 0.492707 0.629785 -0.148474
C26   C     C_3   0.043502 0.599887 0.571035 -0.179699
H1    H     H_    0.916586 0.322324 0.372627 0.130665
H2    H     H_    0.571891 0.877465 0.770900 0.169713
H3    H     H_    0.412318 0.110393 0.821774 0.194883
H4    H     H_    0.582896 0.102752 0.769834 0.192575
H5    H     H_    0.697282 0.537326 0.127438 0.154124
H6    H     H_    0.697314 0.536716 0.876318 0.147070
H7    H     H_    0.201550 0.417460 0.876693 0.200914
H8    H     H_    0.334533 0.301775 0.872876 0.210074
H9    H     H_    0.204325 0.409088 0.118420 0.194367
H10   H     H_    0.340085 0.296024 0.116664 0.214580
H11   H     H_    0.083607 0.308052 0.602725 0.127994
H12   H     H_    0.926603 0.485638 0.735223 0.129770
H13   H     H_    0.083895 0.680085 0.628148 0.125718
H14   H     H_    0.916479 0.694526 0.398330 0.127296
H15   H     H_    0.072286 0.518767 0.265663 0.129470
H16   H     H_    0.528020 0.114031 0.282616 0.167387
H17   H     H_    0.527623 0.889085 0.282122 0.171851
N1    N     N_R   0.499140 0.499140 0.142800 -0.102919
N2    N     N_R   0.499140 0.499180 0.857150 -0.104424
O1    O     O_R   0.500020 0.316790 0.614690 -0.613025
O2    O     O_R   0.500000 0.316760 0.385350 -0.623128
O3    O     O_R   0.313960 0.499990 0.614650 -0.626483
O4    O     O_R   0.313940 0.499950 0.385310 -0.623330
O5    O     O_R   0.500000 0.683240 0.614650 -0.630122
O6    O     O_R   0.499980 0.683210 0.385310 -0.622953
O7    O     O_R   0.686060 0.500050 0.614690 -0.632417
O8    O     O_R   0.686040 0.500010 0.385350 -0.628987
Zn1   Zn    Zn3+2 0.500010 0.500020 0.653130 0.928300
Zn2   Zn    Zn3+2 0.499990 0.499980 0.346870 0.932968
C27   C     C_3   0.369648 0.867313 0.841410 -0.357706
C28   C     C_3   0.406488 0.860959 0.991910 -0.362028
C29   C     C_3   0.294874 0.814489 0.076727 -0.878862
H18   H     H_    0.215875 0.883271 0.072511 0.254558
H19   H     H_    0.259430 0.723258 0.038682 0.250382
H20   H     H_    0.325687 0.802290 0.183836 0.266257
H21   H     H_    0.488261 0.796210 0.006274 0.221129
H22   H     H_    0.435531 0.955091 0.028137 0.224855
H23   H     H_    0.281090 0.923256 0.827837 0.200726
H24   H     H_    0.348838 0.771046 0.805553 0.215681

loop_
_geom_bond_atom_site_label_1
_geom_bond_atom_site_label_2
_ccdc_geom_bond_type
C16   N2    A    
O3    Zn1   S    
C4    C26   S    
C23   C24   S    
C27   H23   S    
C15   H5    S    
C6    C7    A    
C23   H1    S    
C25   H12   S    
C16   H6    S    
C4    C22   S    
C9    C10   A    
C9    C20   S    
C3    C23   S    
C14   C17   A    
C8    H17   S    
C12   O3    A    
O1    Zn1   S    
C29   H20   S    
C12   O4    A    
C29   H18   S    
C7    C8    A    
C2    C26   S    
C17   C18   S    
C19   H9    S    
C24   C25   S    
C21   O8    A    
C11   C13   S    
N1    Zn2   S    
C28   C29   S    
O5    Zn1   S    
C26   H13   S    
C11   H2    S    
C18   H8    S    
C15   C16   A    
O2    Zn2   S    
C17   N2    A    
C15   N1    A    
C28   H22   S    
C20   O6    A    
C2    C3    S    
C19   H10   S    
O8    Zn2   S    
C2    C24   S    
C5    C6    A    
N2    Zn1   S    
C18   H7    S    
C1    O1    A    
C7    H16   S    
C4    C12   S    
C10   C11   S    
C29   H19   S    
C3    C4    S    
C2    H14   S    
C13   H4    S    
C5    C10   A    
C27   C28   S    
C14   N1    A    
C18   C19   S    
C21   C24   S    
C13   H3    S    
C1    C6    S    
C22   C23   S    
C1    O2    A    
C20   O5    A    
O6    Zn2   S    
C28   H21   S    
C25   C26   S    
O4    Zn2   S    
C22   H11   S    
C5    C13   S    
C14   C19   S    
C21   O7    A    
C3    H15   S    
C11   C27   S    
C27   H24   S    
O7    Zn1   S    
C8    C9    A    
C22   C25   S    
