data_mof_unit_9379.cif
_audit_creation_date              2012-12-11T14:50:38-0500
_audit_creation_method            fapswitch 2.2
_symmetry_space_group_name_H-M    P1
_symmetry_Int_Tables_number       1
_space_group_crystal_system       triclinic
_cell_length_a                    20.611292
_cell_length_b                    7.083986
_cell_length_c                    20.433054
_cell_angle_alpha                 89.999876
_cell_angle_beta                  101.584637
_cell_angle_gamma                 89.999944
_cell_volume                      2922.65722781

loop_
_atom_site_label
_atom_site_type_symbol
_atom_type_description
_atom_site_fract_x
_atom_site_fract_y
_atom_site_fract_z
_atom_type_partial_charge
O1    O     O_R   0.423690 0.494470 0.435930 -0.533504
O2    O     O_R   0.576310 0.994470 0.564070 -0.533503
O3    O     O_R   0.556070 0.822310 0.435760 -0.540190
O4    O     O_R   0.443930 0.322310 0.564240 -0.540191
C1    C     C_R   0.575881 0.655368 0.420804 0.729589
C2    C     C_R   0.424119 0.155368 0.579196 0.729589
O5    O     O_R   0.422940 0.824080 0.428040 -0.542528
O6    O     O_R   0.577060 0.324080 0.571960 -0.542529
O7    O     O_R   0.442240 0.995960 0.556300 -0.533196
O8    O     O_R   0.557760 0.495960 0.443700 -0.533197
C3    C     C_R   0.399557 0.654827 0.409519 0.690767
C4    C     C_R   0.600442 0.154827 0.590481 0.690767
O9    O     O_3   0.506490 0.661310 0.542090 -0.371012
O10   O     O_3   0.493510 0.161310 0.457910 -0.371012
V1    V     V_3+5 0.498800 0.935560 0.492190 1.402331
V2    V     V_3+5 0.501200 0.435560 0.507810 1.402329
C5    C     C_R   0.834530 0.093169 0.862242 -0.068982
C6    C     C_R   0.165470 0.593167 0.137759 -0.068981
C7    C     C_R   0.660078 0.141019 0.645157 -0.071303
C8    C     C_R   0.339921 0.641021 0.354843 -0.071299
C9    C     C_R   0.773736 0.029479 0.679141 -0.177031
C10   C     C_R   0.226261 0.529496 0.320860 -0.177030
C11   C     C_R   0.717175 0.059232 0.629860 -0.197514
C12   C     C_R   0.282822 0.559247 0.370142 -0.197516
C13   C     C_R   0.659559 0.192442 0.712492 0.026432
C14   C     C_R   0.340441 0.692435 0.287508 0.026432
C15   C     C_R   0.717490 0.158150 0.763228 0.105708
C16   C     C_R   0.282510 0.658144 0.236772 0.105706
C17   C     C_R   0.774615 0.077303 0.745784 0.132844
C18   C     C_R   0.225383 0.577310 0.254217 0.132844
C19   C     C_R   0.832252 0.045569 0.795065 -0.250329
C20   C     C_R   0.167746 0.545577 0.204936 -0.250328
C21   C     C_R   0.777008 0.167975 0.880596 0.076038
C22   C     C_R   0.222993 0.667961 0.119404 0.076036
C23   C     C_R   0.719904 0.200339 0.831197 -0.215499
C24   C     C_R   0.280097 0.700321 0.168803 -0.215497
H1    H     H_    0.876184 0.987920 0.780874 0.110462
H2    H     H_    0.123813 0.487938 0.219127 0.110460
H3    H     H_    0.816911 0.966855 0.665056 0.117386
H4    H     H_    0.183086 0.466882 0.334946 0.117386
H5    H     H_    0.677400 0.258552 0.847473 0.129405
H6    H     H_    0.322603 0.758524 0.152526 0.129405
H7    H     H_    0.717880 0.017370 0.578993 0.116082
H8    H     H_    0.282117 0.517393 0.421010 0.116080
C25   C     C_3   0.257640 0.269001 0.811512 -0.328558
C26   C     C_3   0.742347 0.768966 0.188475 -0.328561
C27   C     C_3   0.245711 0.920420 0.790630 -0.335469
C28   C     C_3   0.754304 0.420399 0.209387 -0.335473
C29   C     C_3   0.295238 0.931878 0.742450 -0.324336
C30   C     C_3   0.704778 0.431857 0.257566 -0.324340
H9    H     H_    0.358514 0.262219 0.792588 0.144444
H10   H     H_    0.641474 0.762138 0.207400 0.144445
H11   H     H_    0.285406 0.243447 0.863320 0.140133
H12   H     H_    0.714583 0.743373 0.136669 0.140129
H13   H     H_    0.210753 0.801124 0.775609 0.136397
H14   H     H_    0.789273 0.301128 0.224417 0.136396
H15   H     H_    0.273595 0.890563 0.841929 0.144516
H16   H     H_    0.726421 0.390499 0.158089 0.144518
H17   H     H_    0.346399 0.905516 0.770922 0.137678
H18   H     H_    0.653618 0.405450 0.229098 0.137675
H19   H     H_    0.283560 0.818942 0.704016 0.135546
H20   H     H_    0.716465 0.318949 0.296011 0.135547
C31   C     C_1   0.378182 0.146458 0.624501 -0.186664
C32   C     C_1   0.621818 0.646459 0.375499 -0.186659
C33   C     C_3   0.206754 0.107953 0.790403 0.291456
C34   C     C_3   0.793247 0.607954 0.209597 0.291465
C35   C     C_3   0.307263 0.280947 0.763434 -0.336053
C36   C     C_3   0.692724 0.780912 0.236552 -0.336055
C37   C     C_3   0.291738 0.127987 0.708105 0.293302
C38   C     C_3   0.708262 0.627990 0.291895 0.293307
C39   C     C_3   0.219582 0.158851 0.669581 -0.328253
C40   C     C_3   0.780417 0.658914 0.330416 -0.328252
C41   C     C_3   0.169891 0.147022 0.717702 -0.327620
C42   C     C_3   0.830108 0.647084 0.282295 -0.327618
C43   C     C_1   0.339381 0.138602 0.662099 -0.102294
C44   C     C_1   0.660619 0.638604 0.337901 -0.102294
C45   C     C_1   0.159434 0.097046 0.836799 -0.098081
C46   C     C_1   0.840566 0.597046 0.163201 -0.098081
C47   C     C_1   0.121184 0.088974 0.874987 -0.187688
C48   C     C_1   0.878816 0.588974 0.125014 -0.187688
H21   H     H_    0.141834 0.281832 0.715693 0.136268
H22   H     H_    0.858155 0.781911 0.284293 0.136265
H23   H     H_    0.133290 0.032827 0.700768 0.136209
H24   H     H_    0.866718 0.532916 0.299239 0.136207
H25   H     H_    0.215201 0.299346 0.644706 0.135285
H26   H     H_    0.784787 0.799428 0.355279 0.135284
H27   H     H_    0.231378 0.406289 0.811457 0.140664
H28   H     H_    0.768599 0.906270 0.188520 0.140670
H29   H     H_    0.304569 0.423811 0.740365 0.138744
H30   H     H_    0.695406 0.923792 0.259609 0.138746
H31   H     H_    0.206576 0.050441 0.629683 0.136441
H32   H     H_    0.793432 0.550534 0.370324 0.136439
O11   O     O_R   0.942280 0.741210 0.056360 -0.531525
O12   O     O_R   0.057720 0.241210 0.943640 -0.531525
O13   O     O_R   0.077070 0.409690 0.071960 -0.536207
O14   O     O_R   0.922930 0.909690 0.928040 -0.536207
C49   C     C_R   0.101942 0.578909 0.088487 0.686443
C50   C     C_R   0.898058 0.078910 0.911513 0.686444
O15   O     O_R   0.943940 0.411580 0.064250 -0.540630
O16   O     O_R   0.056060 0.911580 0.935750 -0.540630
O17   O     O_R   0.923670 0.239840 0.935920 -0.537834
O18   O     O_R   0.076330 0.739840 0.064080 -0.537834
C51   C     C_R   0.924111 0.580081 0.078994 0.720609
C52   C     C_R   0.075889 0.080081 0.921006 0.720610
O19   O     O_3   0.993540 0.572620 0.957940 -0.369448
O20   O     O_3   0.006460 0.072620 0.042060 -0.369448
V3    V     V_3+5 0.001200 0.298330 0.007800 1.407097
V4    V     V_3+5 0.998800 0.798330 0.992200 1.407098
C53   C     C_3   0.773555 0.213227 0.952391 -0.362804
C54   C     C_3   0.729389 0.070644 0.979382 -0.302498
C55   C     C_3   0.719943 0.126825 0.048844 -0.799202
H33   H     H_    0.768385 0.129826 0.084427 0.230141
H34   H     H_    0.696357 0.268186 0.046984 0.225321
H35   H     H_    0.687035 0.023385 0.066755 0.215114
H36   H     H_    0.679828 0.062751 0.945827 0.193628
H37   H     H_    0.752485 0.928264 0.981859 0.192038
H38   H     H_    0.822932 0.212466 0.986035 0.178569
H39   H     H_    0.753424 0.358355 0.954392 0.169357
C56   C     C_3   0.226447 0.713209 0.047609 -0.362801
C57   C     C_3   0.270613 0.570627 0.020618 -0.302500
C58   C     C_3   0.280065 0.626817 0.951159 -0.799196
H40   H     H_    0.231625 0.629821 0.915572 0.230142
H41   H     H_    0.303651 0.768178 0.953023 0.225319
H42   H     H_    0.312975 0.523380 0.933250 0.215112
H43   H     H_    0.320172 0.562725 0.054177 0.193628
H44   H     H_    0.247516 0.428248 0.018137 0.192037
H45   H     H_    0.177070 0.712446 0.013964 0.178565
H46   H     H_    0.246577 0.858338 0.045607 0.169359
C59   C     C_3   0.596916 0.273944 0.730327 -0.384057
C60   C     C_3   0.557247 0.119975 0.757667 -0.305189
C61   C     C_3   0.499575 0.204507 0.784234 -0.792354
H47   H     H_    0.518397 0.296886 0.827839 0.225504
H48   H     H_    0.467318 0.288799 0.744806 0.233736
H49   H     H_    0.469725 0.089333 0.800294 0.214410
H50   H     H_    0.537544 0.018452 0.717011 0.191357
H51   H     H_    0.589413 0.040727 0.798701 0.195307
H52   H     H_    0.609411 0.392244 0.766252 0.171380
H53   H     H_    0.564318 0.340048 0.686741 0.183715
C62   C     C_3   0.403086 0.773921 0.269672 -0.384061
C63   C     C_3   0.442755 0.619937 0.242341 -0.305183
C64   C     C_3   0.500426 0.704450 0.215768 -0.792369
H54   H     H_    0.481603 0.796786 0.172152 0.225505
H55   H     H_    0.532678 0.788781 0.255187 0.233738
H56   H     H_    0.530281 0.589266 0.199724 0.214413
H57   H     H_    0.462458 0.518431 0.283002 0.191358
H58   H     H_    0.410589 0.540673 0.201311 0.195309
H59   H     H_    0.390594 0.892211 0.233743 0.171382
H60   H     H_    0.435682 0.840036 0.313257 0.183709

loop_
_geom_bond_atom_site_label_1
_geom_bond_atom_site_label_2
_ccdc_geom_bond_type
O17   V3    S    
O15   C51   A    
C15   C17   A    
C24   H6    S    
C60   H50   S    
O1    C3    A    
C35   H29   S    
C61   H49   S    
C13   C59   S    
O11   C51   A    
C2    O7    A    
C53   H38   S    
C27   C29   S    
O5    C3    A    
O19   V3    S    
C62   H59   S    
C8    C14   A    
C25   H27   S    
C26   C34   S    
C64   H55   S    
O11   V4    S    
C40   H32   S    
C57   H44   S    
O20   V3    S    
C34   C42   S    
O16   C52   A    
C33   C41   S    
C37   C39   S    
C54   C55   S    
C58   H42   S    
C39   H25   S    
C59   H53   S    
C8    C12   A    
O14   C50   A    
C25   C35   S    
C36   H30   S    
O18   V4    S    
C6    C49   S    
C20   H2    S    
C18   C20   A    
C21   C53   S    
C5    C50   S    
C22   C24   A    
C49   O18   A    
H10   C36   S    
O3    C1    A    
C56   H46   S    
O20   V4    S    
C28   C30   S    
O14   V4    S    
O12   C52   A    
O6    V2    S    
C29   C37   S    
C5    C21   A    
C42   H22   S    
C7    C13   A    
C41   H21   S    
C53   H39   S    
C26   H28   S    
C45   C47   T    
C34   C46   S    
O19   V4    S    
O12   V3    S    
O16   V4    S    
C33   C45   S    
C48   C51   S    
C29   H19   S    
C63   C64   S    
C40   C42   S    
C14   C62   S    
C64   H56   S    
C63   H58   S    
C39   C41   S    
C57   H43   S    
C15   C23   A    
C9    C17   A    
C3    C8    S    
C19   H1    S    
C1    C32   S    
C35   C37   S    
C2    C31   S    
O4    V2    S    
C7    C11   A    
C26   C36   S    
C27   H15   S    
C9    H3    S    
O6    C4    A    
C10   H4    S    
C26   H12   S    
C32   C44   T    
C59   H52   S    
C55   H34   S    
O1    V2    S    
H9    C35   S    
O2    V1    S    
C6    C22   A    
C58   H40   S    
O13   V3    S    
O4    C2    A    
C9    C11   A    
C25   C33   S    
C5    C19   A    
C10   C12   A    
C47   C52   S    
C30   H20   S    
C6    C20   A    
C61   H47   S    
C54   H37   S    
O3    V1    S    
C57   C58   S    
C62   C63   S    
C27   H13   S    
O2    C4    A    
C22   C56   S    
C28   H14   S    
C10   C18   A    
C55   H33   S    
O7    V1    S    
C11   H7    S    
C60   H51   S    
C42   H24   S    
C61   H48   S    
C63   H57   S    
C40   H26   S    
C56   C57   S    
O13   C49   A    
C28   H16   S    
C13   C15   A    
C50   O17   A    
O15   V3    S    
C14   C16   A    
C29   H17   S    
C30   H18   S    
C16   C18   A    
C60   C61   S    
C59   C60   S    
C1    O8    A    
C17   C19   A    
O8    V2    S    
C64   H54   S    
C38   C44   S    
C31   C43   T    
C12   H8    S    
C4    C7    S    
O5    V1    S    
C21   C23   A    
C27   C33   S    
C37   C43   S    
C55   H35   S    
C46   C48   T    
C62   H60   S    
C30   C38   S    
C23   H5    S    
C58   H41   S    
C25   H11   S    
C39   H31   S    
C16   C24   A    
C36   C38   S    
O9    V2    S    
O10   V1    S    
C38   C40   S    
C28   C34   S    
C53   C54   S    
C54   H36   S    
C41   H23   S    
C56   H45   S    
