data_mof_unit_49808.cif
_audit_creation_date              2013-03-05T15:52:56-0500
_audit_creation_method            fapswitch 2.2
_symmetry_space_group_name_H-M    P1
_symmetry_Int_Tables_number       1
_space_group_crystal_system       triclinic
_cell_length_a                    10.66817
_cell_length_b                    10.840706
_cell_length_c                    17.062383
_cell_angle_alpha                 99.60328
_cell_angle_beta                  100.163277
_cell_angle_gamma                 61.254811
_cell_volume                      1695.2555616

loop_
_atom_site_label
_atom_site_type_symbol
_atom_site_description
_atom_site_fract_x
_atom_site_fract_y
_atom_site_fract_z
_atom_type_partial_charge
O1    O     O_R   0.749810 0.499790 0.438040 -0.474286
O2    O     O_R   0.477660 0.726260 0.439290 -0.449307
C1    C     C_R   0.377801 0.712231 0.386636 0.562095
O3    O     O_R   0.260150 0.743000 0.412270 -0.405838
O4    O     O_R   0.297740 0.466550 0.394720 -0.452626
C2    C     C_R   0.368427 0.345967 0.358041 0.572055
O5    O     O_R   0.488080 0.253500 0.386430 -0.479944
O6    O     O_R   0.722670 0.303800 0.421940 -0.483814
C3    C     C_R   0.780389 0.375870 0.404736 0.539892
O7    O     O_R   0.751130 0.502220 0.613520 -0.467852
O8    O     O_R   0.478890 0.728510 0.601960 -0.420839
C4    C     C_R   0.381127 0.715740 0.631850 0.524270
O9    O     O_R   0.261470 0.745430 0.587750 -0.442018
O10   O     O_R   0.298970 0.468800 0.557390 -0.524330
C5    C     C_R   0.370758 0.347541 0.585699 0.574955
O11   O     O_R   0.489400 0.255930 0.561910 -0.451083
O12   O     O_R   0.723890 0.306050 0.584610 -0.461742
C6    C     C_R   0.719315 0.410772 0.635318 0.503494
Cr1   Cr    Cr6+3 0.608100 0.610860 0.522250 1.179238
Cr2   Cr    Cr6+3 0.288890 0.599990 0.488420 1.160279
Cr3   Cr    Cr6+3 0.603040 0.289190 0.489390 1.148340
O13   O     O_3   0.500010 0.500010 0.500020 -0.377620
C7    C     C_1   0.341295 0.332797 0.274785 0.008502
C8    C     C_1   0.331354 0.320811 0.203980 0.024222
C9    C     C_R   0.826549 0.337423 0.163532 -0.012093
C10   C     C_R   0.830482 0.223487 0.195777 -0.023332
C11   C     C_R   0.858922 0.216853 0.279595 -0.054339
C12   C     C_R   0.854392 0.445263 0.297547 0.107237
C13   C     C_R   0.818678 0.456394 0.215428 0.015744
C14   C     C_R   0.812902 0.112342 0.146892 0.253603
C15   C     C_R   0.864570 0.983550 0.178072 -0.115979
C16   C     C_R   0.908994 0.972246 0.259479 -0.139542
C17   C     C_R   0.900880 0.089135 0.310578 -0.048405
C18   C     C_R   0.850440 0.336145 0.330343 -0.017145
H1    H     H_    0.863535 0.894584 0.139441 0.163619
H2    H     H_    0.935741 0.877110 0.284473 0.233957
H3    H     H_    0.932680 0.077913 0.373902 0.212874
C19   C     C_R   0.359086 0.811134 0.153703 0.016380
C20   C     C_R   0.432890 0.856981 0.218649 -0.016338
C21   C     C_R   0.414160 0.846399 0.296046 -0.055949
C22   C     C_R   0.284140 0.708931 0.239638 0.138227
C23   C     C_R   0.299176 0.727798 0.164166 -0.109765
C24   C     C_R   0.520760 0.917532 0.209693 -0.129317
C25   C     C_R   0.591411 0.959609 0.276050 -0.153153
C26   C     C_R   0.568029 0.952810 0.352083 0.243746
C27   C     C_R   0.455131 0.925903 0.359951 0.232528
C28   C     C_R   0.352508 0.761012 0.307363 -0.000891
H4    H     H_    0.552211 0.917473 0.153128 0.193956
H5    H     H_    0.248181 0.691068 0.111647 0.181882
H6    H     H_    0.666667 0.993899 0.267994 0.146600
H7    H     H_    0.133970 0.513239 0.663724 0.191531
C29   C     C_R   0.334929 0.344497 0.827199 0.002798
C30   C     C_R   0.464902 0.258463 0.794123 -0.041738
C31   C     C_R   0.458045 0.226781 0.711368 -0.021858
C32   C     C_R   0.222801 0.434511 0.698632 -0.126354
C33   C     C_R   0.215513 0.437927 0.779639 -0.126231
C34   C     C_R   0.596158 0.188320 0.841602 -0.132102
C35   C     C_R   0.713461 0.076352 0.807960 -0.120939
C36   C     C_R   0.699570 0.027369 0.727536 0.199936
C37   C     C_R   0.564145 0.093305 0.681299 0.229226
C38   C     C_R   0.342682 0.327345 0.662825 0.031694
H8    H     H_    0.606964 0.219480 0.904825 0.218373
H9    H     H_    0.115047 0.508990 0.804128 0.178208
H10   H     H_    0.813287 0.023144 0.845497 0.201665
C39   C     C_1   0.769908 0.367626 0.714559 -0.023248
C40   C     C_1   0.814637 0.328535 0.780536 -0.021407
C41   C     C_1   0.358459 0.766030 0.713978 -0.007177
C42   C     C_1   0.325424 0.812732 0.780721 0.002891
O14   O     O_R   0.171100 0.914680 0.053100 -0.512499
O15   O     O_R   0.941680 0.184840 0.050710 -0.477586
C43   C     C_R   0.890782 0.310297 0.087834 0.584505
O16   O     O_R   0.922080 0.403420 0.072610 -0.470830
O17   O     O_R   0.196880 0.369150 0.083850 -0.453621
C44   C     C_R   0.318761 0.296855 0.120596 0.587253
O18   O     O_R   0.411730 0.181020 0.091530 -0.496822
O19   O     O_R   0.365010 0.944360 0.063320 -0.512620
C45   C     C_R   0.299069 0.886808 0.083113 0.551408
O20   O     O_R   0.159380 0.906670 0.876210 -0.483649
O21   O     O_R   0.930820 0.177420 0.886730 -0.504175
C46   C     C_R   0.880425 0.299880 0.860308 0.548790
O22   O     O_R   0.910360 0.395420 0.895720 -0.497350
O23   O     O_R   0.186010 0.361730 0.919870 -0.507913
C47   C     C_R   0.309744 0.296232 0.895297 0.563576
O24   O     O_R   0.400000 0.173010 0.914630 -0.469536
O25   O     O_R   0.354140 0.936940 0.899340 -0.489849
C48   C     C_R   0.280756 0.881357 0.857685 0.558480
Cr4   Cr    Cr6+3 0.053960 0.052250 0.967380 1.086450
Cr5   Cr    Cr6+3 0.059890 0.373160 0.992710 1.106222
Cr6   Cr    Cr6+3 0.373370 0.061690 0.991710 1.100853
O26   O     O_3   0.162410 0.162370 0.983930 -0.290612
N1    N     N_R   0.890283 0.547768 0.346806 -0.102052
O27   O     O_R   0.988611 0.511848 0.407854 -0.000002
O28   O     O_R   0.988610 0.511849 0.407855 -0.000002
N2    N     N_R   0.668761 0.954240 0.419497 0.117758
O29   O     O_R   0.742482 0.021003 0.419650 -0.322357
O30   O     O_R   0.718154 0.855118 0.467004 -0.232640
N3    N     N_R   0.359556 0.010571 0.419849 0.117098
O31   O     O_R   0.375034 0.115404 0.460679 -0.268743
O32   O     O_R   0.235207 0.013780 0.416372 -0.315049
N4    N     N_R   0.822589 0.912177 0.693830 0.104729
O33   O     O_R   0.850006 0.917469 0.623479 -0.232022
O34   O     O_R   0.919879 0.814877 0.738005 -0.351455
N5    N     N_R   0.519173 0.010622 0.619052 0.120389
O35   O     O_R   0.382905 0.045293 0.604003 -0.268809
O36   O     O_R   0.610336 0.881984 0.596680 -0.221026
N6    N     N_R   0.730217 0.134036 0.069426 0.078808
O37   O     O_R   0.743726 0.026860 0.017572 -0.372454
O38   O     O_R   0.627850 0.259416 0.054536 -0.377099
C49   C     C_2   0.777134 0.591235 0.183459 0.617973
O39   O     O_2   0.686760 0.627945 0.125302 -0.527977
O40   O     O_R   0.845049 0.672816 0.217055 -0.617012
H11   H     H_    0.810979 0.757394 0.186802 0.317947
N7    N     N_R   0.187793 0.650144 0.242335 0.040593
O41   O     O_R   0.133672 0.659631 0.306528 -0.285914
O42   O     O_R   0.125591 0.616471 0.175753 -0.346573

loop_
_geom_bond_atom_site_label_1
_geom_bond_atom_site_label_2
_geom_bond_distance
_ccdc_geom_bond_type
O20   Cr4   2.065542 S    
C21   C28   1.420118 A    
C32   C33   1.391364 A    
O11   Cr3   2.056578 S    
C42   C48   1.434897 S    
O17   C44   1.262572 A    
O14   C45   1.274935 A    
O40   H11   1.005193 S    
O21   Cr4   1.931613 S    
N3    O31   1.296100 A    
C34   H8    1.078451 S    
O4    Cr2   1.951350 S    
C31   C37   1.421291 A    
C30   C31   1.393899 A    
C11   C17   1.400510 A    
C6    C39   1.431342 S    
C21   C27   1.415410 A    
O8    Cr1   1.941226 S    
C10   C11   1.415172 A    
C16   H2    1.071305 S    
C13   C49   1.479298 S    
C12   C13   1.395248 A    
C19   C23   1.380570 A    
C49   O40   1.391503 S    
O25   C48   1.263161 A    
C14   C15   1.392960 A    
N6    O37   1.301706 A    
C26   N2    1.432468 S    
C5    O11   1.261277 A    
C22   C23   1.384971 A    
O16   Cr5   2.054709 S    
C47   O24   1.272060 A    
O6    C3    1.295671 A    
C7    C8    1.184625 T    
O15   C43   1.292064 A    
C9    C43   1.488639 S    
C37   N5    1.441461 S    
C24   H4    1.076081 S    
O14   Cr4   2.053085 S    
O19   Cr6   1.945448 S    
O20   C48   1.274988 A    
C12   C18   1.411152 A    
C36   C37   1.418876 A    
Cr3   O13   1.995031 S    
C14   N6    1.439857 S    
C9    C13   1.412637 A    
C36   N4    1.436297 S    
O15   Cr4   1.945638 S    
N3    O32   1.301170 A    
O6    Cr3   1.936982 S    
C11   C18   1.404212 A    
C5    C38   1.472314 S    
C19   C20   1.406988 A    
C4    C41   1.434301 S    
O1    Cr1   2.058708 S    
C44   O18   1.254747 A    
C41   C42   1.206244 T    
O10   Cr2   1.945684 S    
Cr1   O13   1.985950 S    
O1    C3    1.274044 A    
O19   C45   1.254775 A    
C22   N7    1.456447 S    
C20   C21   1.400970 A    
O25   Cr6   1.948475 S    
C20   C24   1.417332 A    
C35   H10   1.081105 S    
C35   C36   1.395612 A    
O5    Cr3   2.051637 S    
O12   Cr3   1.929642 S    
C29   C47   1.464319 S    
C24   C25   1.383926 A    
O17   Cr5   1.927519 S    
N1    O28   1.301466 A    
C15   C16   1.391967 A    
O7    Cr1   2.045813 S    
N4    O34   1.301586 A    
O12   C6    1.293699 A    
C22   C28   1.437708 A    
C33   H9    1.083178 S    
N5    O36   1.298150 A    
N2    O30   1.297938 A    
C31   C38   1.428367 A    
C27   N3    1.442640 S    
Cr5   O26   1.995026 S    
C10   C14   1.417564 A    
C3    C18   1.482562 S    
C15   H1    1.077177 S    
O24   Cr6   2.063461 S    
C1    O3    1.272901 A    
N1    O27   1.301469 A    
C29   C30   1.402718 A    
N7    O41   1.293084 A    
C25   H6    1.069902 S    
C30   C34   1.405801 A    
O9    Cr2   2.069691 S    
O2    Cr1   1.930383 S    
C25   C26   1.383631 A    
Cr2   O13   1.962884 S    
C46   O22   1.257381 A    
O8    C4    1.310397 A    
C2    O5    1.257751 A    
C19   C45   1.444272 S    
C40   C46   1.426858 S    
C16   C17   1.387762 A    
O2    C1    1.318186 A    
C9    C10   1.413778 A    
C43   O16   1.280778 A    
C49   O39   1.223790 D    
C8    C44   1.397300 S    
C34   C35   1.388847 A    
O4    C2    1.270657 A    
N6    O38   1.301619 A    
O7    C6    1.314361 A    
O23   Cr5   1.936142 S    
C2    C7    1.396093 S    
C32   C38   1.402996 A    
C1    C28   1.467838 S    
N4    O33   1.301052 A    
C12   N1    1.439395 S    
H7    C32   1.083387 S    
C39   C40   1.204010 T    
N2    O29   1.299416 A    
C17   H3    1.082625 S    
O22   Cr5   2.042771 S    
O18   Cr6   2.066349 S    
C23   H5    1.083859 S    
O21   C46   1.297052 A    
O3    Cr2   2.063979 S    
C26   C27   1.400626 A    
C4    O9    1.282944 A    
O23   C47   1.271574 A    
Cr4   O26   1.985970 S    
N5    O35   1.302104 A    
O10   C5    1.288726 A    
Cr6   O26   1.963210 S    
C29   C33   1.405577 A    
N7    O42   1.301077 A    
