data_mof_unit_20671.cif
_audit_creation_date              2012-10-26T21:20:07-0400
_audit_creation_method            fapswitch 2.2
_symmetry_space_group_name_H-M    P1
_symmetry_Int_Tables_number       1
_space_group_crystal_system       triclinic
_cell_length_a                    12.998219
_cell_length_b                    10.829665
_cell_length_c                    9.531889
_cell_angle_alpha                 89.805233
_cell_angle_beta                  96.337268
_cell_angle_gamma                 90.507782
_cell_volume                      1333.51390775

loop_
_atom_site_label
_atom_site_type_symbol
_atom_type_description
_atom_site_fract_x
_atom_site_fract_y
_atom_site_fract_z
_atom_type_partial_charge
C1    C     C_R   0.499920 0.262118 0.500090 0.564541
C2    C     C_R   0.699253 0.501563 0.526727 0.615321
C3    C     C_R   0.812037 0.507431 0.543097 0.013029
C4    C     C_R   0.187963 0.492582 0.456899 0.013018
C5    C     C_R   0.027795 0.406538 0.342799 0.285468
C6    C     C_R   0.972201 0.593505 0.657180 0.285464
C7    C     C_R   0.135763 0.415695 0.354137 0.065483
C8    C     C_R   0.864233 0.584331 0.645847 0.065466
C9    C     C_R   0.133176 0.564180 0.544953 0.221625
C10   C     C_R   0.866828 0.435844 0.455038 0.221623
C11   C     C_R   0.026825 0.540339 0.551415 -0.033273
C12   C     C_R   0.500080 0.737882 0.499910 0.564544
C13   C     C_R   0.973176 0.459697 0.448572 -0.033281
C14   C     C_R   0.497438 0.064256 0.372238 -0.105757
C15   C     C_R   0.502561 0.935744 0.627762 -0.105754
C16   C     C_R   0.497508 0.936521 0.372107 -0.113474
C17   C     C_R   0.502491 0.063479 0.627892 -0.113473
C18   C     C_R   0.500073 0.871751 0.499858 0.036407
C19   C     C_R   0.499926 0.128249 0.500141 0.036406
C20   C     C_R   0.434982 0.423767 0.065457 0.013444
C21   C     C_R   0.565019 0.576232 0.934544 0.013450
C22   C     C_R   0.434720 0.423384 0.916428 0.223399
C23   C     C_R   0.565281 0.576615 0.083572 0.223401
C24   C     C_R   0.300747 0.498438 0.473272 0.615317
Cl1   Cl    Cl    0.803061 0.302544 0.377980 -0.478726
Cl2   Cl    Cl    0.196952 0.697476 0.622010 -0.478720
Cl3   Cl    Cl    0.965812 0.341279 0.184830 -0.481279
Cl4   Cl    Cl    0.034177 0.658802 0.815132 -0.481262
Cu1   Cu    Cu3+1 0.500000 0.500020 0.640660 1.054002
Cu2   Cu    Cu3+1 0.500000 0.499980 0.359340 1.053998
H1    H     H_    0.495327 0.112595 0.272288 0.143840
H2    H     H_    0.172748 0.377849 0.157082 0.281827
H3    H     H_    0.290259 0.362700 0.852278 0.237336
H4    H     H_    0.381438 0.251809 0.867609 0.202063
H5    H     H_    0.709743 0.637282 0.147737 0.237352
H6    H     H_    0.618576 0.748187 0.132381 0.202058
H7    H     H_    0.504672 0.887405 0.727711 0.143842
H8    H     H_    0.495384 0.888807 0.272138 0.141675
H9    H     H_    0.504615 0.111193 0.727861 0.141671
H10   H     H_    0.383224 0.362656 0.114701 0.124892
H11   H     H_    0.616777 0.637342 0.885299 0.124894
H12   H     H_    0.827255 0.622209 0.842892 0.281839
H13   H     H_    0.825623 0.746152 0.732482 0.269663
H14   H     H_    0.174347 0.253880 0.267449 0.269670
N1    N     N_R   0.500030 0.500030 0.852080 -0.206884
N2    N     N_R   0.499970 0.499970 0.147920 -0.206884
N3    N     N_3   0.806568 0.652493 0.739454 -0.603528
N4    N     N_3   0.193420 0.347538 0.260515 -0.603520
N5    N     N_3   0.365870 0.342124 0.832994 -0.548656
N6    N     N_3   0.634133 0.657872 0.167007 -0.548659
O1    O     O_R   0.499990 0.319660 0.618740 -0.489656
O2    O     O_R   0.500010 0.680340 0.381260 -0.489654
O3    O     O_R   0.499990 0.319630 0.381170 -0.505965
O4    O     O_R   0.500010 0.680370 0.618830 -0.505962
O5    O     O_R   0.349000 0.499990 0.599490 -0.441538
O6    O     O_R   0.651000 0.500010 0.400510 -0.441541
O7    O     O_R   0.348990 0.499960 0.361920 -0.485294
O8    O     O_R   0.651010 0.500040 0.638080 -0.485290

loop_
_geom_bond_atom_site_label_1
_geom_bond_atom_site_label_2
_ccdc_geom_bond_type
C15   C18   A    
C6    C8    A    
C2    O8    A    
Cu1   Cu2   S    
C6    Cl4   S    
C1    O1    A    
C5    C13   A    
C3    C10   A    
C14   H1    S    
C7    N4    S    
C4    C24   S    
H5    N6    S    
C21   C23   A    
C2    C3    S    
C8    N3    S    
C5    C7    A    
C23   N2    A    
C2    O6    A    
C24   O5    A    
C11   C13   A    
H2    N4    S    
Cu2   O6    S    
C4    C7    A    
C21   H11   S    
C10   Cl1   S    
C17   C19   A    
C20   C22   A    
C9    Cl2   S    
C21   N1    A    
H12   N3    S    
C9    C11   A    
Cu1   O1    S    
C20   H10   S    
Cu2   O3    S    
C14   C16   A    
C1    C19   S    
Cu1   N1    S    
Cu1   O4    S    
H3    N5    S    
Cu2   O7    S    
C20   N2    A    
C22   N1    A    
H6    N6    S    
Cu1   O8    S    
C16   C18   A    
C3    C8    A    
C17   H9    S    
C12   C18   S    
C6    C11   A    
C15   C17   A    
Cu2   O2    S    
C15   H7    S    
C23   N6    S    
C1    O3    A    
Cu1   O5    S    
C12   O2    A    
C4    C9    A    
C5    Cl3   S    
H13   N3    S    
C14   C19   A    
Cu2   N2    S    
C12   O4    A    
C22   N5    S    
H14   N4    S    
C16   H8    S    
C24   O7    A    
H4    N5    S    
C10   C13   A    
