data_mof_unit_35723.cif
_audit_creation_date              2012-12-11T16:44:24-0500
_audit_creation_method            fapswitch 2.2
_symmetry_space_group_name_H-M    P1
_symmetry_Int_Tables_number       1
_space_group_crystal_system       triclinic
_cell_length_a                    27.387602
_cell_length_b                    7.194278
_cell_length_c                    22.703064
_cell_angle_alpha                 90.00016
_cell_angle_beta                  101.26949
_cell_angle_gamma                 90.002821
_cell_volume                      4387.02616068

loop_
_atom_site_label
_atom_site_type_symbol
_atom_type_description
_atom_site_fract_x
_atom_site_fract_y
_atom_site_fract_z
_atom_type_partial_charge
O1    O     O_R   0.707300 0.594030 0.176840 -0.536353
O2    O     O_R   0.292700 0.405970 0.823160 -0.535894
O3    O     O_R   0.792700 0.094030 0.323160 -0.536351
O4    O     O_R   0.207300 0.905970 0.676840 -0.535890
O5    O     O_R   0.697330 0.262360 0.295660 -0.543313
O6    O     O_R   0.302670 0.737640 0.704340 -0.544858
O7    O     O_R   0.802670 0.762360 0.204340 -0.543309
O8    O     O_R   0.197330 0.237640 0.795660 -0.544796
C1    C     C_R   0.684620 0.432590 0.311519 0.688240
C2    C     C_R   0.315329 0.567433 0.688404 0.690230
C3    C     C_R   0.815378 0.932595 0.188480 0.688241
C4    C     C_R   0.184674 0.067429 0.811600 0.690171
O9    O     O_R   0.701410 0.264250 0.175600 -0.541284
O10   O     O_R   0.298590 0.735750 0.824400 -0.544616
O11   O     O_R   0.798590 0.764250 0.324400 -0.541258
O12   O     O_R   0.201410 0.235750 0.675600 -0.544563
O13   O     O_R   0.796800 0.094950 0.202240 -0.539423
O14   O     O_R   0.203200 0.905050 0.797760 -0.538340
O15   O     O_R   0.703200 0.594950 0.297760 -0.539419
O16   O     O_R   0.296800 0.405050 0.702240 -0.538333
C5    C     C_R   0.689266 0.433076 0.153853 0.752407
C6    C     C_R   0.310702 0.566856 0.846160 0.746315
C7    C     C_R   0.810738 0.933085 0.346144 0.752403
C8    C     C_R   0.189303 0.066847 0.653835 0.746389
O17   O     O_3   0.781290 0.427390 0.258880 -0.383327
O18   O     O_3   0.218710 0.572610 0.741120 -0.379623
O19   O     O_3   0.718710 0.927390 0.241120 -0.383356
O20   O     O_3   0.281290 0.072610 0.758880 -0.379631
V1    V     V_3+5 0.744190 0.152150 0.248350 1.372328
V2    V     V_3+5 0.255810 0.847850 0.751650 1.379870
V3    V     V_3+5 0.755810 0.652150 0.251650 1.372365
V4    V     V_3+5 0.244190 0.347850 0.748350 1.379978
C9    C     C_R   0.154012 0.054231 0.595745 -0.104167
C10   C     C_R   0.846095 0.940846 0.404294 -0.101365
C11   C     C_R   0.346007 0.554292 0.904240 -0.104369
C12   C     C_R   0.653918 0.440806 0.095699 -0.101360
C13   C     C_R   0.141359 0.983456 0.489910 -0.166557
C14   C     C_R   0.859812 0.907520 0.512211 -0.166974
C15   C     C_R   0.358670 0.483864 0.010091 -0.166534
C16   C     C_R   0.640207 0.407309 0.987786 -0.166982
C17   C     C_R   0.173069 0.010742 0.544832 -0.245217
C18   C     C_R   0.828300 0.899435 0.456317 -0.247852
C19   C     C_R   0.326955 0.511102 0.955174 -0.245191
C20   C     C_R   0.671716 0.399313 0.043685 -0.247871
C21   C     C_R   0.101951 0.072066 0.591573 0.331262
C22   C     C_R   0.896774 0.988888 0.408231 0.325833
C23   C     C_R   0.398071 0.571923 0.908382 0.331386
C24   C     C_R   0.603242 0.488857 0.091751 0.325796
C25   C     C_R   0.068372 0.020893 0.536717 -0.030788
C26   C     C_R   0.931101 0.970335 0.464806 -0.032356
C27   C     C_R   0.431651 0.520861 0.963251 -0.030557
C28   C     C_R   0.568917 0.470229 0.035176 -0.032363
C29   C     C_R   0.089611 0.986368 0.485388 0.105636
C30   C     C_R   0.910722 0.943329 0.516973 0.107387
C31   C     C_R   0.410414 0.486573 0.014596 0.105661
C32   C     C_R   0.589298 0.443118 0.983015 0.107409
C33   C     C_R   0.015197 0.998758 0.530431 0.060611
C34   C     C_R   0.984429 0.977005 0.471886 0.061505
C35   C     C_R   0.484824 0.498607 0.969539 0.060479
C36   C     C_R   0.515590 0.476935 0.028091 0.061532
C37   C     C_R   0.007991 0.943838 0.423123 -0.199291
C38   C     C_R   0.992166 0.979233 0.580490 -0.204023
C39   C     C_R   0.492025 0.443899 0.076859 -0.199273
C40   C     C_R   0.507859 0.478952 0.919486 -0.204120
C41   C     C_R   0.059357 0.947641 0.429868 -0.200702
C42   C     C_R   0.941355 0.947965 0.573747 -0.199583
C43   C     C_R   0.440662 0.447854 0.070119 -0.200730
C44   C     C_R   0.558669 0.447652 0.926238 -0.199582
H1    H     H_    0.075664 0.917463 0.391079 0.123526
H2    H     H_    0.925860 0.926384 0.613663 0.122796
H3    H     H_    0.424353 0.417805 0.108916 0.123524
H4    H     H_    0.574165 0.425990 0.886326 0.122780
H5    H     H_    0.789383 0.865498 0.453717 0.127230
H6    H     H_    0.212903 0.998497 0.547648 0.126538
H7    H     H_    0.710632 0.365366 0.046293 0.127228
H8    H     H_    0.287121 0.499021 0.952376 0.126533
H9    H     H_    0.157472 0.953351 0.450979 0.124316
H10   H     H_    0.844439 0.881641 0.551964 0.124606
H11   H     H_    0.342560 0.453945 0.049036 0.124314
H12   H     H_    0.655581 0.381361 0.948038 0.124605
H13   H     H_    0.987456 0.902111 0.379685 0.179572
H14   H     H_    0.012931 0.972030 0.625778 0.187680
H15   H     H_    0.512553 0.402188 0.120301 0.179574
H16   H     H_    0.487106 0.471700 0.874197 0.187727
C45   C     C_R   0.868114 0.117690 0.130456 -0.160537
C46   C     C_R   0.132194 0.882442 0.869992 -0.156294
C47   C     C_R   0.631807 0.617715 0.369433 -0.160487
C48   C     C_R   0.367934 0.382403 0.630185 -0.156228
H17   H     H_    0.850824 0.244868 0.141616 0.121695
H18   H     H_    0.149494 0.755278 0.858841 0.124244
H19   H     H_    0.649037 0.744927 0.358186 0.121682
H20   H     H_    0.350731 0.255179 0.641470 0.124256
C49   C     C_R   0.903921 0.130247 0.094367 -0.147222
C50   C     C_R   0.096485 0.869908 0.906216 -0.149142
C51   C     C_R   0.595999 0.630276 0.405521 -0.147226
C52   C     C_R   0.403641 0.369877 0.593959 -0.149177
H21   H     H_    0.912520 0.265903 0.078415 0.100739
H22   H     H_    0.087951 0.734284 0.922250 0.100846
H23   H     H_    0.587337 0.765969 0.421385 0.100737
H24   H     H_    0.412266 0.234192 0.578055 0.100815
C53   C     C_R   0.927374 0.969983 0.077875 0.094934
C54   C     C_R   0.073027 0.030152 0.922706 0.094739
C55   C     C_R   0.572624 0.469973 0.422121 0.094924
C56   C     C_R   0.426981 0.530183 0.577301 0.094758
C57   C     C_R   0.914143 0.796468 0.098874 -0.144567
C58   C     C_R   0.086191 0.203648 0.901629 -0.144669
C59   C     C_R   0.585928 0.296415 0.401230 -0.144575
C60   C     C_R   0.413702 0.703737 0.598219 -0.144703
H25   H     H_    0.931942 0.670280 0.087840 0.100249
H26   H     H_    0.068401 0.329826 0.912691 0.100327
H27   H     H_    0.568189 0.170193 0.412354 0.100265
H28   H     H_    0.431396 0.829976 0.587027 0.100313
C61   C     C_R   0.878177 0.783704 0.135016 -0.160933
C62   C     C_R   0.122057 0.216387 0.865348 -0.161298
C63   C     C_R   0.621891 0.283651 0.365084 -0.160941
C64   C     C_R   0.377838 0.716468 0.634505 -0.161363
H29   H     H_    0.869008 0.647800 0.150259 0.121870
H30   H     H_    0.131174 0.352275 0.850046 0.119065
H31   H     H_    0.631119 0.147715 0.349927 0.121834
H32   H     H_    0.368627 0.852403 0.649676 0.119053
C65   C     C_R   0.854448 0.944226 0.151097 -0.043037
C66   C     C_R   0.145742 0.055855 0.849190 -0.043274
C67   C     C_R   0.645547 0.444213 0.348898 -0.043049
C68   C     C_R   0.354268 0.555872 0.650823 -0.043182
C69   C     C_R   0.967035 0.850467 0.993875 -0.153260
C70   C     C_R   0.033400 0.149635 0.006745 -0.153292
C71   C     C_R   0.533058 0.350767 0.506239 -0.153253
C72   C     C_R   0.466513 0.649358 0.493140 -0.153277
H33   H     H_    0.941144 0.735143 0.987235 0.108935
H34   H     H_    0.059287 0.264972 0.013373 0.108827
H35   H     H_    0.559020 0.235681 0.512964 0.108968
H36   H     H_    0.440556 0.764460 0.486422 0.108850
C73   C     C_R   0.001731 0.865897 0.956254 -0.153165
C74   C     C_R   0.998704 0.134202 0.044369 -0.153101
C75   C     C_R   0.498365 0.366212 0.543862 -0.153172
C76   C     C_R   0.501207 0.633908 0.455514 -0.153113
H37   H     H_    0.001613 0.761626 0.921844 0.107918
H38   H     H_    0.998820 0.238486 0.078775 0.107967
H39   H     H_    0.498557 0.262183 0.578361 0.107940
H40   H     H_    0.501023 0.737943 0.421018 0.108014
C77   C     C_R   0.035440 0.015643 0.962169 0.082469
C78   C     C_R   0.964992 0.984460 0.038451 0.082160
C79   C     C_R   0.464565 0.515669 0.537834 0.082449
C80   C     C_R   0.535009 0.484455 0.461547 0.082124
O21   O     O_3   0.911067 0.051460 0.356286 -0.591521
C81   C     C_3   0.929391 0.236485 0.363173 0.029177
H41   H     H_    0.964968 0.240910 0.346628 0.151655
H42   H     H_    0.937575 0.288519 0.410403 0.117236
C82   C     C_3   0.892530 0.368793 0.325161 -0.259318
H43   H     H_    0.882242 0.314519 0.278525 0.205813
H44   H     H_    0.858538 0.377638 0.344824 0.210402
C83   C     C_3   0.914607 0.563159 0.323618 -0.809933
H45   H     H_    0.924138 0.621214 0.369755 0.229191
H46   H     H_    0.887136 0.656077 0.295571 0.251158
H47   H     H_    0.948656 0.558576 0.303923 0.219006
O22   O     O_3   0.085567 0.133649 0.642147 -0.594438
C84   C     C_3   0.065091 0.314705 0.632745 0.027016
H48   H     H_    0.032227 0.320683 0.654660 0.151044
H49   H     H_    0.051383 0.351477 0.584560 0.119314
C85   C     C_3   0.103067 0.459212 0.662219 -0.269304
H50   H     H_    0.118503 0.417573 0.709334 0.214551
H51   H     H_    0.133794 0.467485 0.636867 0.202701
C86   C     C_3   0.079603 0.650992 0.662176 -0.821248
H52   H     H_    0.065069 0.695231 0.615240 0.234949
H53   H     H_    0.108095 0.752469 0.683769 0.253383
H54   H     H_    0.048757 0.649045 0.687486 0.223787
O23   O     O_3   0.588948 0.551499 0.143685 -0.591522
C87   C     C_3   0.570640 0.736534 0.136777 0.029264
H55   H     H_    0.535046 0.740989 0.153292 0.151629
H56   H     H_    0.562484 0.788545 0.089539 0.117178
C88   C     C_3   0.607502 0.868839 0.174814 -0.259173
H57   H     H_    0.617777 0.814550 0.221454 0.205763
H58   H     H_    0.641506 0.877713 0.155166 0.210363
C89   C     C_3   0.585419 0.063200 0.176357 -0.809765
H59   H     H_    0.575901 0.121272 0.130215 0.229152
H60   H     H_    0.612889 0.156108 0.204421 0.251149
H61   H     H_    0.551356 0.058583 0.196038 0.218972
O24   O     O_3   0.414450 0.633015 0.857750 -0.594483
C90   C     C_3   0.434970 0.814036 0.867006 0.026644
H62   H     H_    0.467596 0.820078 0.844670 0.151038
H63   H     H_    0.449049 0.850482 0.915142 0.119625
C91   C     C_3   0.396863 0.958781 0.837992 -0.269906
H64   H     H_    0.381162 0.917620 0.790905 0.214961
H65   H     H_    0.366346 0.966702 0.863675 0.202495
C92   C     C_3   0.420273 0.150640 0.838018 -0.821019
H66   H     H_    0.435112 0.194375 0.884929 0.234953
H67   H     H_    0.391670 0.252258 0.816808 0.253572
H68   H     H_    0.450882 0.149110 0.812345 0.223820

loop_
_geom_bond_atom_site_label_1
_geom_bond_atom_site_label_2
_ccdc_geom_bond_type
O17   V3    S    
C88   H57   S    
C48   C52   A    
O1    C5    A    
C84   H48   S    
C47   H19   S    
O19   V1    S    
C9    C21   A    
O3    C7    A    
C86   H52   S    
C10   C18   A    
C73   H37   S    
C48   C68   A    
C11   C23   A    
C55   C80   S    
O21   C81   S    
C92   H66   S    
C25   C33   A    
C33   C38   A    
C5    C12   S    
C75   H39   S    
C6    C11   S    
C88   H58   S    
C35   C40   A    
C26   C30   A    
C58   C62   A    
C36   C39   A    
C40   C44   A    
C57   C61   A    
O22   C84   S    
C86   H53   S    
C71   C75   A    
C14   C18   A    
C23   O24   S    
C2    C68   S    
C72   C76   A    
C58   H26   S    
O4    C8    A    
C51   H23   S    
C87   H56   S    
C92   H67   S    
C22   O21   S    
C70   H34   S    
C24   O23   S    
O1    V3    S    
O13   V1    S    
O2    V4    S    
O3    V1    S    
C89   H59   S    
C40   H16   S    
C46   C50   A    
C17   H6    S    
C91   H64   S    
C45   C49   A    
C1    O15   A    
C87   C88   S    
C15   C31   A    
C48   H20   S    
C2    O16   A    
C16   C32   A    
C47   C51   A    
O2    C6    A    
C43   H3    S    
C16   H12   S    
C45   C65   A    
C10   C22   A    
C54   C77   S    
C11   C19   A    
O5    V1    S    
C76   H40   S    
C90   C91   S    
C13   C29   A    
C34   C37   A    
O11   C7    A    
C38   H14   S    
O15   V3    S    
C35   C36   A    
O12   C8    A    
C3    C65   S    
O10   V2    S    
C72   H36   S    
C51   C55   A    
O24   C90   S    
C81   H42   S    
C53   C57   A    
C88   C89   S    
C39   C43   A    
O7    V3    S    
C38   C42   A    
C26   C34   A    
C85   C86   S    
C86   H54   S    
C63   C67   A    
C4    C66   S    
C46   H18   S    
C82   C83   S    
C49   C53   A    
O23   C87   S    
C45   H17   S    
O18   V4    S    
C92   H68   S    
C23   C27   A    
C14   H10   S    
C32   C44   A    
C13   H9    S    
C64   H32   S    
C39   H15   S    
C44   H4    S    
C91   C92   S    
C15   H11   S    
C84   H49   S    
C20   H7    S    
O7    C3    A    
O5    C1    A    
C37   C41   A    
C74   C78   A    
C81   C82   S    
C53   C78   S    
C31   C43   A    
C14   C30   A    
C83   H47   S    
C21   C25   A    
C69   C78   A    
O8    C4    A    
C7    C10   S    
C56   C79   S    
O9    C5    A    
C21   O22   S    
C89   H61   S    
C59   C63   A    
C62   H30   S    
C61   H29   S    
C87   H55   S    
O6    V2    S    
C83   H46   S    
C84   C85   S    
C63   H31   S    
C52   C56   A    
C69   H33   S    
O14   V2    S    
C12   C20   A    
C27   C35   A    
O9    V1    S    
C49   H21   S    
C56   C60   A    
C29   C41   A    
C81   H41   S    
O16   V4    S    
C69   C73   A    
C19   H8    S    
C57   H25   S    
C3    O13   A    
C18   H5    S    
C64   C68   A    
C91   H65   S    
C59   H27   S    
C74   H38   S    
C15   C19   A    
O11   V3    S    
C30   C42   A    
O12   V4    S    
C22   C26   A    
C70   C77   A    
C73   C77   A    
C8    C9    S    
C9    C17   A    
C85   H50   S    
O10   C6    A    
C82   H44   S    
C76   C80   A    
C37   H13   S    
C82   H43   S    
C47   C67   A    
C60   C64   A    
C33   C34   A    
C42   H2    S    
O8    V4    S    
C41   H1    S    
C52   H24   S    
O20   V2    S    
C75   C79   A    
C1    C67   S    
C89   H60   S    
C12   C24   A    
C27   C31   A    
C71   C80   A    
C13   C17   A    
C46   C66   A    
C72   C79   A    
C71   H35   S    
C25   C29   A    
O6    C2    A    
C90   H62   S    
C62   C66   A    
C60   H28   S    
C16   C20   A    
C61   C65   A    
C83   H45   S    
C70   C74   A    
C28   C36   A    
C54   C58   A    
C4    O14   A    
C50   H22   S    
C55   C59   A    
C24   C28   A    
O4    V2    S    
C28   C32   A    
C50   C54   A    
C85   H51   S    
C90   H63   S    
