data_mof_unit_18109.cif
_audit_creation_date              2012-12-11T17:37:38-0500
_audit_creation_method            fapswitch 2.2
_symmetry_space_group_name_H-M    P1
_symmetry_Int_Tables_number       1
_space_group_crystal_system       triclinic
_cell_length_a                    12.938836
_cell_length_b                    13.034467
_cell_length_c                    15.32671
_cell_angle_alpha                 116.26647
_cell_angle_beta                  64.067995
_cell_angle_gamma                 96.958142
_cell_volume                      2076.16296797

loop_
_atom_site_label
_atom_site_type_symbol
_atom_type_description
_atom_site_fract_x
_atom_site_fract_y
_atom_site_fract_z
_atom_type_partial_charge
C1    C     C_R   0.001059 0.832415 0.053493 -0.099834
C2    C     C_R   0.292786 0.603510 0.795531 -0.098959
C3    C     C_R   0.259296 0.415734 0.047365 -0.162122
C4    C     C_R   0.679314 0.464798 0.219911 -0.122996
C5    C     C_R   0.046582 0.279905 0.684450 -0.112605
C6    C     C_R   0.361595 0.432095 0.973106 0.116073
C7    C     C_R   0.027734 0.171661 0.679529 0.030384
C8    C     C_R   0.289979 0.573113 0.698519 -0.032282
C9    C     C_R   0.012136 0.150950 0.041109 0.023767
C10   C     C_R   0.435680 0.749569 0.168952 -0.095182
C11   C     C_R   0.331158 0.787952 0.261831 -0.131600
C12   C     C_R   0.673442 0.532821 0.321715 0.044473
C13   C     C_R   0.282193 0.901077 0.309057 0.116347
C14   C     C_R   0.339892 0.975247 0.262530 -0.168354
C15   C     C_R   0.443808 0.936113 0.169027 -0.095240
C16   C     C_R   0.754957 0.520127 0.893360 -0.169509
C17   C     C_R   0.491853 0.823520 0.122383 -0.085048
C18   C     C_R   0.152603 0.036274 0.497563 -0.224919
C19   C     C_R   0.043026 0.070326 0.584809 0.095770
C20   C     C_R   0.947132 0.008724 0.580085 0.063873
C21   C     C_R   0.963224 0.911865 0.488210 -0.183660
C22   C     C_R   0.070576 0.879778 0.399735 0.075343
C23   C     C_R   0.661856 0.460118 0.926216 0.162595
C24   C     C_R   0.167535 0.939279 0.402935 0.022991
C25   C     C_R   0.771083 0.996131 0.729673 -0.198609
C26   C     C_R   0.654281 0.024247 0.800753 -0.059658
C27   C     C_R   0.590423 0.104760 0.803037 -0.098843
C28   C     C_R   0.014270 0.696295 0.301956 -0.172351
C29   C     C_R   0.643086 0.157666 0.734432 -0.155646
C30   C     C_R   0.761072 0.131957 0.663044 -0.055057
C31   C     C_R   0.825929 0.049885 0.661160 0.037046
C32   C     C_R   0.860984 0.330175 0.373613 -0.110450
C33   C     C_R   0.754532 0.369004 0.390798 -0.091617
C34   C     C_R   0.070253 0.791492 0.303498 0.033546
C35   C     C_R   0.697040 0.473806 0.478807 0.098656
C36   C     C_R   0.745120 0.536200 0.551698 -0.170348
C37   C     C_R   0.851014 0.496501 0.534606 -0.059731
C38   C     C_R   0.909679 0.394453 0.444830 -0.080229
C39   C     C_R   0.491633 0.535628 0.587276 -0.152341
C40   C     C_R   0.676162 0.422266 0.990844 -0.133791
C41   C     C_R   0.385408 0.576597 0.606582 0.112572
C42   C     C_R   0.372546 0.604576 0.532975 0.017650
C43   C     C_R   0.469858 0.589211 0.438589 -0.243894
C44   C     C_R   0.576026 0.548237 0.420008 0.071251
C45   C     C_R   0.337760 0.512609 0.947832 -0.043508
C46   C     C_R   0.587746 0.520589 0.494624 0.001324
C47   C     C_R   0.220118 0.598116 0.472122 -0.180388
C48   C     C_R   0.115048 0.639712 0.489388 -0.130307
C49   C     C_R   0.049648 0.733080 0.586159 -0.092230
C50   C     C_R   0.089107 0.784769 0.666227 -0.101604
C51   C     C_R   0.194124 0.743077 0.649504 -0.131322
C52   C     C_R   0.094383 0.799598 0.210021 -0.055062
C53   C     C_R   0.260478 0.649074 0.552200 0.126347
C54   C     C_2   0.475372 0.393019 0.946770 -0.252836
C55   C     C_2   0.567269 0.438610 0.896577 -0.165015
C56   C     C_R   0.965319 0.180014 0.781907 -0.124799
C57   C     C_2   0.832021 0.959051 0.095240 -0.113093
C58   C     C_2   0.819825 0.034002 0.194317 -0.167764
C59   C     C_R   0.782750 0.556875 0.313956 -0.112661
C60   C     C_R   0.898975 0.747684 0.958438 -0.095382
C61   C     C_R   0.911692 0.852600 0.033775 0.041936
C62   C     C_2   0.346430 0.704285 0.848877 0.939271
C63   C     C_2   0.811658 0.188638 0.589529 0.976931
C64   C     C_2   0.762144 0.983669 0.050270 0.979480
C65   C     C_R   0.198059 0.509333 0.695616 -0.134311
C66   C     C_R   0.053720 0.254929 0.086775 -0.123756
C67   C     C_R   0.954536 0.171095 0.991262 -0.092175
H1    H     H_    0.031782 0.893865 0.110211 0.100693
H2    H     H_    0.287867 0.729357 0.296457 0.113865
H3    H     H_    0.609548 0.427147 0.198779 0.103918
H4    H     H_    0.302818 0.062126 0.296830 0.116832
H5    H     H_    0.486202 0.992756 0.132002 0.152110
H6    H     H_    0.225221 0.085227 0.503463 0.132530
H7    H     H_    0.888374 0.866762 0.482558 0.131697
H8    H     H_    0.818966 0.931593 0.727304 0.120630
H9    H     H_    0.612470 0.982068 0.852812 0.115344
H10   H     H_    0.499355 0.124974 0.856940 0.116338
H11   H     H_    0.590500 0.216534 0.734828 0.160337
H12   H     H_    0.931431 0.111237 0.804306 0.105057
H13   H     H_    0.992486 0.364782 0.430969 0.089377
H14   H     H_    0.777253 0.548615 0.831354 0.116555
H15   H     H_    0.906074 0.250526 0.304853 0.109380
H16   H     H_    0.718212 0.319016 0.334481 0.135509
H17   H     H_    0.701679 0.616708 0.620434 0.134534
H18   H     H_    0.887960 0.545270 0.590577 0.111602
H19   H     H_    0.498970 0.510290 0.643142 0.123226
H20   H     H_    0.463662 0.610507 0.380045 0.133409
H21   H     H_    0.269325 0.525263 0.396804 0.108985
H22   H     H_    0.084169 0.598636 0.427845 0.106817
H23   H     H_    0.165949 0.480429 0.634955 0.109925
H24   H     H_    0.968234 0.764852 0.599155 0.101905
H25   H     H_    0.038350 0.857126 0.741215 0.131297
H26   H     H_    0.990068 0.660803 0.359208 0.096693
H27   H     H_    0.224028 0.784522 0.711946 0.127930
H28   H     H_    0.479057 0.347191 0.989630 0.135265
H29   H     H_    0.565253 0.480386 0.849920 0.138913
H30   H     H_    0.866163 0.021623 0.233716 0.129390
H31   H     H_    0.630033 0.359540 0.018113 0.097016
H32   H     H_    0.145277 0.860990 0.183218 0.117806
H33   H     H_    0.807918 0.605548 0.378544 0.108985
H34   H     H_    0.091359 0.273956 0.142189 0.087185
H35   H     H_    0.833270 0.729908 0.929616 0.144083
H36   H     H_    0.396599 0.547042 0.894056 0.093507
H37   H     H_    0.352589 0.819664 0.987507 0.315674
H38   H     H_    0.932846 0.182287 0.447644 0.313009
H39   H     H_    0.727524 0.940412 0.922906 0.306922
H40   H     H_    0.901699 0.112445 0.957094 0.114436
H41   H     H_    0.249309 0.362643 0.087612 0.098734
H42   H     H_    0.086345 0.303585 0.618392 0.104108
H43   H     H_    0.572238 0.793426 0.049928 0.116565
H44   H     H_    0.472623 0.662262 0.132638 0.118997
N1    N     N_R   0.037320 0.720000 0.995830 -0.035197
N2    N     N_R   0.824900 0.517970 0.936430 -0.048506
N3    N     N_R   0.003190 0.648180 0.211390 -0.041575
N4    N     N_R   0.774330 0.457010 0.995830 -0.044930
N5    N     N_R   0.053760 0.709130 0.151980 -0.037257
N6    N     N_R   0.853840 0.498830 0.211390 -0.044593
N7    N     N_R   0.974250 0.667320 0.936430 -0.054460
N8    N     N_R   0.225670 0.542990 0.004170 -0.027754
N9    N     N_R   0.946240 0.290870 0.848020 -0.040105
N10   N     N_R   0.146160 0.501170 0.788610 -0.047700
N11   N     N_R   0.025750 0.332680 0.063570 -0.041052
N12   N     N_R   0.962680 0.280000 0.004170 -0.044518
N13   N     N_R   0.209230 0.553860 0.848010 -0.058023
N14   N     N_R   0.175100 0.482030 0.063570 -0.046513
N15   N     N_R   0.996810 0.351820 0.788610 -0.041751
N16   N     N_R   0.790770 0.446140 0.151990 -0.040034
Ni1   Ni    Ni4+2 0.130310 0.630310 0.000000 0.260286
Ni2   Ni    Ni4+2 0.869690 0.369690 0.000000 0.229742
Ni3   Ni    Ni4+2 0.985660 0.509480 0.863750 0.215729
Ni4   Ni    Ni4+2 0.014340 0.490520 0.136250 0.210731
O1    O     O_2   0.419236 0.749328 0.796673 -0.660913
O2    O     O_R   0.310659 0.750566 0.960143 -0.823095
O3    O     O_2   0.767278 0.281194 0.614712 -0.656885
O4    O     O_R   0.907821 0.135862 0.490633 -0.815397
O5    O     O_2   0.690448 0.066894 0.105697 -0.663462
O6    O     O_R   0.780560 0.914543 0.943517 -0.856396

loop_
_geom_bond_atom_site_label_1
_geom_bond_atom_site_label_2
_ccdc_geom_bond_type
C25   C31   A    
C64   O5    D    
C41   C42   A    
C6    C45   A    
C27   C29   A    
N3    Ni4   S    
C35   C36   A    
N10   Ni3   S    
C3    C6    A    
C16   N2    A    
C9    C67   A    
C39   C41   A    
C15   H5    S    
C26   C27   A    
C29   C30   A    
C56   H12   S    
C38   H13   S    
C65   N10   A    
C18   C24   A    
C62   O2    S    
C37   H18   S    
C36   C37   A    
C6    C54   S    
C42   C53   S    
C40   H31   S    
C30   C31   A    
N9    N15   A    
C40   N4    A    
N15   Ni3   S    
C10   C17   A    
C23   C40   A    
C1    H1    S    
C18   C19   A    
C14   H4    S    
C9    C66   A    
N10   N13   A    
C45   H36   S    
C21   C22   A    
C12   C59   A    
C29   H11   S    
C19   C20   A    
C5    N15   A    
C26   H9    S    
C66   N11   A    
C60   N7    A    
C32   C38   A    
C4    C12   A    
H38   O4    S    
N8    Ni1   S    
C45   N8    A    
C28   C34   A    
C8    C65   A    
C59   N6    A    
C13   C14   A    
C17   H43   S    
C59   H33   S    
C56   N9    A    
C66   H34   S    
C58   H30   S    
C7    C56   A    
C49   H24   S    
C60   H35   S    
C4    H3    S    
C44   C46   A    
C64   O6    S    
C52   N5    A    
C65   H23   S    
C22   C34   S    
H37   O2    S    
N9    Ni2   S    
C63   O3    D    
C62   O1    D    
C8    C41   S    
N2    Ni3   S    
C5    C7    A    
H39   O6    S    
C25   C26   A    
C21   H7    S    
C13   C24   S    
C1    C61   A    
C28   H26   S    
C25   H8    S    
C63   O4    S    
C43   C44   A    
N16   Ni2   S    
C37   C38   A    
N7    Ni3   S    
C33   H16   S    
N14   Ni4   S    
C47   C48   A    
C3    N14   A    
C50   C51   A    
C10   H44   S    
C57   C61   S    
N6    N16   A    
C54   H28   S    
C28   N3    A    
C39   C46   A    
N8    N14   A    
C50   H25   S    
C48   C49   A    
C18   H6    S    
C7    C19   S    
C48   H22   S    
C22   C24   A    
C42   C43   A    
N11   Ni4   S    
C57   C64   S    
N4    Ni2   S    
C15   C17   A    
C54   C55   D    
C4    N16   A    
C2    C8    A    
C55   H29   S    
C27   H10   S    
C67   N12   A    
N3    N5    A    
C11   H2    S    
C23   C55   S    
C2    N13   A    
C3    H41   S    
C16   C23   A    
C32   H15   S    
C52   H32   S    
C34   C52   A    
N13   Ni1   S    
C43   H20   S    
C32   C33   A    
C1    N1    A    
C47   H21   S    
N1    N7    A    
C11   C13   A    
C67   H40   S    
C57   C58   D    
C5    H42   S    
C36   H17   S    
C47   C53   A    
C16   H14   S    
C33   C35   A    
N6    Ni4   S    
N1    Ni1   S    
C10   C11   A    
C51   H27   S    
C20   C21   A    
C12   C44   S    
C49   C50   A    
N5    Ni1   S    
C14   C15   A    
C60   C61   A    
C39   H19   S    
C51   C53   A    
N11   N12   A    
C30   C63   S    
C35   C46   S    
N12   Ni2   S    
C2    C62   S    
N2    N4    A    
C20   C31   S    
