data_mof_unit_50237.cif
_audit_creation_date              2012-12-10T18:06:42-0500
_audit_creation_method            fapswitch 2.2
_symmetry_space_group_name_H-M    P1
_symmetry_Int_Tables_number       1
_space_group_crystal_system       triclinic
_cell_length_a                    12.594599
_cell_length_b                    13.043045
_cell_length_c                    15.312506
_cell_angle_alpha                 83.368998
_cell_angle_beta                  98.644229
_cell_angle_gamma                 96.673967
_cell_volume                      2457.65565859

loop_
_atom_site_label
_atom_site_type_symbol
_atom_type_description
_atom_site_fract_x
_atom_site_fract_y
_atom_site_fract_z
_atom_type_partial_charge
C1    C     C_R   0.441852 0.308269 0.506354 0.864773
C2    C     C_R   0.462587 0.590538 0.095088 0.091307
C3    C     C_R   0.354923 0.608216 0.059750 0.182009
C4    C     C_R   0.543460 0.600485 0.038366 -0.062873
C5    C     C_R   0.508481 0.596445 0.947096 0.068100
C6    C     C_R   0.402189 0.619579 0.912340 -0.211130
C7    C     C_R   0.327564 0.629090 0.968417 -0.232486
C8    C     C_R   0.656520 0.613213 0.069080 -0.051153
C9    C     C_R   0.730728 0.594203 0.012798 -0.065546
C10   C     C_R   0.691139 0.565155 0.926802 0.041252
C11   C     C_R   0.579845 0.567210 0.894096 0.091214
C12   C     C_R   0.436397 0.515599 0.335340 0.844862
C13   C     C_R   0.760170 0.534147 0.872022 -0.190750
C14   C     C_R   0.719807 0.505924 0.787362 -0.192452
C15   C     C_R   0.540582 0.532870 0.811080 -0.237920
C16   C     C_R   0.633712 0.947638 0.352392 -0.239581
C17   C     C_R   0.576485 0.803994 0.456852 -0.081578
C18   C     C_R   0.323314 0.156797 0.558298 -0.253753
C19   C     C_R   0.286028 0.052284 0.560210 -0.114800
C20   C     C_R   0.332847 0.986009 0.514563 -0.009540
C21   C     C_R   0.422253 0.026937 0.469569 -0.008652
C22   C     C_R   0.441963 0.135221 0.451912 0.097428
C23   C     C_R   0.554755 0.692858 0.485496 0.848762
C24   C     C_R   0.495403 0.966023 0.443347 0.069127
C25   C     C_R   0.562319 0.008336 0.379126 0.164691
C26   C     C_R   0.559497 0.112010 0.345000 -0.252446
C27   C     C_R   0.502213 0.175891 0.382921 -0.199112
C28   C     C_R   0.511569 0.868288 0.486650 -0.311969
C29   C     C_R   0.640713 0.844583 0.389303 0.136789
C30   C     C_R   0.400959 0.199110 0.504005 -0.112498
C31   C     C_R   0.138947 0.630259 0.632774 -0.218622
C32   C     C_R   0.757098 0.379562 0.395437 0.012780
C33   C     C_R   0.852302 0.351222 0.373611 0.161744
C34   C     C_R   0.565433 0.490229 0.664309 0.862793
C35   C     C_R   0.950440 0.396941 0.414166 -0.219558
C36   C     C_R   0.952731 0.469541 0.476596 -0.014068
C37   C     C_R   0.853533 0.493014 0.497414 0.230237
C38   C     C_R   0.049060 0.518404 0.520084 0.000985
C39   C     C_R   0.044422 0.584558 0.586867 0.188718
C40   C     C_R   0.945572 0.605034 0.606680 -0.294591
C41   C     C_R   0.851425 0.561121 0.561268 -0.222271
C42   C     C_R   0.150672 0.504855 0.499914 -0.054467
C43   C     C_R   0.236992 0.612368 0.610445 0.044847
C44   C     C_R   0.404834 0.542926 0.240275 -0.069945
C45   C     C_R   0.609491 0.505576 0.756527 -0.063523
C46   C     C_R   0.275435 0.600333 0.115923 -0.197858
C47   C     C_R   0.300692 0.569137 0.206149 -0.175771
C48   C     C_R   0.483857 0.551752 0.184152 -0.284522
H1    H     H_    0.246395 0.645394 0.940010 0.141463
H2    H     H_    0.845670 0.531365 0.893834 0.130880
H3    H     H_    0.606663 0.145133 0.293123 0.148321
H4    H     H_    0.684502 0.980948 0.302922 0.135087
H5    H     H_    0.471825 0.840153 0.544018 0.159820
H6    H     H_    0.289359 0.205169 0.597735 0.169012
H7    H     H_    0.219861 0.023551 0.597060 0.182697
H8    H     H_    0.504412 0.256753 0.357276 0.153737
H9    H     H_    0.311581 0.646581 0.645097 0.127595
H10   H     H_    0.455011 0.525168 0.788281 0.153831
H11   H     H_    0.940872 0.656590 0.656385 0.157433
H12   H     H_    0.136954 0.679678 0.684647 0.149442
H13   H     H_    0.162871 0.458108 0.449494 0.131091
H14   H     H_    0.679995 0.345632 0.365275 0.134900
H15   H     H_    0.022988 0.372731 0.397172 0.133918
H16   H     H_    0.778017 0.583024 0.576782 0.214808
H17   H     H_    0.775092 0.485578 0.745915 0.160733
H18   H     H_    0.193481 0.616205 0.089792 0.154040
H19   H     H_    0.238588 0.564138 0.248739 0.171228
H20   H     H_    0.561795 0.525289 0.209787 0.179724
H21   H     H_    0.375652 0.632208 0.841838 0.136711
N1    N     N_R   0.239390 0.551900 0.544730 -0.111641
N2    N     N_R   0.759950 0.448600 0.455730 -0.143561
O1    O     O_R   0.374950 0.371210 0.521360 -0.609650
O2    O     O_R   0.542050 0.338030 0.492790 -0.608537
O3    O     O_R   0.368720 0.526070 0.390200 -0.611739
O4    O     O_R   0.535820 0.492890 0.361630 -0.626875
O5    O     O_R   0.457950 0.661970 0.507210 -0.609116
O6    O     O_R   0.625050 0.628790 0.478640 -0.626945
O7    O     O_R   0.464180 0.507110 0.638370 -0.617677
O8    O     O_R   0.631280 0.473930 0.609800 -0.626313
Zn1   Zn    Zn3+2 0.388420 0.522150 0.519080 0.935791
Zn2   Zn    Zn3+2 0.611580 0.477850 0.480920 0.926001
C49   C     C_3   0.718224 0.783327 0.355576 -0.386673
C50   C     C_3   0.823438 0.780544 0.419426 -0.733826
H22   H     H_    0.869003 0.858801 0.417512 0.244635
H23   H     H_    0.807274 0.756727 0.488422 0.252092
H24   H     H_    0.873888 0.725106 0.399661 0.270020
H25   H     H_    0.681144 0.704131 0.343232 0.240235
H26   H     H_    0.738658 0.820109 0.290227 0.204867
C51   C     C_2   0.277014 0.880567 0.503323 0.348250
H27   H     H_    0.298453 0.834022 0.455561 0.098669
O9    O     O_2   0.203389 0.845762 0.545152 -0.591878
C52   C     C_3   0.848829 0.269826 0.310463 -0.458729
C53   C     C_3   0.797854 0.306499 0.216910 -0.795864
H28   H     H_    0.713021 0.322401 0.216389 0.241762
H29   H     H_    0.844837 0.377921 0.191288 0.317272
H30   H     H_    0.798185 0.245362 0.172183 0.240000
H31   H     H_    0.931427 0.249817 0.307006 0.216743
H32   H     H_    0.801832 0.197803 0.335356 0.202430
C54   C     C_2   0.849208 0.608694 0.040499 0.477445
H33   H     H_    0.899570 0.660775 0.999561 0.017676
O10   O     O_2   0.891772 0.558197 0.105737 -0.541218
C55   C     C_2   0.694083 0.666079 0.151219 0.365990
H34   H     H_    0.642297 0.716987 0.171857 0.044331
O11   O     O_2   0.779713 0.652064 0.197640 -0.529424

loop_
_geom_bond_atom_site_label_1
_geom_bond_atom_site_label_2
_ccdc_geom_bond_type
C6    H21   S    
C53   H28   S    
C12   O3    A    
C17   C29   A    
C19   C20   A    
C23   O5    A    
C4    C8    A    
C52   H32   S    
C26   C27   A    
C17   C23   S    
C31   C43   A    
C36   C37   A    
C46   H18   S    
C3    C7    A    
C5    C6    A    
O7    Zn1   S    
C49   H25   S    
C42   N1    A    
C18   C19   A    
O2    Zn2   S    
C1    C30   S    
C11   C15   A    
C50   H22   S    
C8    C9    A    
C18   C30   A    
C51   O9    D    
C9    C10   A    
C44   C47   A    
C53   H29   S    
C40   H11   S    
O3    Zn1   S    
C21   C22   A    
C47   H19   S    
C52   H31   S    
C32   N2    A    
C1    O1    A    
N1    Zn1   S    
C24   C28   A    
C24   C25   A    
C7    H1    S    
C16   H4    S    
C33   C52   S    
C39   C40   A    
O8    Zn2   S    
C43   H9    S    
C27   H8    S    
O4    Zn2   S    
C2    C48   A    
C16   C29   A    
C48   H20   S    
C35   C36   A    
C31   H12   S    
C2    C4    A    
C34   O8    A    
C54   H33   S    
O6    Zn2   S    
C34   C45   S    
C23   O6    A    
C55   O11   D    
C42   H13   S    
C6    C7    A    
C40   C41   A    
C50   H23   S    
C53   H30   S    
C22   C27   A    
C37   N2    A    
C15   H10   S    
C12   O4    A    
C15   C45   A    
C19   H7    S    
C16   C25   A    
C46   C47   A    
C22   C30   A    
C54   O10   D    
C17   C28   A    
O5    Zn1   S    
C4    C5    A    
C10   C13   A    
C28   H5    S    
C5    C11   A    
C14   C45   A    
C43   N1    A    
C20   C51   S    
C3    C46   A    
C1    O2    A    
C32   C33   A    
C36   C38   A    
C2    C3    A    
C25   C26   A    
C32   H14   S    
C29   C49   S    
O1    Zn1   S    
C26   H3    S    
C34   O7    A    
C38   C39   A    
C49   H26   S    
C52   C53   S    
C33   C35   A    
C14   H17   S    
C31   C39   A    
C37   C41   A    
C55   H34   S    
C10   C11   A    
C18   H6    S    
C13   H2    S    
C38   C42   A    
C50   H24   S    
C20   C21   A    
C9    C54   S    
C49   C50   S    
C21   C24   A    
C12   C44   S    
C35   H15   S    
C41   H16   S    
C51   H27   S    
C13   C14   A    
C8    C55   S    
C44   C48   A    
N2    Zn2   S    
