data_mof_unit_29468.cif
_audit_creation_date              2012-12-10T18:59:19-0500
_audit_creation_method            fapswitch 2.2
_symmetry_space_group_name_H-M    P1
_symmetry_Int_Tables_number       1
_space_group_crystal_system       triclinic
_cell_length_a                    9.873017
_cell_length_b                    10.684088
_cell_length_c                    16.680679
_cell_angle_alpha                 88.519674
_cell_angle_beta                  94.117172
_cell_angle_gamma                 90.306125
_cell_volume                      1754.41047842

loop_
_atom_site_label
_atom_site_type_symbol
_atom_type_description
_atom_site_fract_x
_atom_site_fract_y
_atom_site_fract_z
_atom_type_partial_charge
C1    C     C_R   0.499610 0.260274 0.498599 0.886579
C2    C     C_R   0.077572 0.425164 0.553203 -0.033032
C3    C     C_R   0.517304 0.503206 0.653482 0.882640
C4    C     C_R   0.482785 0.499495 0.346307 0.872792
C5    C     C_R   0.527092 0.529552 0.738669 -0.065411
C6    C     C_R   0.474171 0.493808 0.259139 -0.049219
C7    C     C_R   0.415848 0.583212 0.772516 -0.215774
C8    C     C_R   0.591833 0.468813 0.220179 -0.272828
C9    C     C_R   0.424287 0.614223 0.853131 0.115819
C10   C     C_R   0.587471 0.468694 0.136807 0.119948
C11   C     C_R   0.544642 0.585089 0.900857 0.280119
C12   C     C_R   0.500370 0.739738 0.501301 0.900861
C13   C     C_R   0.464200 0.495964 0.092191 0.326601
C14   C     C_R   0.658090 0.539224 0.865928 -0.198947
C15   C     C_R   0.345314 0.513301 0.130919 -0.244028
C16   C     C_R   0.649694 0.511602 0.784956 -0.223293
C17   C     C_R   0.350080 0.512843 0.214326 -0.218739
C18   C     C_R   0.408256 0.063826 0.543633 -0.275668
C19   C     C_R   0.591593 0.936057 0.455512 -0.268809
C20   C     C_1   0.844129 0.652009 0.388727 0.199824
C21   C     C_1   0.155912 0.347919 0.611207 0.208915
C22   C     C_R   0.408558 0.935021 0.546825 0.099930
C23   C     C_R   0.591240 0.065209 0.451943 0.112082
C24   C     C_R   0.500506 0.872152 0.502063 -0.045152
C25   C     C_R   0.499335 0.127878 0.497175 -0.055539
C26   C     C_R   0.066995 0.575416 0.447107 0.120962
C27   C     C_R   0.933012 0.424737 0.552983 0.126647
C28   C     C_R   0.922432 0.574863 0.446812 -0.030899
H1    H     H_    0.687599 0.449808 0.254108 0.166910
H2    H     H_    0.741096 0.351892 0.117122 0.179288
H3    H     H_    0.334467 0.702927 0.943278 0.196648
H4    H     H_    0.283791 0.750936 0.850665 0.172206
H5    H     H_    0.219181 0.893921 0.578400 0.189800
H6    H     H_    0.338988 0.897490 0.656052 0.178020
H7    H     H_    0.620782 0.175584 0.354701 0.171044
H8    H     H_    0.745711 0.071399 0.375425 0.180351
H9    H     H_    0.100373 0.633645 0.333918 0.155265
H10   H     H_    0.109503 0.747857 0.402761 0.171070
H11   H     H_    0.899352 0.367568 0.666345 0.158048
H12   H     H_    0.322472 0.602719 0.736229 0.171063
H13   H     H_    0.890682 0.252613 0.597966 0.175608
H14   H     H_    0.750322 0.517641 0.902717 0.158565
H15   H     H_    0.250130 0.531702 0.096306 0.152859
H16   H     H_    0.737491 0.473003 0.759197 0.165090
H17   H     H_    0.257761 0.530081 0.243494 0.164913
H18   H     H_    0.339068 0.113583 0.578781 0.174907
H19   H     H_    0.660398 0.885381 0.420653 0.171189
H20   H     H_    0.782616 0.505551 0.115341 0.184419
N1    N     N_2   0.546930 0.580914 0.984884 -0.184238
N2    N     N_3   0.864654 0.345432 0.607719 -0.388377
N3    N     N_1   0.782502 0.713731 0.341299 -0.240841
N4    N     N_1   0.217623 0.286108 0.658546 -0.235032
N5    N     N_2   0.458265 0.507950 0.008168 -0.172467
N6    N     N_R   0.857210 0.499970 0.500020 -0.101708
N7    N     N_R   0.142790 0.500030 0.499980 -0.102572
N8    N     N_3   0.707461 0.440784 0.097265 -0.450539
N9    N     N_3   0.308727 0.670547 0.885604 -0.454165
N10   N     N_3   0.318880 0.868486 0.596976 -0.446287
N11   N     N_3   0.680794 0.132795 0.401751 -0.431619
N12   N     N_3   0.135356 0.655125 0.392603 -0.390246
O1    O     O_R   0.614620 0.316750 0.500010 -0.579856
O2    O     O_R   0.385380 0.683250 0.499990 -0.583235
O3    O     O_R   0.385290 0.316780 0.500000 -0.624012
O4    O     O_R   0.614710 0.683220 0.500000 -0.625067
O5    O     O_R   0.627460 0.498830 0.616130 -0.603029
O6    O     O_R   0.372540 0.501170 0.383870 -0.605005
O7    O     O_R   0.398130 0.498850 0.616130 -0.614132
O8    O     O_R   0.601870 0.501150 0.383870 -0.616197
Zn1   Zn    Zn3+2 0.653130 0.499980 0.500000 0.978509
Zn2   Zn    Zn3+2 0.346870 0.500020 0.500000 0.976476

loop_
_geom_bond_atom_site_label_1
_geom_bond_atom_site_label_2
_ccdc_geom_bond_type
C22   N10   S    
C19   C23   A    
C7    H12   S    
C27   N2    S    
C13   N5    S    
H2    N8    S    
C2    C27   A    
C11   N1    S    
C1    O3    A    
C12   O2    A    
C12   C24   S    
C26   C28   A    
O3    Zn2   S    
C14   H14   S    
O7    Zn2   S    
C26   N7    A    
H8    N11   S    
C2    C21   S    
C23   C25   A    
C19   C24   A    
C23   N11   S    
C27   N6    A    
C15   H15   S    
H6    N10   S    
C3    O5    A    
O4    Zn1   S    
O5    Zn1   S    
C1    C25   S    
C9    C11   A    
H3    N9    S    
H5    N10   S    
C18   C25   A    
C26   N12   S    
H4    N9    S    
N1    N5    D    
C8    H1    S    
C18   H18   S    
C22   C24   A    
C4    C6    S    
H10   N12   S    
C17   H17   S    
C20   N3    T    
C9    N9    S    
C2    N7    A    
C13   C15   A    
C12   O4    A    
C11   C14   A    
C14   C16   A    
N7    Zn2   S    
H7    N11   S    
H9    N12   S    
C7    C9    A    
H13   N2    S    
H11   N2    S    
C10   N8    S    
O6    Zn2   S    
O2    Zn2   S    
H20   N8    S    
C19   H19   S    
O1    Zn1   S    
C15   C17   A    
C6    C17   A    
C28   N6    A    
C5    C7    A    
N6    Zn1   S    
C5    C16   A    
C6    C8    A    
C20   C28   S    
C4    O6    A    
C18   C22   A    
C4    O8    A    
C16   H16   S    
C21   N4    T    
C3    O7    A    
C8    C10   A    
O8    Zn1   S    
C3    C5    S    
C10   C13   A    
C1    O1    A    
