data_mof_unit_45409.cif
_audit_creation_date              2012-10-26T19:40:09-0400
_audit_creation_method            fapswitch 2.2
_symmetry_space_group_name_H-M    P1
_symmetry_Int_Tables_number       1
_space_group_crystal_system       triclinic
_cell_length_a                    15.045441
_cell_length_b                    8.87836
_cell_length_c                    7.536666
_cell_angle_alpha                 103.080455
_cell_angle_beta                  94.533534
_cell_angle_gamma                 95.85258
_cell_volume                      970.073464041

loop_
_atom_site_label
_atom_site_type_symbol
_atom_type_description
_atom_site_fract_x
_atom_site_fract_y
_atom_site_fract_z
_atom_type_partial_charge
C1    C     C_R   0.499054 0.200399 0.452714 0.527404
C2    C     C_R   0.173249 0.346386 0.473064 0.236009
C3    C     C_R   0.767784 0.510187 0.497393 0.004456
C4    C     C_R   0.231621 0.488143 0.507632 0.007869
C5    C     C_R   0.801397 0.371994 0.428310 -0.198027
C6    C     C_R   0.198142 0.629283 0.566717 -0.178685
C7    C     C_R   0.893451 0.368144 0.429634 -0.014068
C8    C     C_R   0.106359 0.634471 0.573849 -0.015897
C9    C     C_R   0.953337 0.504868 0.503568 0.001205
C10   C     C_R   0.046409 0.497447 0.506046 0.008493
C11   C     C_R   0.920019 0.648288 0.574073 0.033473
C12   C     C_R   0.504077 0.799663 0.546092 0.567900
C13   C     C_R   0.079648 0.352064 0.447857 0.066367
C14   C     C_R   0.925792 0.227785 0.359965 -0.124720
C15   C     C_R   0.074324 0.774488 0.650209 -0.131424
C16   C     C_3   0.790832 0.829271 0.403909 -0.026021
C17   C     C_3   0.733399 0.958580 0.400739 -0.396465
C18   C     C_3   0.262097 0.145465 0.435599 -0.024231
C19   C     C_3   0.263986 0.986500 0.478229 -0.393594
C20   C     C_3   0.045747 0.058509 0.294407 -0.373273
C21   C     C_3   0.954106 0.932822 0.764334 -0.358451
C22   C     C_3   0.418829 0.961212 0.127223 0.002516
C23   C     C_R   0.017639 0.216168 0.371809 0.013960
C24   C     C_3   0.363262 0.806289 0.037877 -0.354556
C25   C     C_3   0.622350 0.081719 0.795857 -0.013978
C26   C     C_3   0.642690 0.155943 0.999039 -0.351054
C27   C     C_3   0.388877 0.379165 0.947269 -0.103809
C28   C     C_3   0.611226 0.618896 0.051864 -0.115491
C29   C     C_R   0.982145 0.782864 0.656699 -0.001636
C30   C     C_2   0.496519 0.031527 0.423886 0.199531
C31   C     C_2   0.510500 0.967698 0.570385 0.208172
C32   C     C_R   0.328699 0.494005 0.501421 0.524455
C33   C     C_R   0.671088 0.506900 0.499595 0.572853
C34   C     C_R   0.825603 0.650454 0.558381 0.240747
Cu1   Cu    Cu3+1 0.510010 0.517380 0.684380 0.931131
Cu2   Cu    Cu3+1 0.489990 0.482620 0.315620 0.907563
H1    H     H_    0.754946 0.267682 0.372792 0.103492
H2    H     H_    0.329650 0.208977 0.479668 0.154389
H3    H     H_    0.245506 0.131704 0.285848 0.107767
H4    H     H_    0.201864 0.908625 0.415591 0.141851
H5    H     H_    0.321298 0.929798 0.423897 0.108617
H6    H     H_    0.270924 0.000239 0.629088 0.153800
H7    H     H_    0.988560 0.974121 0.216855 0.094032
H8    H     H_    0.096322 0.067620 0.197062 0.128720
H9    H     H_    0.071350 0.009640 0.408177 0.180789
H10   H     H_    0.012238 0.009825 0.849395 0.112003
H11   H     H_    0.924943 0.999632 0.671518 0.165587
H12   H     H_    0.244838 0.734205 0.614861 0.102404
H13   H     H_    0.905071 0.907407 0.859550 0.157622
H14   H     H_    0.445665 0.012449 0.018385 0.212416
H15   H     H_    0.372789 0.039571 0.194393 0.099948
H16   H     H_    0.340024 0.746718 0.143458 0.165988
H17   H     H_    0.303835 0.825368 0.952331 0.076133
H18   H     H_    0.404457 0.731805 0.949404 0.219562
H19   H     H_    0.654596 0.162120 0.719284 0.141830
H20   H     H_    0.652778 0.970425 0.767987 0.159208
H21   H     H_    0.617093 0.073790 0.079529 0.183109
H22   H     H_    0.716407 0.185610 0.034434 0.080914
H23   H     H_    0.878845 0.125563 0.297454 0.103993
H24   H     H_    0.610004 0.263407 0.034243 0.209871
H25   H     H_    0.361810 0.297524 0.027107 0.094426
H26   H     H_    0.340231 0.464542 0.944911 0.120694
H27   H     H_    0.393987 0.306107 0.810801 0.169215
H28   H     H_    0.638359 0.701743 0.973543 0.117849
H29   H     H_    0.605897 0.690096 0.188840 0.171525
H30   H     H_    0.659262 0.532150 0.051980 0.101464
H31   H     H_    0.121803 0.877419 0.709219 0.117462
H32   H     H_    0.764256 0.729741 0.286874 0.113984
H33   H     H_    0.860504 0.870191 0.381904 0.132173
H34   H     H_    0.760396 0.061504 0.512268 0.140846
H35   H     H_    0.732823 0.988957 0.265911 0.088515
H36   H     H_    0.663971 0.918716 0.420978 0.161095
N1    N     N_2   0.474890 0.456420 0.038520 -0.151911
N2    N     N_2   0.525110 0.543580 0.961480 -0.150943
O1    O     O_R   0.506510 0.286130 0.619770 -0.490117
O2    O     O_3   0.199491 0.222364 0.538903 -0.581504
O3    O     O_3   0.491759 0.938489 0.245589 -0.591056
O4    O     O_3   0.528314 0.057721 0.748297 -0.588954
O5    O     O_R   0.493490 0.713870 0.380230 -0.481703
O6    O     O_R   0.489600 0.256770 0.308360 -0.527091
O7    O     O_R   0.510400 0.743230 0.691640 -0.498851
O8    O     O_R   0.378710 0.514640 0.655720 -0.540367
O9    O     O_R   0.621290 0.485360 0.344280 -0.544704
O10   O     O_R   0.361800 0.485290 0.344300 -0.529517
O11   O     O_R   0.638200 0.514710 0.655700 -0.507406
O12   O     O_3   0.789046 0.788509 0.574751 -0.587896

loop_
_geom_bond_atom_site_label_1
_geom_bond_atom_site_label_2
_ccdc_geom_bond_type
C24   H16   S    
Cu1   N2    S    
C5    H1    S    
N1    N2    D    
C28   H30   S    
Cu1   Cu2   S    
C25   H20   S    
C28   N2    S    
C21   H13   S    
Cu1   O7    S    
C14   H23   S    
Cu1   O1    S    
C6    H12   S    
C30   C31   D    
C3    C33   S    
Cu2   O9    S    
C24   H18   S    
C12   O5    A    
C13   C23   A    
C18   C19   S    
C34   O12   S    
C2    C13   A    
C33   O11   A    
C27   H25   S    
C30   O3    S    
C26   H22   S    
C7    C14   A    
C16   C17   S    
C16   H32   S    
C9    C10   A    
C20   H9    S    
C19   H6    S    
C22   H14   S    
C17   H34   S    
C16   O12   S    
C20   H8    S    
Cu1   O8    S    
C15   C29   A    
C19   H4    S    
C32   O10   A    
C25   O4    S    
C1    O1    A    
C4    C6    A    
Cu2   O6    S    
C5    C7    A    
C6    C8    A    
C3    C34   A    
C25   C26   S    
C21   C29   S    
C10   C13   A    
C14   C23   A    
C2    C4    A    
C18   H3    S    
C27   H26   S    
C33   O9    A    
C20   C23   S    
C15   H31   S    
C9    C11   A    
C4    C32   S    
C27   H27   S    
C28   H28   S    
C17   H35   S    
C8    C15   A    
C12   C31   S    
C22   C24   S    
C20   H7    S    
C2    O2    S    
C31   O4    S    
C21   H10   S    
C7    C9    A    
C18   O2    S    
C11   C34   A    
C16   H33   S    
C25   H19   S    
C22   O3    S    
C3    C5    A    
Cu2   O5    S    
C32   O8    A    
C28   H29   S    
C24   H17   S    
Cu1   O11   S    
Cu2   O10   S    
C1    C30   S    
C12   O7    A    
C18   H2    S    
C26   H21   S    
Cu2   N1    S    
C11   C29   A    
C17   H36   S    
C8    C10   A    
C1    O6    A    
C27   N1    S    
C26   H24   S    
C19   H5    S    
C22   H15   S    
C21   H11   S    
