data_mof_unit_22967.cif
_audit_creation_date              2012-12-10T19:10:04-0500
_audit_creation_method            fapswitch 2.2
_symmetry_space_group_name_H-M    P1
_symmetry_Int_Tables_number       1
_space_group_crystal_system       triclinic
_cell_length_a                    10.788313
_cell_length_b                    10.817041
_cell_length_c                    9.523133
_cell_angle_alpha                 89.840244
_cell_angle_beta                  90.406681
_cell_angle_gamma                 89.899793
_cell_volume                      1111.29294179

loop_
_atom_site_label
_atom_site_type_symbol
_atom_type_description
_atom_site_fract_x
_atom_site_fract_y
_atom_site_fract_z
_atom_type_partial_charge
C1    C     C_R   0.502633 0.262167 0.500525 0.852965
C2    C     C_R   0.247797 0.876548 0.195538 -0.125693
C3    C     C_R   0.932714 0.588502 0.427003 -0.192576
C4    C     C_R   0.871201 0.495957 0.501377 -0.080609
C5    C     C_R   0.937360 0.400342 0.569174 -0.077830
C6    C     C_R   0.067324 0.400847 0.564431 -0.024824
C7    C     C_R   0.128438 0.498608 0.496463 -0.113557
C8    C     C_R   0.061283 0.590082 0.422836 0.046544
C9    C     C_R   0.857091 0.280400 0.773635 -0.053002
C10   C     C_R   0.821520 0.167408 0.832267 -0.122721
C11   C     C_R   0.803020 0.064512 0.746107 -0.102065
C12   C     C_R   0.262507 0.502089 0.499099 0.837144
C13   C     C_R   0.817066 0.075208 0.600846 -0.121606
C14   C     C_R   0.851541 0.188271 0.541704 -0.150412
C15   C     C_R   0.873661 0.290952 0.628104 0.096827
C16   C     C_R   0.517866 0.062102 0.628074 0.141230
C17   C     C_R   0.515221 0.128955 0.501712 -0.121943
C18   C     C_R   0.532437 0.064777 0.374872 -0.228561
C19   C     C_R   0.533028 0.935897 0.374046 -0.235681
C20   C     C_R   0.514196 0.870436 0.499701 -0.096547
C21   C     C_R   0.514156 0.935207 0.625768 0.060084
C22   C     C_3   0.431591 0.926327 0.750405 -0.461699
C23   C     C_R   0.501889 0.737646 0.499786 0.809554
C24   C     C_3   0.439138 0.067124 0.757561 -0.043303
C25   C     C_R   0.562129 0.589627 0.073867 0.251228
C26   C     C_R   0.426586 0.421283 0.074208 -0.058008
C27   C     C_R   0.425881 0.421961 0.925082 -0.053678
C28   C     C_R   0.561927 0.589752 0.926470 0.251180
C29   C     C_3   0.696926 0.618311 0.921004 -0.492474
C30   C     C_3   0.697474 0.617334 0.080490 -0.500494
C31   C     C_R   0.737537 0.497878 0.500503 0.798637
C32   C     C_R   0.222829 0.888870 0.338090 -0.098058
C33   C     C_R   0.161710 0.794837 0.409952 -0.202585
C34   C     C_R   0.123837 0.687309 0.339589 0.029513
C35   C     C_R   0.148294 0.674120 0.193433 0.042277
C36   C     C_R   0.210998 0.770337 0.123721 -0.185251
Cu1   Cu    Cu3+1 0.499990 0.499980 0.640670 0.956612
Cu2   Cu    Cu3+1 0.500010 0.500020 0.359330 0.962568
H1    H     H_    0.296278 0.949389 0.140475 0.141174
H2    H     H_    0.777263 0.976542 0.791740 0.119695
H3    H     H_    0.802398 0.995541 0.534264 0.137000
H4    H     H_    0.866545 0.194445 0.429563 0.145004
H5    H     H_    0.539675 0.113413 0.275696 0.168665
H6    H     H_    0.541028 0.888343 0.274552 0.166129
H7    H     H_    0.337446 0.892312 0.722167 0.176532
H8    H     H_    0.476636 0.876188 0.839273 0.200007
H9    H     H_    0.349064 0.114435 0.741402 0.190870
H10   H     H_    0.369471 0.355646 0.129992 0.162822
H11   H     H_    0.252108 0.971000 0.393349 0.153222
H12   H     H_    0.367843 0.357190 0.868728 0.174367
H13   H     H_    0.752653 0.542182 0.875450 0.219198
H14   H     H_    0.714792 0.711293 0.875481 0.188706
H15   H     H_    0.753249 0.540119 0.125464 0.236315
H16   H     H_    0.716406 0.709594 0.127004 0.184960
H17   H     H_    0.144249 0.805528 0.521176 0.135733
H18   H     H_    0.232477 0.763617 0.013095 0.172642
H19   H     H_    0.880286 0.659541 0.371904 0.130025
H20   H     H_    0.877575 0.357656 0.841916 0.123638
H21   H     H_    0.810739 0.158933 0.944784 0.130383
N1    N     N_R   0.500790 0.500930 0.147930 -0.194428
N2    N     N_R   0.500790 0.500890 0.852020 -0.192467
O1    O     O_R   0.500000 0.319640 0.618810 -0.585667
O2    O     O_R   0.500010 0.319680 0.381230 -0.583399
O3    O     O_R   0.319640 0.499990 0.618790 -0.578134
O4    O     O_R   0.319650 0.500030 0.381210 -0.559584
O5    O     O_R   0.499990 0.680320 0.618770 -0.581905
O6    O     O_R   0.500000 0.680360 0.381190 -0.584488
O7    O     O_R   0.680350 0.499970 0.618790 -0.588733
O8    O     O_R   0.680360 0.500010 0.381210 -0.584820
C37   C     C_3   0.509673 0.113569 0.887218 -0.833773
H22   H     H_    0.586989 0.050715 0.916936 0.227356
H23   H     H_    0.548823 0.206390 0.866377 0.254666
H24   H     H_    0.445244 0.119689 0.977338 0.223066
C38   C     C_2   0.112009 0.562629 0.110477 0.811194
O9    O     O_2   0.065433 0.472703 0.167276 -0.589939
O10   O     O_R   0.132034 0.560312 0.965444 -0.782498
H25   H     H_    0.104240 0.480054 0.920440 0.346056
C39   C     C_2   0.138301 0.289892 0.609126 0.828493
O11   O     O_2   0.136558 0.255077 0.731284 -0.625326
O12   O     O_R   0.203666 0.223516 0.508085 -0.775715
H26   H     H_    0.238820 0.143331 0.545831 0.299772

loop_
_geom_bond_atom_site_label_1
_geom_bond_atom_site_label_2
_ccdc_geom_bond_type
C33   H17   S    
C35   C38   S    
C16   C21   A    
C35   C36   A    
C1    O1    A    
C13   H3    S    
Cu1   O1    S    
C24   C37   S    
C7    C8    A    
C25   C28   A    
C30   H16   S    
C26   C27   A    
Cu1   Cu2   S    
C38   O10   S    
C23   O5    A    
C28   C29   S    
C9    H20   S    
C5    C6    A    
C12   O3    A    
C39   O12   S    
C6    C39   S    
Cu1   O7    S    
C2    C32   A    
C34   C35   A    
C23   O6    A    
C27   N2    A    
C2    H1    S    
C19   C20   A    
C16   C17   A    
C20   C23   S    
C37   H22   S    
C25   N1    A    
C9    C10   A    
C27   H12   S    
C26   H10   S    
C14   H4    S    
C28   N2    A    
Cu2   O8    S    
C16   C24   S    
C21   C22   S    
C31   O7    A    
C1    O2    A    
C33   C34   A    
C7    C12   S    
C30   H15   S    
C38   O9    D    
O10   H25   S    
C3    C8    A    
C39   O11   D    
C18   C19   A    
C29   C30   S    
C36   H18   S    
Cu2   O4    S    
C31   O8    A    
Cu1   O5    S    
C37   H24   S    
C17   C18   A    
C8    C34   S    
Cu2   O6    S    
Cu2   N1    S    
C3    H19   S    
C22   H8    S    
C22   C24   S    
C3    C4    A    
Cu1   O3    S    
C19   H6    S    
Cu2   O2    S    
C29   H13   S    
C2    C36   A    
C25   C30   S    
C24   H9    S    
O12   H26   S    
Cu1   N2    S    
C6    C7    A    
C12   O4    A    
C1    C17   S    
C32   C33   A    
C10   H21   S    
C9    C15   A    
C18   H5    S    
C11   C13   A    
C11   H2    S    
C32   H11   S    
C5    C15   S    
C4    C31   S    
C10   C11   A    
C4    C5    A    
C22   H7    S    
C20   C21   A    
C14   C15   A    
C37   H23   S    
C13   C14   A    
C26   N1    A    
C29   H14   S    
