data_mof_unit_68337.cif
_audit_creation_date              2012-12-10T19:24:01-0500
_audit_creation_method            fapswitch 2.2
_symmetry_space_group_name_H-M    P1
_symmetry_Int_Tables_number       1
_space_group_crystal_system       triclinic
_cell_length_a                    10.822439
_cell_length_b                    10.872994
_cell_length_c                    10.085949
_cell_angle_alpha                 90.130815
_cell_angle_beta                  88.377152
_cell_angle_gamma                 89.401677
_cell_volume                      1186.29228772

loop_
_atom_site_label
_atom_site_type_symbol
_atom_type_description
_atom_site_fract_x
_atom_site_fract_y
_atom_site_fract_z
_atom_type_partial_charge
C1    C     C_R   0.500437 0.258314 0.500357 0.987373
C2    C     C_R   0.499197 0.741882 0.500394 0.975063
C3    C     C_3   0.389197 0.961569 0.551252 0.299189
C4    C     C_3   0.609145 0.038929 0.454810 0.294699
C5    C     C_3   0.450026 0.401692 0.048460 0.329684
C6    C     C_3   0.549013 0.599107 0.952150 0.260065
C7    C     C_3   0.560504 0.407524 0.949506 0.331506
C8    C     C_3   0.437982 0.592681 0.051633 0.334373
C9    C     C_3   0.389668 0.494858 0.956358 0.301994
C10   C     C_3   0.609798 0.505567 0.044433 0.298571
C11   C     C_R   0.258452 0.497762 0.501136 0.943904
C12   C     C_R   0.742325 0.501501 0.498386 0.930558
C13   C     C_3   0.036276 0.450213 0.615347 0.403715
C14   C     C_3   0.968136 0.546568 0.383041 0.457047
C15   C     C_3   0.958513 0.385794 0.511150 0.457556
C16   C     C_3   0.044430 0.612341 0.487604 0.406145
C17   C     C_3   0.879387 0.503851 0.496236 -0.338066
C18   C     C_3   0.122865 0.494987 0.501574 -0.315059
C19   C     C_3   0.958039 0.570576 0.602493 -0.135549
C20   C     C_3   0.045578 0.428175 0.397382 -0.104224
C21   C     C_3   0.481570 0.040768 0.626331 0.357962
C22   C     C_3   0.516745 0.960380 0.379593 0.363033
C23   C     C_3   0.590088 0.958039 0.578110 0.325787
C24   C     C_3   0.408159 0.042820 0.427539 0.335461
C25   C     C_3   0.498146 0.877742 0.502250 -0.374281
C26   C     C_3   0.500517 0.122842 0.502539 -0.380082
N1    N     N_3   0.499910 0.500030 0.863290 -0.192275
N2    N     N_3   0.500090 0.499970 0.136710 -0.180338
O1    O     O_R   0.500010 0.313960 0.616610 -0.553292
O2    O     O_R   0.499990 0.686040 0.383390 -0.561239
O3    O     O_R   0.500060 0.313950 0.383350 -0.574312
O4    O     O_R   0.499940 0.686050 0.616650 -0.589811
O5    O     O_R   0.313930 0.499970 0.616610 -0.582553
O6    O     O_R   0.686070 0.500030 0.383390 -0.548017
O7    O     O_R   0.313980 0.499960 0.383350 -0.607326
O8    O     O_R   0.686020 0.500040 0.616650 -0.617895
Zn1   Zn    Zn3+2 0.499970 0.500010 0.655740 1.069954
Zn2   Zn    Zn3+2 0.500030 0.499990 0.344260 1.097662
O9    O     O_3   0.902983 0.269858 0.521473 -0.560949
C27   C     C_3   0.991505 0.182180 0.559228 -0.251778
H1    H     H_    0.089292 0.208018 0.537923 0.165757
H2    H     H_    0.975928 0.097580 0.503884 0.152510
H3    H     H_    0.978012 0.160574 0.665648 0.149234
O10   O     O_3   0.099202 0.728663 0.476717 -0.577657
C28   C     C_3   0.009915 0.816109 0.439492 -0.256349
H4    H     H_    0.912983 0.783365 0.439592 0.157676
H5    H     H_    0.033443 0.849777 0.338570 0.143980
H6    H     H_    0.011811 0.893525 0.509235 0.164875
O11   O     O_3   0.097921 0.388148 0.717190 -0.571088
C29   C     C_3   0.016708 0.354885 0.820590 -0.325339
H7    H     H_    0.918763 0.347622 0.791019 0.182388
H8    H     H_    0.029141 0.420419 0.902416 0.192514
H9    H     H_    0.045507 0.263467 0.858044 0.157394
O12   O     O_3   0.929842 0.601041 0.264034 -0.562125
C30   C     C_3   0.034012 0.635253 0.184815 -0.294178
H10   H     H_    0.062952 0.559060 0.117912 0.172293
H11   H     H_    0.116145 0.662716 0.240815 0.223278
H12   H     H_    0.007572 0.714692 0.122530 0.149841
C31   C     C_3   0.891044 0.661381 0.697921 -0.253009
C32   C     C_3   0.975021 0.738829 0.782087 -0.955838
H13   H     H_    0.995859 0.688312 0.873675 0.222217
H14   H     H_    0.060783 0.764781 0.727116 0.311000
H15   H     H_    0.926645 0.824418 0.813774 0.244178
H16   H     H_    0.833573 0.724207 0.638645 0.243773
H17   H     H_    0.826139 0.611690 0.763001 0.231392
C33   C     C_3   0.100417 0.344761 0.288078 -0.289344
C34   C     C_3   0.001386 0.268110 0.223016 -0.825381
H18   H     H_    0.909437 0.313867 0.231514 0.306011
H19   H     H_    0.025870 0.251621 0.116959 0.196449
H20   H     H_    0.994672 0.177780 0.272463 0.254173
H21   H     H_    0.149945 0.401395 0.213442 0.228168
H22   H     H_    0.170378 0.282633 0.331029 0.249356
O13   O     O_3   0.679629 0.907314 0.661068 -0.592861
C35   C     C_3   0.765323 0.997920 0.694957 -0.229230
H23   H     H_    0.790157 0.985940 0.799622 0.119577
H24   H     H_    0.731645 0.094699 0.685150 0.226464
H25   H     H_    0.850003 0.983100 0.633688 0.164689
O14   O     O_3   0.320954 0.096314 0.343533 -0.591483
C36   C     C_3   0.223765 0.014258 0.324325 -0.294327
H26   H     H_    0.152528 0.029590 0.402771 0.176173
H27   H     H_    0.253037 0.915808 0.324430 0.220238
H28   H     H_    0.181429 0.034104 0.227854 0.142548
O15   O     O_3   0.461681 0.087004 0.754499 -0.585588
C37   C     C_3   0.464942 0.987787 0.842814 -0.291269
H29   H     H_    0.559705 0.976288 0.876793 0.205710
H30   H     H_    0.435353 0.898072 0.801301 0.214570
H31   H     H_    0.401055 0.009379 0.926337 0.119022
O16   O     O_3   0.537968 0.915536 0.251751 -0.602882
C38   C     C_3   0.540300 0.016385 0.165794 -0.328775
H32   H     H_    0.574346 0.103776 0.208660 0.224512
H33   H     H_    0.446474 0.034250 0.131180 0.214326
H34   H     H_    0.604172 0.992319 0.083160 0.122059
O17   O     O_3   0.276069 0.911455 0.598064 -0.574010
C39   C     C_3   0.211017 0.996162 0.680952 -0.281921
H35   H     H_    0.110992 0.981728 0.671571 0.143136
H36   H     H_    0.230412 0.094155 0.657304 0.186382
H37   H     H_    0.229523 0.977081 0.786205 0.165328
O18   O     O_3   0.723322 0.086770 0.408266 -0.564463
C40   C     C_3   0.787465 0.999802 0.327259 -0.229631
H38   H     H_    0.775256 0.021410 0.221341 0.159720
H39   H     H_    0.762551 0.902523 0.347994 0.175183
H40   H     H_    0.887007 0.008666 0.341587 0.126375
O19   O     O_3   0.633563 0.316580 0.884698 -0.562973
C41   C     C_3   0.654479 0.220056 0.972115 -0.313327
H41   H     H_    0.568916 0.167380 0.979254 0.223075
H42   H     H_    0.682316 0.251498 0.071970 0.174612
H43   H     H_    0.729539 0.160376 0.930657 0.150564
O20   O     O_3   0.357279 0.677114 0.117425 -0.574426
C42   C     C_3   0.364495 0.793294 0.058674 -0.260827
H44   H     H_    0.312025 0.859584 0.121309 0.176190
H45   H     H_    0.322163 0.796863 0.961155 0.105015
H46   H     H_    0.460212 0.823853 0.048796 0.230346
O21   O     O_3   0.399045 0.294871 0.106874 -0.579928
C43   C     C_3   0.311402 0.243477 0.022767 -0.241614
H47   H     H_    0.347296 0.234380 0.918831 0.229061
H48   H     H_    0.224791 0.298240 0.025872 0.199116
H49   H     H_    0.286352 0.151097 0.059306 0.154360
O22   O     O_3   0.601504 0.705694 0.894646 -0.580197
C44   C     C_3   0.688632 0.756929 0.979981 -0.244962
H50   H     H_    0.778508 0.709700 0.968246 0.194607
H51   H     H_    0.657844 0.756666 0.086189 0.216948
H52   H     H_    0.706306 0.852679 0.950831 0.150498
O23   O     O_3   0.270870 0.484385 0.905703 -0.590207
C45   C     C_3   0.232022 0.599882 0.860723 -0.160969
H53   H     H_    0.306813 0.653081 0.809799 0.178522
H54   H     H_    0.186836 0.651246 0.943641 0.136413
H55   H     H_    0.162709 0.586446 0.785642 0.239868
O24   O     O_3   0.726315 0.513463 0.101072 -0.539372
C46   C     C_3   0.817545 0.474698 0.008829 -0.240613
H56   H     H_    0.788488 0.473383 0.904766 0.167157
H57   H     H_    0.851098 0.382191 0.035359 0.167293
H58   H     H_    0.893591 0.539965 0.010344 0.173799

loop_
_geom_bond_atom_site_label_1
_geom_bond_atom_site_label_2
_ccdc_geom_bond_type
C7    C10   S    
C21   C26   S    
C11   C18   S    
O17   C39   S    
C4    O18   S    
O13   C35   S    
C37   H31   S    
C30   H10   S    
O24   C46   S    
C41   H42   S    
C43   H47   S    
O23   C45   S    
C28   H4    S    
C31   H16   S    
C35   H24   S    
C13   C18   S    
C32   H15   S    
C21   O15   S    
C20   C33   S    
O8    Zn1   S    
C24   C26   S    
O21   C43   S    
C45   H54   S    
C42   H45   S    
C28   H6    S    
C1    O3    A    
C7    N1    S    
O20   C42   S    
O2    Zn2   S    
C2    O4    A    
O22   C44   S    
C17   C19   S    
C27   H3    S    
C33   H22   S    
O15   C37   S    
C8    C9    S    
C22   C25   S    
C12   C17   S    
C29   H8    S    
C22   O16   S    
C38   H33   S    
C16   O10   S    
C18   C20   S    
C46   H58   S    
C5    O21   S    
C27   H2    S    
C33   C34   S    
C31   C32   S    
C7    O19   S    
C14   C17   S    
C3    C24   S    
C23   O13   S    
C10   O24   S    
C8    O20   S    
C41   H41   S    
C28   H5    S    
C15   C20   S    
C29   H9    S    
C35   H23   S    
C13   C19   S    
C34   H18   S    
C14   C20   S    
C3    C25   S    
O7    Zn2   S    
C37   H29   S    
C42   H46   S    
O9    C27   S    
C36   H27   S    
C4    C23   S    
O14   C36   S    
C6    C8    S    
C39   H37   S    
C19   C31   S    
C35   H25   S    
O5    Zn1   S    
C32   H13   S    
C34   H19   S    
C33   H21   S    
C5    C9    S    
C5    N2    S    
C4    C22   S    
C43   H48   S    
C6    N1    S    
N2    Zn2   S    
C1    O1    A    
C29   H7    S    
C3    O17   S    
C30   H11   S    
O4    Zn1   S    
C38   H34   S    
C39   H36   S    
C15   O9    S    
C44   H51   S    
C45   H55   S    
C13   O11   S    
C24   O14   S    
C27   H1    S    
C14   O12   S    
O18   C40   S    
C13   C15   S    
C1    C26   S    
C8    N2    S    
C14   C16   S    
C3    C21   S    
C12   O8    A    
C12   O6    A    
O10   C28   S    
C9    N1    S    
C5    C7    S    
C46   H56   S    
C44   H52   S    
C10   N2    S    
C15   C17   S    
O12   C30   S    
C40   H39   S    
O6    Zn2   S    
C37   H30   S    
C6    C10   S    
C36   H28   S    
C4    C26   S    
C44   H50   S    
O3    Zn2   S    
C11   O5    A    
C40   H38   S    
C2    O2    A    
C34   H20   S    
C21   C23   S    
C42   H44   S    
C31   H17   S    
C32   H14   S    
N1    Zn1   S    
C16   C19   S    
C11   O7    A    
C9    O23   S    
C2    C25   S    
C22   C24   S    
C23   C25   S    
C39   H35   S    
C43   H49   S    
C36   H26   S    
C40   H40   S    
O16   C38   S    
C16   C18   S    
O11   C29   S    
C30   H12   S    
O1    Zn1   S    
O19   C41   S    
C38   H32   S    
C6    O22   S    
C41   H43   S    
C45   H53   S    
C46   H57   S    
