data_mof_unit_47911.cif
_audit_creation_date              2012-12-11T15:55:37-0500
_audit_creation_method            fapswitch 2.2
_symmetry_space_group_name_H-M    P1
_symmetry_Int_Tables_number       1
_space_group_crystal_system       triclinic
_cell_length_a                    8.278626
_cell_length_b                    18.861064
_cell_length_c                    18.986352
_cell_angle_alpha                 98.978198
_cell_angle_beta                  94.221515
_cell_angle_gamma                 91.865732
_cell_volume                      2917.41088967

loop_
_atom_site_label
_atom_site_type_symbol
_atom_type_description
_atom_site_fract_x
_atom_site_fract_y
_atom_site_fract_z
_atom_type_partial_charge
Ba1   Ba    Ba6+2 0.152460 0.535140 0.468980 1.664224
Ba2   Ba    Ba6+2 0.657710 0.464850 0.530960 1.677216
C1    C     C_3   0.344656 0.703141 0.214193 -0.427555
C2    C     C_R   0.073142 0.910251 0.581619 -0.078323
C3    C     C_R   0.173959 0.061429 0.596104 -0.103651
C4    C     C_3   0.927984 0.739576 0.302518 0.364816
C5    C     C_R   0.037634 0.031216 0.550425 0.017415
C6    C     C_R   0.231943 0.131324 0.596897 -0.126393
C7    C     C_R   0.153595 0.176001 0.554667 -0.047848
C8    C     C_R   0.009560 0.149716 0.512359 0.000984
C9    C     C_R   0.952102 0.076491 0.509378 0.020102
C10   C     C_R   0.214036 0.246691 0.554499 0.024916
C11   C     C_R   0.115076 0.294582 0.523631 -0.213150
C12   C     C_3   0.354710 0.683738 0.289613 0.353014
C13   C     C_R   0.973456 0.270412 0.480346 0.036083
C14   C     C_R   0.925619 0.195952 0.471507 -0.037325
C15   C     C_R   0.833257 0.932562 0.508182 0.002515
C16   C     C_3   0.015278 0.803755 0.277591 -0.324757
C17   C     C_R   0.776674 0.859814 0.509621 -0.006176
C18   C     C_R   0.871722 0.812352 0.546091 -0.039758
C19   C     C_R   0.007418 0.843932 0.591221 0.076043
C20   C     C_R   0.802157 0.165061 0.420750 -0.044000
C21   C     C_R   0.754358 0.092637 0.414779 -0.099616
C22   C     C_R   0.811700 0.049091 0.464501 0.017870
C23   C     C_3   0.590964 0.671853 0.744263 0.281961
C24   C     C_R   0.739836 0.979126 0.469534 0.005449
C25   C     C_R   0.576583 0.953967 0.442364 0.050724
C26   C     C_R   0.621417 0.835554 0.477677 -0.043968
C27   C     C_R   0.521761 0.884364 0.449726 -0.109694
C28   C     C_3   0.809556 0.361032 0.297667 0.258679
C29   C     C_R   0.568749 0.762716 0.473925 0.013198
C30   C     C_R   0.672806 0.714542 0.500496 -0.275440
C31   C     C_R   0.823681 0.736849 0.536371 0.019855
C32   C     C_R   0.609757 0.530505 0.302155 -0.273369
C33   C     C_R   0.457861 0.498125 0.279132 0.060489
C34   C     C_3   0.577349 0.750908 0.776251 -0.207591
C35   C     C_R   0.393888 0.498343 0.208835 -0.140385
C36   C     C_R   0.484417 0.528353 0.159808 -0.001170
C37   C     C_R   0.639423 0.560507 0.183899 -0.147395
C38   C     C_R   0.700832 0.561724 0.255170 0.012740
C39   C     C_R   0.445747 0.575049 0.041967 -0.078962
C40   C     C_3   0.867367 0.334578 0.222160 -0.031180
C41   C     C_R   0.383248 0.567743 0.969792 0.029518
C42   C     C_R   0.315445 0.499542 0.934371 -0.005559
C43   C     C_R   0.290034 0.444965 0.976726 0.365023
C44   C     C_R   0.338161 0.456709 0.049707 -0.097373
C45   C     C_3   0.900457 0.266405 0.679035 0.405162
C46   C     C_R   0.421779 0.520367 0.082847 -0.014809
C47   C     C_R   0.127080 0.451019 0.824799 -0.076554
C48   C     C_R   0.090354 0.438428 0.750625 0.001454
C49   C     C_R   0.341783 0.500496 0.733930 0.016394
C50   C     C_R   0.386426 0.507030 0.807566 -0.148011
C51   C     C_R   0.277170 0.484353 0.854539 0.025158
C52   C     C_3   0.020334 0.610531 0.684739 0.294962
C53   C     C_R   0.199338 0.461839 0.705484 -0.281751
C54   C     C_3   0.043697 0.627604 0.766042 -0.417491
C55   C     C_3   0.255100 0.310973 0.336159 0.641876
C56   C     C_3   0.873967 0.191510 0.699119 -0.176677
C57   C     C_3   0.214622 0.239626 0.287171 -0.346975
C58   C     C_3   0.823208 0.253319 0.195426 -0.153568
C59   C     C_3   0.892526 0.224293 0.124331 -0.437778
C60   C     C_3   0.813790 0.382442 0.166653 -0.243623
C61   C     C_3   0.638506 0.368241 0.135255 -0.406096
C62   C     C_3   0.733134 0.783554 0.820073 -0.258067
C63   C     C_3   0.755304 0.759466 0.893225 -0.417945
C64   C     C_3   0.980574 0.179837 0.766123 -0.210197
C65   C     C_3   0.910956 0.212106 0.836208 -0.312599
C66   C     C_3   0.044254 0.827257 0.665869 -0.206192
C67   C     C_3   0.431613 0.308564 0.720491 0.331152
C68   C     C_3   0.216816 0.802550 0.678885 -0.323492
C69   C     C_3   0.742274 0.747246 0.296329 -0.189480
C70   C     C_3   0.686280 0.824685 0.303179 -0.461788
C71   C     C_3   0.450324 0.995486 0.404476 -0.217188
C72   C     C_3   0.409181 0.066991 0.448004 -0.358139
C73   C     C_3   0.387914 0.634145 0.933369 -0.205782
C74   C     C_3   0.314382 0.699082 0.976456 -0.420690
C75   C     C_3   0.456632 0.281756 0.792086 -0.356943
C76   C     C_R   0.984245 0.957878 0.545478 -0.003819
Cl1   Cl    Cl    0.362666 0.290551 0.412458 -0.719860
Cl2   Cl    Cl    0.204045 0.358687 0.942253 -0.801939
H1    H     H_    0.256217 0.643496 0.292764 0.121846
H2    H     H_    0.168824 0.248869 0.233507 0.077380
H3    H     H_    0.122158 0.207835 0.310029 0.075365
H4    H     H_    0.324890 0.207898 0.280467 0.131503
H5    H     H_    0.470957 0.658517 0.299019 -0.032030
H6    H     H_    0.411026 0.664918 0.178532 0.085730
H7    H     H_    0.613339 0.639869 0.788383 0.000395
H8    H     H_    0.693858 0.667852 0.709597 0.060661
H9    H     H_    0.553320 0.781675 0.731445 0.081670
H10   H     H_    0.472785 0.756789 0.809910 0.107178
H11   H     H_    0.398826 0.757561 0.213995 0.120162
H12   H     H_    0.001647 0.340982 0.228645 0.072826
H13   H     H_    0.964365 0.810992 0.223548 0.098159
H14   H     H_    0.837955 0.266391 0.625112 0.051508
H15   H     H_    0.032278 0.277505 0.676628 -0.100436
H16   H     H_    0.743320 0.181093 0.706159 0.137867
H17   H     H_    0.905111 0.151290 0.653527 0.047535
H18   H     H_    0.298497 0.310838 0.707442 -0.072300
H19   H     H_    0.490077 0.363361 0.725607 0.087962
H20   H     H_    0.383817 0.313183 0.831833 0.159369
H21   H     H_    0.587056 0.288462 0.812475 0.141896
H22   H     H_    0.971780 0.739003 0.359282 0.074010
H23   H     H_    0.135257 0.594623 0.662483 0.036369
H24   H     H_    0.415826 0.224080 0.785668 0.107433
H25   H     H_    0.157095 0.350065 0.527465 0.092831
H26   H     H_    0.337654 0.150020 0.632346 0.100108
H27   H     H_    0.744477 0.195510 0.383082 0.118340
H28   H     H_    0.398958 0.867007 0.430088 0.108226
H29   H     H_    0.634327 0.658347 0.493867 0.078594
H30   H     H_    0.239568 0.033190 0.633240 0.065582
H31   H     H_    0.188448 0.925942 0.610597 0.065772
H32   H     H_    0.676924 0.071797 0.368375 0.070108
H33   H     H_    0.500942 0.534190 0.828762 0.069317
H34   H     H_    0.927106 0.566191 0.669390 0.079510
H35   H     H_    0.508614 0.624776 0.067073 0.073367
H36   H     H_    0.275987 0.472335 0.191769 0.096088
H37   H     H_    0.317902 0.413411 0.079813 0.107507
H38   H     H_    0.035248 0.438047 0.859021 0.125200
H39   H     H_    0.714225 0.582130 0.147182 0.079765
H40   H     H_    0.165979 0.456168 0.648628 0.055534
H41   H     H_    0.006846 0.853959 0.316041 0.071190
H42   H     H_    0.660188 0.528688 0.356026 0.071957
H43   H     H_    0.144787 0.796503 0.273610 0.157190
H44   H     H_    0.676843 0.367519 0.294089 0.040254
H45   H     H_    0.135148 0.672645 0.782956 0.121878
H46   H     H_    0.872368 0.413476 0.320425 0.029562
H47   H     H_    0.828431 0.244675 0.078847 0.150590
H48   H     H_    0.023152 0.239702 0.125661 0.141908
H49   H     H_    0.877997 0.164753 0.114153 0.120223
H50   H     H_    0.872745 0.220763 0.235157 0.129921
H51   H     H_    0.689686 0.243023 0.190692 0.117833
H52   H     H_    0.616205 0.313364 0.104848 0.145735
H53   H     H_    0.553442 0.376324 0.177824 0.124761
H54   H     H_    0.614873 0.405456 0.096593 0.142755
H55   H     H_    0.831267 0.439467 0.191251 0.122657
H56   H     H_    0.085047 0.580858 0.789128 0.064931
H57   H     H_    0.894133 0.374518 0.121918 0.144371
H58   H     H_    0.865721 0.787087 0.923374 0.127002
H59   H     H_    0.649361 0.773687 0.924332 0.135083
H60   H     H_    0.770946 0.700770 0.887597 0.120902
H61   H     H_    0.840986 0.769840 0.789995 0.123828
H62   H     H_    0.726824 0.843118 0.828667 0.120976
H63   H     H_    0.916377 0.271652 0.843127 0.198139
H64   H     H_    0.783089 0.191924 0.837081 0.105221
H65   H     H_    0.983815 0.196075 0.882328 0.139934
H66   H     H_    0.988284 0.120976 0.765486 0.102103
H67   H     H_    0.927075 0.642671 0.788175 0.105666
H68   H     H_    0.106411 0.202422 0.764850 0.121983
H69   H     H_    0.259619 0.770521 0.630208 0.165410
H70   H     H_    0.301893 0.850290 0.695015 0.076240
H71   H     H_    0.222104 0.769979 0.723055 0.132197
H72   H     H_    0.032055 0.876930 0.705062 0.075962
H73   H     H_    0.948892 0.791626 0.680175 0.122498
H74   H     H_    0.554875 0.826268 0.309311 0.169064
H75   H     H_    0.708082 0.848037 0.254387 0.123670
H76   H     H_    0.750872 0.858554 0.350337 0.134475
H77   H     H_    0.690187 0.717771 0.243941 0.108063
H78   H     H_    0.142577 0.337768 0.350196 -0.010141
H79   H     H_    0.693397 0.722080 0.339688 0.039580
H80   H     H_    0.281005 0.063256 0.461680 0.127225
H81   H     H_    0.489465 0.081091 0.498558 0.150249
H82   H     H_    0.418668 0.111236 0.415231 0.154830
H83   H     H_    0.482995 0.000686 0.350056 0.090061
H84   H     H_    0.333357 0.963748 0.391659 0.099690
H85   H     H_    0.194382 0.683696 0.993677 0.140374
H86   H     H_    0.396405 0.721823 0.024098 0.125189
H87   H     H_    0.297734 0.741876 0.942755 0.115866
H88   H     H_    0.515593 0.648166 0.924996 0.099558
H89   H     H_    0.217426 0.700781 0.191204 0.148860
H90   H     H_    0.317806 0.624817 0.880715 0.107930
O1    O     O_2   0.118870 0.674530 0.547560 -0.446678
O2    O     O_2   0.758615 0.451440 0.745593 -0.492646
O3    O     O_3   0.834382 0.317875 0.729045 -0.593520
O4    O     O_3   0.870460 0.585330 0.542110 -0.483849
O5    O     O_3   0.436130 0.464210 0.414140 -0.442306
O6    O     O_2   0.629420 0.533310 0.672080 -0.471318
O7    O     O_3   0.446915 0.647649 0.702003 -0.654686
O8    O     O_2   0.547530 0.239050 0.532682 -0.439087
O9    O     O_3   0.503561 0.261462 0.668478 -0.613129
O10   O     O_3   0.354280 0.631750 0.418430 -0.489560
O11   O     O_2   0.225158 0.755685 0.464998 -0.488771
O12   O     O_3   0.356630 0.353011 0.302255 -0.649041
O13   O     O_3   0.970778 0.672992 0.660769 -0.656258
O14   O     O_3   0.342314 0.745828 0.340496 -0.634465
O15   O     O_2   0.180880 0.466650 0.327890 -0.485055
O16   O     O_3   0.939000 0.596010 0.380670 -0.481965
O17   O     O_2   0.022650 0.541011 0.252733 -0.496594
O18   O     O_3   0.971244 0.676245 0.258972 -0.620115
O19   O     O_2   0.691430 0.325420 0.452420 -0.380762
O20   O     O_3   0.939830 0.414660 0.457830 -0.495154
O21   O     O_3   0.456020 0.368240 0.581510 -0.440162
O22   O     O_3   0.845710 0.308006 0.339706 -0.669626
O23   O     O_3   0.374170 0.535780 0.585810 -0.445753
O24   O     O_3   0.871300 0.403980 0.619270 -0.494867
P1    P     P_3+3 0.947550 0.663200 0.567530 0.994118
P2    P     P_3+3 0.354660 0.445020 0.336980 1.010340
P3    P     P_3+3 0.907013 0.596043 0.288006 0.913966
P4    P     P_3+3 0.862750 0.336790 0.432410 1.010388
P5    P     P_3+3 0.888934 0.403377 0.711610 0.948258
P6    P     P_3+3 0.372434 0.724654 0.426872 0.934591
P7    P     P_3+3 0.447933 0.554144 0.676381 0.948715
P8    P     P_3+3 0.428848 0.277024 0.584139 1.010779

loop_
_geom_bond_atom_site_label_1
_geom_bond_atom_site_label_2
_ccdc_geom_bond_type
O19   P4    D    
C34   H9    S    
C55   H78   S    
C28   H46   S    
C70   H76   S    
O3    P5    S    
C71   C72   S    
C55   Cl1   S    
C67   C75   S    
C17   C18   A    
C68   H70   S    
Ba2   O19   S    
C41   C42   A    
C65   H63   S    
C35   H36   S    
C50   H33   S    
C42   C43   A    
C5    C9    A    
C21   H32   S    
C56   H17   S    
C24   C25   A    
C60   C61   S    
O17   P3    D    
C32   C38   A    
C15   C24   A    
C61   H53   S    
C26   C27   A    
C33   C35   A    
C57   H3    S    
C32   C33   A    
C71   H84   S    
C36   C37   A    
Ba1   O10   S    
C23   O7    S    
C55   C57   S    
C25   C27   A    
C38   P3    S    
C20   H27   S    
C4    O18   S    
C9    C22   A    
C23   H7    S    
O23   P7    S    
C75   H20   S    
C1    H11   S    
Ba1   Ba2   S    
C59   H47   S    
C56   H16   S    
C55   O12   S    
Ba2   O6    S    
C63   H60   S    
C75   H21   S    
C42   C51   S    
C56   C64   S    
C29   C30   A    
C6    C7    A    
O14   P6    S    
C65   H65   S    
O13   P1    S    
C21   C22   A    
C57   H2    S    
C27   H28   S    
C74   H86   S    
C73   H88   S    
O21   P8    S    
C10   P8    S    
C59   H48   S    
C7    C8    A    
C40   C60   S    
C64   H68   S    
C59   H49   S    
C16   H43   S    
Ba1   O20   S    
C34   C62   S    
C64   C65   S    
O4    P1    S    
C32   H42   S    
C70   H75   S    
C1    H6    S    
C39   C41   A    
C68   H69   S    
C39   H35   S    
C4    C16   S    
C65   H64   S    
C58   H51   S    
C29   P6    S    
C54   H56   S    
C67   O9    S    
C44   C46   A    
C53   H40   S    
C41   C73   S    
C4    C69   S    
C69   H77   S    
C52   C54   S    
Ba1   O4    S    
C70   H74   S    
C30   H29   S    
C49   C50   A    
C61   H54   S    
C52   H23   S    
Ba1   P2    S    
C57   H4    S    
O1    P1    D    
C66   H73   S    
C40   C58   S    
C37   C38   A    
C3    C5    A    
C13   P4    S    
C1    H89   S    
C23   C34   S    
C49   C53   A    
Ba1   O16   S    
Ba1   O1    S    
C23   H8    S    
C44   H37   S    
C58   C59   S    
Ba2   O24   S    
C60   H55   S    
Ba1   O23   S    
C73   C74   S    
C2    C76   A    
C35   C36   A    
O10   P6    S    
C66   H72   S    
Ba2   O5    S    
C3    C6    A    
C47   H38   S    
O9    P8    S    
C73   H90   S    
C74   H85   S    
O16   P3    S    
C54   H45   S    
Ba2   O21   S    
C17   C26   A    
C45   O3    S    
C1    C12   S    
C33   P2    S    
C5    C76   A    
C63   H58   S    
C67   H19   S    
C11   H25   S    
C2    H31   S    
C28   H44   S    
O22   P4    S    
C11   C13   A    
C19   C66   S    
C39   C46   A    
O7    P7    S    
O12   P2    S    
C18   C31   A    
O15   P2    D    
C58   H50   S    
O5    P2    S    
C50   C51   A    
O20   P4    S    
C72   H82   S    
C34   H10   S    
Ba1   O5    S    
C14   C20   A    
Ba1   P1    S    
Ba2   P4    S    
C36   C46   S    
O6    P7    D    
C26   C29   A    
C68   H71   S    
Ba2   O20   S    
C12   H5    S    
C22   C24   A    
C6    H26   S    
C72   H81   S    
C12   O14   S    
C48   P5    S    
C52   O13   S    
Ba1   O15   S    
C69   H79   S    
C48   C53   A    
C72   H80   S    
Ba2   O23   S    
C15   C76   A    
C30   C31   A    
C54   H67   S    
O8    P8    D    
C69   C70   S    
C71   H83   S    
C8    C14   A    
C67   H18   S    
C45   C56   S    
C2    C19   A    
C62   H62   S    
O18   P3    S    
C37   H39   S    
C62   H61   S    
C52   H34   S    
C62   C63   S    
C74   H87   S    
C15   C17   A    
C45   H14   S    
C61   H52   S    
C43   Cl2   S    
C40   H12   S    
C4    H22   S    
C60   H57   S    
C7    C10   A    
O2    P5    D    
C64   H66   S    
C47   C51   A    
C8    C9    A    
C16   H41   S    
C63   H59   S    
O24   P5    S    
C43   C44   A    
C28   O22   S    
C18   C19   A    
C31   P1    S    
C66   C68   S    
C47   C48   A    
C3    H30   S    
C49   P7    S    
C16   H13   S    
C45   H15   S    
C20   C21   A    
C28   C40   S    
C75   H24   S    
C12   H1    S    
C10   C11   A    
C25   C71   S    
O11   P6    D    
Ba2   O4    S    
C13   C14   A    
