data_mof_unit_37732.cif
_audit_creation_date              2013-03-05T16:33:59-0500
_audit_creation_method            fapswitch 2.2
_symmetry_space_group_name_H-M    P1
_symmetry_Int_Tables_number       1
_space_group_crystal_system       triclinic
_cell_length_a                    18.944599
_cell_length_b                    18.893501
_cell_length_c                    18.940184
_cell_angle_alpha                 109.871761
_cell_angle_beta                  109.363396
_cell_angle_gamma                 109.788888
_cell_volume                      5178.90129676

loop_
_atom_site_label
_atom_site_type_symbol
_atom_site_description
_atom_site_fract_x
_atom_site_fract_y
_atom_site_fract_z
_atom_type_partial_charge
O1    O     O_R   0.410050 0.552190 0.462250 -0.598749
O2    O     O_R   0.410760 0.447830 0.358560 -0.579768
C1    C     C_R   0.383139 0.501380 0.381803 0.776230
O3    O     O_R   0.589820 0.642360 0.551840 -0.605390
O4    O     O_R   0.590530 0.538000 0.448150 -0.544726
C2    C     C_R   0.619183 0.619429 0.500561 0.828065
Cu1   Cu    Cu3+1 0.499580 0.561790 0.561390 1.027158
Cu2   Cu    Cu3+1 0.500420 0.438210 0.438610 1.053202
O5    O     O_R   0.589240 0.552170 0.641440 -0.559262
O6    O     O_R   0.589950 0.447810 0.537750 -0.567438
O7    O     O_R   0.409470 0.462000 0.551850 -0.571909
O8    O     O_R   0.410180 0.357640 0.448160 -0.539032
C3    C     C_R   0.618651 0.501724 0.618777 0.843826
C4    C     C_R   0.379434 0.380737 0.498054 0.887533
H1    H     H_    0.801227 0.882887 0.898830 0.190848
C5    C     C_R   0.724586 0.853310 0.768619 -0.018295
C6    C     C_R   0.712577 0.820486 0.684694 -0.214072
H2    H     H_    0.663411 0.820830 0.635151 0.162995
C7    C     C_R   0.764083 0.788218 0.663936 -0.053055
C8    C     C_R   0.831519 0.792098 0.730006 0.384023
C9    C     C_R   0.845025 0.827148 0.814790 0.460751
C10   C     C_R   0.790786 0.856430 0.833418 -0.286040
C11   C     C_R   0.820160 0.822563 0.573452 -0.196672
H3    H     H_    0.875807 0.880336 0.633570 0.191036
C12   C     C_R   0.812159 0.811198 0.494101 -0.138728
C13   C     C_R   0.736901 0.739586 0.414494 -0.038220
C14   C     C_R   0.676544 0.673604 0.418000 0.424996
C15   C     C_R   0.684355 0.687333 0.499035 -0.129634
C16   C     C_R   0.755086 0.764305 0.576979 -0.065753
C17   C     C_R   0.639605 0.720111 0.270736 0.342294
C18   C     C_R   0.623243 0.711561 0.188238 -0.096237
C19   C     C_R   0.688249 0.717494 0.165079 -0.015120
C20   C     C_R   0.765795 0.729248 0.222716 -0.224862
H4    H     H_    0.816152 0.734148 0.206278 0.140728
C21   C     C_R   0.781253 0.738288 0.303217 -0.127354
H5    H     H_    0.843126 0.751316 0.347508 0.128989
C22   C     C_R   0.719337 0.733635 0.328488 0.069346
H6    H     H_    0.537022 0.898594 0.614456 0.134370
C23   C     C_R   0.427687 0.770173 0.557319 0.041400
C24   C     C_R   0.370607 0.686953 0.482090 -0.059306
H7    H     H_    0.319182 0.637699 0.480893 0.171303
C25   C     C_R   0.379177 0.666667 0.407827 -0.049709
C26   C     C_R   0.443829 0.732818 0.408121 0.469073
C27   C     C_R   0.500360 0.815268 0.483449 -0.078498
H8    H     H_    0.550132 0.865868 0.484281 0.169778
C28   C     C_R   0.492786 0.833805 0.557448 -0.363042
C29   C     C_R   0.250381 0.575797 0.261251 -0.206213
H9    H     H_    0.249344 0.635159 0.269762 0.171027
C30   C     C_R   0.186686 0.496500 0.184558 -0.012033
C31   C     C_R   0.185677 0.418277 0.173544 0.150254
C32   C     C_R   0.252229 0.422463 0.238425 -0.189855
H10   H     H_    0.252362 0.362727 0.229732 0.146900
C33   C     C_R   0.316520 0.502017 0.315523 -0.061173
C34   C     C_R   0.314375 0.579568 0.328081 0.006339
C35   C     C_R   0.035164 0.286227 0.086138 0.373149
C36   C     C_R   0.971864 0.200957 0.012573 -0.185633
C37   C     C_R   0.992562 0.162962 0.949151 0.490045
C38   C     C_R   0.073489 0.210309 0.959242 -0.135446
H11   H     H_    0.089338 0.181316 0.911282 0.177229
C39   C     C_R   0.135783 0.292529 0.032299 -0.300257
H12   H     H_    0.199267 0.325950 0.040016 0.208787
C40   C     C_R   0.117062 0.331370 0.095358 0.033541
H13   H     H_    0.200209 0.598016 0.560422 0.167310
C41   C     C_R   0.256430 0.536364 0.618485 0.479498
C42   C     C_R   0.269721 0.465756 0.602586 -0.073995
H14   H     H_    0.304743 0.460837 0.657179 0.221805
C43   C     C_R   0.236759 0.400654 0.517531 -0.082375
C44   C     C_R   0.189982 0.406632 0.446070 -0.024297
C45   C     C_R   0.178319 0.480044 0.462266 -0.034799
C46   C     C_R   0.210123 0.542781 0.548106 -0.309979
C47   C     C_R   0.179964 0.255205 0.502190 -0.173728
H15   H     H_    0.126702 0.261721 0.506925 0.159677
C48   C     C_R   0.186259 0.182616 0.498076 -0.120114
C49   C     C_R   0.256619 0.174537 0.494608 -0.068760
C50   C     C_R   0.315390 0.236295 0.486272 0.452387
C51   C     C_R   0.311869 0.312419 0.496659 -0.121822
C52   C     C_R   0.243987 0.322071 0.505434 -0.048300
C53   C     C_R   0.348013 0.126714 0.573790 0.473336
C54   C     C_R   0.366957 0.061037 0.575029 -0.333676
H16   H     H_    0.425736 0.077762 0.629125 0.118584
C55   C     C_R   0.311910 0.974588 0.505673 0.027461
C56   C     C_R   0.235783 0.953309 0.435990 -0.073482
H17   H     H_    0.192344 0.886955 0.381770 0.207123
C57   C     C_R   0.215965 0.017816 0.434621 -0.226298
H18   H     H_    0.158336 0.000807 0.379248 0.163359
C58   C     C_R   0.272106 0.104755 0.502509 0.057106
C59   C     C_2   0.733414 0.451933 0.787607 0.373890
C60   C     C_2   0.817452 0.487907 0.808550 -0.186819
H19   H     H_    0.837572 0.509702 0.768741 0.129963
C61   C     C_2   0.667583 0.442453 0.709645 -0.141217
C62   C     C_2   0.684650 0.507451 0.690689 -0.221243
O9    O     O_R   0.052450 0.909800 0.462220 -0.579122
O10   O     O_R   0.948740 0.909840 0.358530 -0.586252
C63   C     C_R   0.997473 0.877929 0.381879 0.762153
O11   O     O_R   0.961680 0.909780 0.551820 -0.574607
O12   O     O_R   0.857970 0.909820 0.448140 -0.573841
C64   C     C_R   0.880777 0.879620 0.497732 0.800647
Cu3   Cu    Cu3+1 0.061410 0.999960 0.561370 1.023924
Cu4   Cu    Cu3+1 0.938590 0.000000 0.438590 0.988753
O13   O     O_R   0.051260 0.090120 0.641420 -0.567919
O14   O     O_R   0.947550 0.090150 0.537740 -0.589779
O15   O     O_R   0.142030 0.090140 0.551820 -0.571332
O16   O     O_R   0.038320 0.090170 0.448130 -0.586244
C65   C     C_R   0.002026 0.120856 0.618529 0.807423
C66   C     C_R   0.118987 0.117414 0.499033 0.800042
O17   O     O_R   0.056040 0.462030 0.913600 -0.568962
O18   O     O_R   0.951650 0.357670 0.913630 -0.582440
C67   C     C_R   0.004447 0.380977 0.885769 0.817137
O19   O     O_R   0.145040 0.552210 0.092780 -0.560870
O20   O     O_R   0.040660 0.447850 0.092810 -0.564974
C68   C     C_R   0.121009 0.497656 0.118838 0.834580
Cu5   Cu    Cu3+1 0.065060 0.561820 0.003180 1.027184
Cu6   Cu    Cu3+1 0.941450 0.438250 0.003210 1.048068
O21   O     O_R   0.054850 0.642400 0.092760 -0.589418
O22   O     O_R   0.950470 0.538040 0.092790 -0.577726
O23   O     O_R   0.965850 0.552220 0.913580 -0.586539
O24   O     O_R   0.861470 0.447860 0.913610 -0.533304
C69   C     C_R   0.002761 0.619347 0.121084 0.811555
C70   C     C_R   0.884804 0.497464 0.882993 0.924081
H20   H     H_    0.919917 0.655264 0.543903 0.171153
C71   C     C_R   0.017746 0.731196 0.524979 -0.091879
H21   H     H_    0.067509 0.763579 0.592371 0.190523
C72   C     C_R   0.037590 0.749449 0.465702 0.007246
C73   C     C_R   0.970480 0.708080 0.378270 -0.121093
C74   C     C_R   0.887101 0.639234 0.349868 0.413826
C75   C     C_R   0.870197 0.622060 0.410546 -0.119611
H22   H     H_    0.806228 0.572015 0.389817 0.171371
C76   C     C_R   0.934308 0.668997 0.497706 -0.255798
C77   C     C_R   0.991227 0.671813 0.251259 -0.228636
H23   H     H_    0.983678 0.611944 0.250462 0.178609
C78   C     C_R   0.003266 0.687151 0.187779 -0.081660
C79   C     C_R   0.015041 0.765821 0.189278 0.103463
C80   C     C_R   0.009454 0.825123 0.252143 -0.200911
H24   H     H_    0.016932 0.884917 0.252860 0.155452
C81   C     C_R   0.997151 0.809773 0.315616 -0.109856
C82   C     C_R   0.988279 0.732070 0.315820 -0.040498
C83   C     C_R   0.119346 0.858896 0.161220 0.299868
C84   C     C_R   0.142468 0.879522 0.103853 0.322736
C85   C     C_R   0.086345 0.824835 0.014497 -0.336858
H25   H     H_    0.106248 0.838919 0.971128 0.212769
C86   C     C_R   0.004453 0.753651 0.980522 0.444142
C87   C     C_R   0.976831 0.738358 0.036815 0.352380
C88   C     C_R   0.035821 0.789218 0.128010 -0.168333
C89   C     C_R   0.294751 0.253294 0.839437 -0.096681
C90   C     C_R   0.212224 0.240498 0.823460 -0.088424
H26   H     H_    0.181596 0.212195 0.853735 0.174975
C91   C     C_R   0.169454 0.266479 0.771011 -0.038422
C92   C     C_R   0.207866 0.303388 0.731508 -0.203033
H27   H     H_    0.174408 0.322901 0.690221 0.150813
C93   C     C_R   0.289353 0.315950 0.744854 0.496859
C94   C     C_R   0.335090 0.293178 0.801304 -0.106149
C95   C     C_R   0.086588 0.322386 0.829232 -0.056296
C96   C     C_R   0.006074 0.313853 0.820194 -0.090761
C97   C     C_R   0.926935 0.243477 0.744675 0.021518
C98   C     C_R   0.927951 0.182860 0.679018 -0.180028
H28   H     H_    0.866902 0.128861 0.621286 0.159899
C99   C     C_R   0.006021 0.189917 0.687122 -0.074791
C100  C     C_R   0.086042 0.259542 0.761922 -0.051482
C101  C     C_R   0.788423 0.171830 0.742471 0.483872
C102  C     C_R   0.704515 0.157173 0.722627 -0.229399
H29   H     H_    0.663320 0.110720 0.732993 0.133749
C103  C     C_R   0.672650 0.201232 0.687880 -0.181415
H30   H     H_    0.607604 0.188672 0.671807 0.142972
C104  C     C_R   0.723731 0.260255 0.672437 -0.094932
H31   H     H_    0.696720 0.291994 0.643421 0.160356
C105  C     C_R   0.808383 0.277515 0.693093 -0.070102
C106  C     C_R   0.841077 0.233170 0.729019 -0.022196
C107  C     C_2   0.681358 0.716559 0.084277 0.487398
H32   H     H_    0.720781 0.698968 0.059644 0.066209
O25   O     O_2   0.635922 0.739603 0.046966 -0.467874
C108  C     C_2   0.419588 0.792375 0.635853 0.385837
H33   H     H_    0.463173 0.857764 0.692392 0.080839
O26   O     O_2   0.364392 0.738319 0.638609 -0.548575
O27   O     O_3   0.452834 0.721101 0.336380 -0.703811
H34   H     H_    0.414271 0.659129 0.289536 0.330304
C109  C     C_2   0.668590 0.885857 0.787969 0.477578
H35   H     H_    0.618863 0.884439 0.737336 0.011902
O28   O     O_2   0.677166 0.914599 0.860447 -0.493951
O29   O     O_3   0.019877 0.327664 0.150223 -0.632382
H36   H     H_    0.956697 0.302706 0.127069 0.324014
C110  C     C_2   0.886500 0.152418 0.004048 0.337581
H37   H     H_    0.882813 0.155725 0.060954 0.111581
O30   O     O_2   0.819274 0.110574 0.934111 -0.514126
O31   O     O_3   0.937755 0.079086 0.878281 -0.683703
H38   H     H_    0.897338 0.043678 0.890977 0.348912
O32   O     O_3   0.289192 0.597809 0.703454 -0.680981
H39   H     H_    0.273827 0.643126 0.703872 0.354754
C111  C     C_2   0.150662 0.333676 0.356688 0.460039
H40   H     H_    0.185516 0.301091 0.341601 0.017721
O33   O     O_2   0.077194 0.306019 0.300583 -0.478328
C112  C     C_2   0.136016 0.496573 0.393285 0.442570
H41   H     H_    0.109293 0.539005 0.405504 0.054804
O34   O     O_2   0.134512 0.467524 0.324360 -0.482589
O35   O     O_3   0.378382 0.225302 0.470491 -0.673676
H42   H     H_    0.361099 0.162818 0.443955 0.318739
O36   O     O_3   0.403496 0.212722 0.640059 -0.728077
H43   H     H_    0.454357 0.217303 0.683557 0.311217
C113  C     C_2   0.335976 0.908008 0.506465 0.403362
H44   H     H_    0.392677 0.925063 0.563218 0.066563
O37   O     O_2   0.293618 0.833868 0.443811 -0.563561
O38   O     O_3   0.708892 0.424632 0.839222 -0.682971
H45   H     H_    0.647883 0.409689 0.820698 0.347565
C114  C     C_2   0.580824 0.361861 0.658578 0.435202
H46   H     H_    0.575490 0.301335 0.653995 0.053949
O39   O     O_2   0.514566 0.363940 0.627279 -0.474457
O40   O     O_3   0.886347 0.763792 0.715133 -0.708950
H47   H     H_    0.863128 0.729773 0.651844 0.311950
C115  C     C_2   0.758228 0.597777 0.755176 0.414938
H48   H     H_    0.794927 0.634911 0.734326 0.091952
O41   O     O_2   0.773934 0.632776 0.830144 -0.419186
C116  C     C_2   0.129324 0.807307 0.494493 0.424994
H49   H     H_    0.147665 0.810385 0.446956 0.098758
O42   O     O_2   0.185439 0.851202 0.571306 -0.547021
O43   O     O_3   0.819288 0.588598 0.264708 -0.726957
H50   H     H_    0.834801 0.610507 0.228465 0.338403
O44   O     O_3   0.177857 0.902673 0.248998 -0.753190
H51   H     H_    0.237610 0.925850 0.258566 0.340848
O45   O     O_3   0.219227 0.951746 0.132351 -0.689085
H52   H     H_    0.238895 0.997128 0.191419 0.334152
O46   O     O_3   0.912428 0.832604 0.878533 -0.666362
H53   H     H_    0.913374 0.858201 0.934283 0.321763
O47   O     O_3   0.949835 0.697899 0.892073 -0.646026
H54   H     H_    0.978998 0.716253 0.861382 0.343199
O48   O     O_3   0.893139 0.671403 0.000036 -0.652628
H55   H     H_    0.877341 0.675535 0.045513 0.311901
C117  C     C_2   0.425019 0.313510 0.822883 0.376626
H56   H     H_    0.445331 0.267419 0.828008 0.049998
O49   O     O_2   0.477983 0.382962 0.837041 -0.484916
C118  C     C_2   0.339106 0.228604 0.899667 0.390784
H57   H     H_    0.406547 0.246929 0.922322 0.069464
O50   O     O_2   0.300565 0.187408 0.925596 -0.518828
O51   O     O_3   0.321554 0.350821 0.701649 -0.721404
H58   H     H_    0.363582 0.333545 0.694526 0.391975
C119  C     C_2   0.172100 0.395984 0.907524 0.372661
H59   H     H_    0.229478 0.419793 0.901761 0.111619
O52   O     O_2   0.180461 0.428962 0.979563 -0.558890
O53   O     O_3   0.819902 0.126210 0.773591 -0.679390
H60   H     H_    0.773333 0.082388 0.774218 0.346135
C120  C     C_2   0.860873 0.339793 0.674723 0.325307
H61   H     H_    0.927095 0.355694 0.692205 0.085531
O54   O     O_2   0.830604 0.374124 0.639329 -0.550356
O55   O     O_3   0.607913 0.596141 0.343432 -0.694181
H62   H     H_    0.623020 0.584026 0.297054 0.332943
O56   O     O_3   0.579160 0.715203 0.296843 -0.676836
H63   H     H_    0.520403 0.676959 0.244749 0.331968
C121  C     C_2   0.538671 0.696338 0.128050 0.444392
H64   H     H_    0.510008 0.732186 0.152968 0.082435
O57   O     O_2   0.498438 0.640853 0.051004 -0.465913

loop_
_geom_bond_atom_site_label_1
_geom_bond_atom_site_label_2
_geom_bond_distance
_ccdc_geom_bond_type
C53   C58   1.410881 A    
Cu4   O16   1.972188 S    
C108  H33   1.085524 S    
C35   C40   1.410034 A    
C24   H7    1.082957 S    
C75   H22   1.083057 S    
C98   C99   1.389542 A    
C47   C52   1.389663 A    
C72   C73   1.421506 A    
C48   C49   1.411881 A    
C7    C8    1.420393 A    
C43   C52   1.484193 S    
C8    O40   1.382736 S    
C65   C99   1.453131 S    
C35   C36   1.425746 A    
O48   H55   0.989263 S    
C45   C112  1.483007 S    
Cu5   O21   1.973539 S    
C62   C115  1.480013 S    
C37   C38   1.395736 A    
O11   Cu3   1.972186 S    
O9    Cu3   1.968555 S    
Cu1   Cu2   2.686652 S    
C29   C30   1.394548 A    
O17   Cu5   1.969122 S    
C110  H37   1.085143 S    
C36   C37   1.424328 A    
Cu1   O7    1.971310 S    
C114  O39   1.218335 D    
C13   C14   1.416819 A    
O10   C63   1.303398 A    
C11   C16   1.386212 A    
C111  O33   1.220145 D    
C15   C16   1.413879 A    
C21   C22   1.394197 A    
C120  H61   1.084205 S    
C92   C93   1.398459 A    
C103  H30   1.082422 S    
C89   C94   1.421127 A    
O19   C68   1.300110 A    
O4    C2    1.298445 A    
C26   O27   1.378126 S    
C107  O25   1.220419 D    
C95   C119  1.495594 S    
C36   C110  1.484702 S    
C38   C39   1.391066 A    
O12   Cu4   1.974611 S    
O13   C65   1.290305 A    
C93   O51   1.378851 S    
O56   H63   0.988478 S    
O15   C66   1.291830 A    
C39   C40   1.397171 A    
O38   H45   0.990699 S    
C87   C88   1.421334 A    
O5    C3    1.281859 A    
O27   H34   0.988223 S    
Cu5   Cu6   2.689671 S    
C23   C108  1.477408 S    
C69   C78   1.456172 S    
C91   C92   1.395615 A    
C6    C7    1.404506 A    
O20   C68   1.289463 A    
C107  H32   1.086105 S    
H1    C10   1.083255 S    
C2    C15   1.465431 S    
C67   C96   1.460459 S    
C101  C102  1.407046 A    
C101  C106  1.410511 A    
C79   C80   1.393278 A    
C42   C43   1.401367 A    
C9    O46   1.379390 S    
C72   C116  1.480718 S    
C5    C10   1.400942 A    
O18   C67   1.297119 A    
H13   C46   1.083976 S    
C18   C121  1.484315 S    
C113  H44   1.085175 S    
C41   C46   1.402722 A    
O10   Cu4   1.974113 S    
C86   O47   1.378228 S    
C30   C68   1.451857 S    
C5    C109  1.477862 S    
C79   C88   1.493578 S    
C24   C25   1.406667 A    
O35   H42   0.989578 S    
C83   C88   1.413894 A    
C17   O56   1.378083 S    
C9    C10   1.406787 A    
C3    C62   1.452270 S    
C99   C100  1.412188 A    
C104  C105  1.405124 A    
C105  C106  1.417065 A    
O47   H54   0.991798 S    
C119  O52   1.219381 D    
O3    Cu1   1.975524 S    
C87   O48   1.381953 S    
O46   H53   0.991776 S    
C90   C91   1.396925 A    
C27   C28   1.393293 A    
C90   H26   1.081870 S    
C63   C81   1.457484 S    
C103  C104  1.394390 A    
C51   C52   1.412299 A    
C110  O30   1.220344 D    
C121  O57   1.220970 D    
C71   H21   1.083008 S    
C49   C50   1.410031 A    
C73   C82   1.497886 S    
C32   H10   1.084785 S    
C29   H9    1.085529 S    
O18   Cu6   1.973419 S    
C89   C118  1.488821 S    
C81   C82   1.421510 A    
C57   H18   1.081292 S    
C71   C76   1.390866 A    
C120  O54   1.221262 D    
O19   Cu5   1.974682 S    
C115  H48   1.082454 S    
C55   C113  1.478891 S    
C47   C48   1.394785 A    
O40   H47   0.989271 S    
C44   C45   1.424753 A    
C31   C32   1.394637 A    
C105  C120  1.486553 S    
Cu3   O15   1.974607 S    
C56   H17   1.081330 S    
C55   C56   1.402829 A    
C112  H41   1.085785 S    
C17   C22   1.412923 A    
Cu6   O22   1.969121 S    
C111  H40   1.085098 S    
C32   C33   1.401393 A    
C21   H5    1.072618 S    
C102  C103  1.392743 A    
C50   C51   1.411744 A    
C112  O34   1.218153 D    
C116  H49   1.078933 S    
C118  H57   1.082734 S    
C77   C82   1.391546 A    
C108  O26   1.220052 D    
C74   O43   1.382740 S    
C48   C66   1.452427 S    
C18   C19   1.421194 A    
C53   C54   1.408862 A    
C17   C18   1.427241 A    
Cu2   O8    1.975522 S    
O22   C69   1.298568 A    
O45   H52   0.990338 S    
O12   C64   1.287121 A    
C94   C117  1.485074 S    
O9    C63   1.290089 A    
C6    H2    1.084802 S    
C101  O53   1.380704 S    
O16   C66   1.297253 A    
O7    C4    1.296039 A    
C53   O36   1.379436 S    
O44   H51   0.990145 S    
C95   C100  1.410344 A    
O20   Cu6   1.972357 S    
C84   O45   1.379557 S    
C97   C98   1.386005 A    
O21   C69   1.292342 A    
O32   H39   0.991734 S    
C23   C28   1.399423 A    
Cu6   O24   1.974682 S    
C60   C70   1.458286 S    
C109  H35   1.083613 S    
C116  O42   1.221356 D    
O8    C4    1.295956 A    
C30   C31   1.413033 A    
O14   C65   1.298842 A    
C56   C57   1.397096 A    
C29   C34   1.392703 A    
C26   C27   1.398349 A    
C80   H24   1.084630 S    
C31   C40   1.484591 S    
C97   C106  1.482542 S    
C38   H11   1.081334 S    
O3    C2    1.294536 A    
C119  H59   1.084804 S    
C78   C79   1.415071 A    
C7    C16   1.483766 S    
C14   O55   1.384115 S    
Cu5   O23   1.972358 S    
C27   H8    1.082967 S    
C54   C55   1.400182 A    
C61   C114  1.485081 S    
H20   C76   1.082524 S    
C12   C64   1.451935 S    
Cu1   O5    1.976258 S    
C121  H64   1.085345 S    
C104  H31   1.081098 S    
C75   C76   1.390202 A    
Cu4   O14   1.968455 S    
C8    C9    1.404479 A    
O1    Cu1   1.970735 S    
C35   O29   1.382264 S    
Cu2   O6    1.970735 S    
O2    Cu2   1.976257 S    
C117  H56   1.084182 S    
C57   C58   1.398922 A    
O36   H43   0.991615 S    
O6    C3    1.302818 A    
O4    Cu2   1.971311 S    
C113  O37   1.221332 D    
C85   H25   1.083395 S    
O11   C64   1.301483 A    
C13   C22   1.505865 S    
C33   C34   1.419462 A    
C43   C44   1.416439 A    
O29   H36   0.988172 S    
C49   C58   1.487814 S    
C83   C84   1.418525 A    
C117  O49   1.221224 D    
C93   C94   1.424727 A    
O23   C70   1.300183 A    
C25   C34   1.486336 S    
C89   C90   1.405326 A    
C19   C20   1.396446 A    
O24   C70   1.291875 A    
O2    C1    1.303720 A    
C12   C13   1.420623 A    
O55   H62   0.990087 S    
C47   H15   1.085349 S    
C83   O44   1.378105 S    
C115  O41   1.220756 D    
C86   C87   1.403982 A    
C102  H29   1.082979 S    
H6    C28   1.083232 S    
C85   C86   1.402346 A    
C1    C33   1.462476 S    
C61   C62   1.359918 D    
C74   C75   1.398527 A    
O17   C67   1.293987 A    
O43   H50   0.986658 S    
C41   C42   1.392228 A    
C109  O28   1.221206 D    
O51   H58   0.987893 S    
C20   C21   1.390195 A    
C20   H4    1.082759 S    
C92   H27   1.083839 S    
C42   H14   1.081746 S    
C45   C46   1.402869 A    
Cu3   O13   1.974015 S    
C71   C72   1.405733 A    
C84   C85   1.391560 A    
C11   H3    1.085928 S    
C54   H16   1.083821 S    
C23   C24   1.405606 A    
C50   O35   1.385184 S    
C77   C78   1.398393 A    
C11   C12   1.391174 A    
C60   H19   1.085700 S    
C44   C111  1.484220 S    
C59   C60   1.348782 D    
C118  O50   1.221845 D    
Cu3   Cu4   2.689998 S    
C25   C26   1.420018 A    
C59   C61   1.488503 S    
C98   H28   1.085425 S    
C80   C81   1.400267 A    
C19   C107  1.485619 S    
C77   H23   1.085163 S    
C39   H12   1.083048 S    
O31   H38   0.988068 S    
C95   C96   1.422463 A    
C114  H46   1.083472 S    
O1    C1    1.289251 A    
C96   C97   1.413096 A    
O53   H60   0.991476 S    
C91   C100  1.485903 S    
C59   O38   1.385368 S    
C37   O31   1.380844 S    
C41   O32   1.379325 S    
C5    C6    1.399123 A    
C4    C51   1.463148 S    
C73   C74   1.430391 A    
C14   C15   1.413355 A    
