data_mof_unit_59038.cif
_audit_creation_date              2012-12-10T19:07:07-0500
_audit_creation_method            fapswitch 2.2
_symmetry_space_group_name_H-M    P1
_symmetry_Int_Tables_number       1
_space_group_crystal_system       triclinic
_cell_length_a                    27.517485
_cell_length_b                    10.80186
_cell_length_c                    9.53916
_cell_angle_alpha                 90.102038
_cell_angle_beta                  90.812478
_cell_angle_gamma                 90.163984
_cell_volume                      2835.11872383

loop_
_atom_site_label
_atom_site_type_symbol
_atom_type_description
_atom_site_fract_x
_atom_site_fract_y
_atom_site_fract_z
_atom_type_partial_charge
C1    C     C_R   0.501160 0.262415 0.499884 0.863006
C2    C     C_R   0.971335 0.347914 0.444874 -0.020161
C3    C     C_R   0.971369 0.549752 0.324896 -0.010291
C4    C     C_R   0.407194 0.498658 0.498850 0.774792
C5    C     C_R   0.945862 0.449763 0.386700 0.045944
C6    C     C_R   0.944830 0.236757 0.471168 0.005609
C7    C     C_R   0.894092 0.243155 0.484776 0.641497
C8    C     C_R   0.868804 0.351676 0.448286 -0.149743
C9    C     C_R   0.894488 0.451645 0.390975 -0.207134
C10   C     C_R   0.868343 0.551399 0.333495 -0.109674
C11   C     C_R   0.817529 0.553029 0.347292 0.580306
C12   C     C_R   0.278811 0.467328 0.359505 -0.102548
C13   C     C_R   0.818045 0.362288 0.462683 0.597394
C14   C     C_R   0.723219 0.417583 0.590107 0.182420
C15   C     C_R   0.672140 0.403230 0.577170 0.089802
C16   C     C_R   0.501519 0.737598 0.500103 0.878848
C17   C     C_R   0.669648 0.602028 0.458150 -0.169016
C18   C     C_R   0.720361 0.610504 0.467811 0.157325
C19   C     C_R   0.746990 0.501143 0.498712 0.164094
C20   C     C_R   0.021645 0.362920 0.475471 -0.022822
C21   C     C_R   0.047721 0.460795 0.412480 0.084597
C22   C     C_R   0.023055 0.550529 0.329713 0.097978
C23   C     C_R   0.251528 0.487345 0.480237 0.330005
C24   C     C_R   0.045708 0.290391 0.577434 -0.314567
C25   C     C_R   0.101298 0.645763 0.276895 -0.128772
C26   C     C_R   0.944057 0.646592 0.263143 -0.293017
C27   C     C_R   0.893488 0.646981 0.266106 0.657245
C28   C     C_R   0.592473 0.497042 0.501082 0.803328
C29   C     C_R   0.051059 0.640563 0.259720 -0.209333
C30   C     C_R   0.498111 0.063499 0.623789 0.000366
C31   C     C_R   0.505994 0.129431 0.500478 -0.393319
C32   C     C_R   0.521603 0.064707 0.380913 0.566118
C33   C     C_R   0.521913 0.935528 0.381050 0.535507
C34   C     C_R   0.098749 0.470058 0.434459 -0.131173
C35   C     C_R   0.507068 0.870594 0.501227 -0.321612
C36   C     C_R   0.499380 0.936489 0.624648 -0.063651
C37   C     C_3   0.459876 0.926104 0.729909 -0.410314
C38   C     C_3   0.458019 0.067411 0.728920 0.742006
C39   C     C_R   0.529031 0.580632 0.074820 0.089670
C40   C     C_R   0.173899 0.396532 0.541973 0.586685
C41   C     C_R   0.468639 0.427474 0.072791 0.719360
C42   C     C_R   0.468656 0.427629 0.923963 -0.075202
C43   C     C_R   0.528668 0.581449 0.927190 0.063817
C44   C     C_3   0.582586 0.591556 0.919797 -0.512329
C45   C     C_R   0.122986 0.387767 0.526334 -0.152815
C46   C     C_3   0.583402 0.586769 0.078302 1.101012
C47   C     C_R   0.175996 0.568695 0.385754 0.545978
C48   C     C_R   0.275521 0.509566 0.608717 -0.092033
C49   C     C_R   0.326317 0.512418 0.615874 -0.224244
C50   C     C_R   0.329344 0.471320 0.366138 -0.186350
C51   C     C_3   0.743080 0.738781 0.475794 -0.308359
C52   C     C_3   0.722901 0.814482 0.597473 -0.829033
C53   C     C_3   0.409717 0.122319 0.674019 -0.474462
C54   C     C_3   0.369135 0.107343 0.780170 -0.709888
C55   C     C_3   0.647433 0.287896 0.635031 -0.415727
C56   C     C_R   0.095606 0.300399 0.600745 0.670491
C57   C     C_3   0.660376 0.173553 0.549073 -0.733435
C58   C     C_3   0.749433 0.373116 0.722350 -0.380742
C59   C     C_3   0.733092 0.446040 0.850941 -0.773524
C60   C     C_3   0.968176 0.108880 0.467431 -0.388383
C61   C     C_3   0.947242 0.028319 0.348762 -0.679743
C62   C     C_R   0.125457 0.562372 0.365451 0.014466
C63   C     C_R   0.353647 0.494252 0.494207 -0.044219
C64   C     C_R   0.645572 0.496180 0.505181 -0.096417
Cu1   Cu    Cu3+1 0.500000 0.499980 0.640670 0.962839
Cu2   Cu    Cu3+1 0.500000 0.500020 0.359330 1.109679
F1    F     F_    0.869653 0.745402 0.209794 -0.621552
F2    F     F_    0.534581 0.125183 0.262410 -0.556954
F3    F     F_    0.534693 0.875161 0.262238 -0.570296
F4    F     F_    0.473859 0.119108 0.854591 -0.600780
F5    F     F_    0.437769 0.351019 0.140623 -0.639113
F6    F     F_    0.605324 0.480227 0.128730 -0.642136
F7    F     F_    0.601093 0.693956 0.140351 -0.612936
F8    F     F_    0.116554 0.224807 0.697651 -0.609722
F9    F     F_    0.869797 0.142523 0.533189 -0.627917
H1    H     H_    0.349344 0.455836 0.270760 0.195561
H2    H     H_    0.443983 0.367251 0.866768 0.182208
H3    H     H_    0.599733 0.509291 0.871089 0.203767
H4    H     H_    0.594324 0.682202 0.876660 0.200070
H5    H     H_    0.025838 0.226627 0.642684 0.181108
H6    H     H_    0.344122 0.530066 0.715925 0.162705
H7    H     H_    0.683734 0.834822 0.580461 0.247522
H8    H     H_    0.727761 0.763445 0.697697 0.261483
H9    H     H_    0.742699 0.904015 0.605623 0.279127
H10   H     H_    0.782908 0.733270 0.494365 0.228112
H11   H     H_    0.736014 0.789237 0.376172 0.266259
H12   H     H_    0.254815 0.525373 0.702717 0.156602
H13   H     H_    0.362405 0.007882 0.802018 0.243595
H14   H     H_    0.378858 0.155630 0.879627 0.288751
H15   H     H_    0.335147 0.148615 0.737246 0.251305
H16   H     H_    0.414460 0.222640 0.653362 0.210013
H17   H     H_    0.398577 0.077027 0.573745 0.184434
H18   H     H_    0.648864 0.186438 0.437953 0.280659
H19   H     H_    0.700065 0.155805 0.553894 0.279803
H20   H     H_    0.641216 0.091326 0.591314 0.236786
H21   H     H_    0.657773 0.272678 0.746349 0.226878
H22   H     H_    0.607333 0.295010 0.633147 0.220782
H23   H     H_    0.121129 0.716541 0.221013 0.191913
H24   H     H_    0.741214 0.546049 0.837040 0.257770
H25   H     H_    0.693584 0.434840 0.868698 0.258418
H26   H     H_    0.753028 0.412601 0.945497 0.274229
H27   H     H_    0.743390 0.272587 0.738746 0.243715
H28   H     H_    0.789223 0.388128 0.716004 0.223732
H29   H     H_    0.908735 0.003523 0.367186 0.311867
H30   H     H_    0.949973 0.077464 0.246944 0.243663
H31   H     H_    0.968255 0.940910 0.342224 0.222537
H32   H     H_    0.007582 0.114000 0.446572 0.214029
H33   H     H_    0.963065 0.061631 0.569563 0.236984
H34   H     H_    0.960750 0.726226 0.215849 0.162911
H35   H     H_    0.648677 0.681522 0.423753 0.190310
H36   H     H_    0.035303 0.707578 0.189146 0.147494
H37   H     H_    0.426934 0.879326 0.686059 0.147974
H38   H     H_    0.260726 0.448868 0.260047 0.155711
H39   H     H_    0.473457 0.887143 0.830850 0.237475
N1    N     N_R   0.199289 0.485206 0.470942 -0.476428
N2    N     N_R   0.795267 0.474270 0.439986 -0.462100
N3    N     N_R   0.500300 0.500930 0.147930 -0.255027
N4    N     N_R   0.500310 0.500890 0.852020 -0.206230
O1    O     O_R   0.500000 0.319640 0.618810 -0.580419
O2    O     O_R   0.569730 0.499960 0.618810 -0.607007
O3    O     O_R   0.569740 0.500000 0.381220 -0.497942
O4    O     O_2   0.198016 0.315672 0.624896 -0.456765
O5    O     O_2   0.791804 0.260316 0.492056 -0.483982
O6    O     O_2   0.201732 0.657865 0.320942 -0.530761
O7    O     O_2   0.790914 0.626711 0.262484 -0.471314
O8    O     O_R   0.500010 0.319680 0.381230 -0.466029
O9    O     O_R   0.430260 0.500000 0.618780 -0.603604
O10   O     O_R   0.430270 0.500040 0.381190 -0.553046
O11   O     O_R   0.499990 0.680320 0.618770 -0.574875
O12   O     O_R   0.500000 0.680360 0.381190 -0.529455

loop_
_geom_bond_atom_site_label_1
_geom_bond_atom_site_label_2
_ccdc_geom_bond_type
C10   C27   A    
C38   F4    S    
C7    F9    S    
C8    C13   A    
C49   C63   A    
C22   C29   A    
C59   H24   S    
C41   C42   A    
C35   C36   A    
C1    C31   S    
C17   H35   S    
C51   H10   S    
C47   C62   A    
C7    C8    A    
C53   C54   S    
C47   N1    A    
C4    C63   S    
C26   C27   A    
Cu1   O9    S    
C36   C37   S    
C11   O7    S    
C54   H15   S    
C17   C64   A    
C30   C31   A    
C13   O5    S    
C40   N1    A    
C34   C62   A    
C30   C38   S    
C18   C19   A    
C1    O1    A    
C49   H6    S    
C52   H9    S    
C37   H37   S    
C24   H5    S    
C20   C24   A    
C45   C56   A    
C8    C9    A    
Cu2   N3    S    
C53   H16   S    
C15   C64   A    
C58   H27   S    
C16   O12   A    
C9    C10   A    
C46   F6    S    
C60   H33   S    
C33   F3    S    
C41   F5    S    
C57   H18   S    
C21   C22   A    
C59   H25   S    
C2    C6    A    
C51   H11   S    
C44   C46   S    
C18   C51   S    
C50   C63   A    
C44   H4    S    
C25   C29   A    
C40   C45   A    
C14   C58   S    
Cu2   O3    S    
C56   F8    S    
C4    O10   A    
C2    C20   A    
C51   C52   S    
C59   H26   S    
C6    C60   S    
C61   H29   S    
C1    O8    A    
C54   H14   S    
C28   O2    A    
C28   O3    A    
C42   N4    A    
C39   C43   A    
C21   C34   A    
C58   C59   S    
C39   N3    A    
Cu2   O8    S    
C60   C61   S    
C15   C55   S    
C52   H8    S    
C43   C44   S    
C5    C9    A    
C37   C38   S    
C11   N2    A    
C50   H1    S    
C12   C50   A    
C31   C32   A    
C12   C23   A    
Cu1   N4    S    
C55   H22   S    
C53   H17   S    
C17   C18   A    
Cu1   O1    S    
C48   H12   S    
C34   C45   A    
C52   H7    S    
C16   O11   A    
C26   H34   S    
C60   H32   S    
C39   C46   S    
C28   C64   S    
C48   C49   A    
C57   H19   S    
C55   C57   S    
C2    C5    A    
C61   H31   S    
C61   H30   S    
C12   H38   S    
C23   C48   A    
C4    O9    A    
C14   C19   A    
C29   H36   S    
C3    C26   A    
C55   H21   S    
C3    C5    A    
Cu1   O11   S    
C6    C7    A    
C37   H39   S    
C24   C56   A    
C40   O4    S    
C30   C36   A    
C32   C33   A    
C44   H3    S    
C16   C35   S    
C32   F2    S    
C54   H13   S    
C47   O6    S    
C38   C53   S    
C19   N2    S    
C33   C35   A    
Cu1   O2    S    
Cu2   O10   S    
C25   C62   A    
C13   N2    A    
C27   F1    S    
C10   C11   A    
C43   N4    A    
C23   N1    S    
C25   H23   S    
C20   C21   A    
C42   H2    S    
Cu1   Cu2   S    
C57   H20   S    
C14   C15   A    
C3    C22   A    
C58   H28   S    
C41   N3    A    
C46   F7    S    
Cu2   O12   S    
