data_mof_unit_44648.cif
_audit_creation_date              2012-12-11T18:09:17-0500
_audit_creation_method            fapswitch 2.2
_symmetry_space_group_name_H-M    P1
_symmetry_Int_Tables_number       1
_space_group_crystal_system       triclinic
_cell_length_a                    8.324547
_cell_length_b                    12.754126
_cell_length_c                    19.030009
_cell_angle_alpha                 100.3008
_cell_angle_beta                  91.121855
_cell_angle_gamma                 98.647308
_cell_volume                      1963.05479927

loop_
_atom_site_label
_atom_site_type_symbol
_atom_type_description
_atom_site_fract_x
_atom_site_fract_y
_atom_site_fract_z
_atom_type_partial_charge
Ba1   Ba    Ba6+2 0.853180 0.547790 0.465300 1.658462
Ba2   Ba    Ba6+2 0.336650 0.452300 0.534710 1.650550
Br1   Br    Br    0.661009 0.150005 0.857572 -0.674718
C1    C     C_3   0.730543 0.813219 0.161788 -0.351299
C2    C     C_R   0.018157 0.548983 0.728536 0.047885
C3    C     C_R   0.842121 0.426016 0.815245 -0.167354
C4    C     C_3   0.156835 0.797038 0.275969 0.283390
C5    C     C_R   0.777808 0.432097 0.748036 0.015012
C6    C     C_R   0.333267 0.593929 0.193126 -0.143069
C7    C     C_R   0.402294 0.576145 0.256680 0.050236
C8    C     C_R   0.119548 0.445920 0.198673 -0.161782
C9    C     C_R   0.165415 0.454481 0.271854 0.014530
C10   C     C_R   0.974023 0.502901 0.848944 -0.007490
C11   C     C_R   0.873555 0.484040 0.702500 -0.253953
C12   C     C_3   0.728724 0.784699 0.236523 0.700720
C13   C     C_R   0.198108 0.521349 0.157442 0.015536
C14   C     C_R   0.311734 0.514655 0.298306 -0.217959
C15   C     C_R   0.748887 0.452625 0.966721 -0.038943
C16   C     C_3   0.177131 0.855904 0.212561 0.268917
C17   C     C_R   0.645453 0.412940 0.015372 -0.029075
C18   C     C_R   0.695451 0.432242 0.086497 -0.086368
C19   C     C_R   0.852282 0.484103 0.107292 -0.062612
C20   C     C_R   0.972592 0.496689 0.056640 0.019957
C21   C     C_R   0.917777 0.485616 0.982872 0.031389
C22   C     C_R   0.141176 0.523631 0.079279 0.037755
C23   C     C_3   0.592840 0.251264 0.315314 0.274640
C24   C     C_R   0.252267 0.548618 0.025277 0.043516
C25   C     C_R   0.197059 0.535821 0.951579 0.004972
C26   C     C_R   0.029227 0.508190 0.928633 -0.013937
C27   C     C_R   0.421263 0.584448 0.040848 -0.076288
C28   C     C_3   0.227176 0.789653 0.620818 0.333647
C29   C     C_R   0.522985 0.623203 0.991118 -0.093510
C30   C     C_R   0.472391 0.599537 0.919988 -0.066523
C31   C     C_R   0.316531 0.545559 0.900771 -0.076433
C32   C     C_R   0.764964 0.182751 0.527561 -0.284315
C33   C     C_R   0.430358 0.808736 0.474461 -0.270855
C34   C     C_3   0.593420 0.206591 0.235638 -0.365636
C35   C     C_R   0.398068 0.985548 0.454338 -0.117321
C36   C     C_R   0.337702 0.876834 0.449270 -0.014845
C37   C     C_R   0.578496 0.849980 0.511817 0.059633
C38   C     C_R   0.641296 0.962360 0.519659 -0.074896
C39   C     C_R   0.550993 0.029816 0.488066 -0.060000
C40   C     C_3   0.225874 0.910244 0.639297 0.324906
C41   C     C_R   0.615750 0.139638 0.491124 0.035251
C42   C     C_R   0.855564 0.118159 0.558666 -0.028097
C43   C     C_R   0.792175 0.009084 0.555941 -0.114569
C44   C     C_3   0.123780 0.199165 0.309379 0.704223
C45   C     C_3   0.085478 0.252026 0.731693 0.338421
C46   C     C_3   0.139109 0.167356 0.228880 -0.307108
C47   C     C_3   0.726072 0.705873 0.679837 0.323254
C48   C     C_3   0.702348 0.730500 0.759856 -0.379222
C49   C     C_3   0.050528 0.948285 0.732236 0.270404
C50   C     C_3   0.009759 0.110170 0.398555 0.322546
C51   C     C_3   0.604541 0.912057 0.309433 0.070157
C52   C     C_3   0.215238 0.836398 0.091709 0.135552
C53   C     C_3   0.104193 0.232130 0.807739 -0.361455
C54   C     C_3   0.558676 0.183535 0.718765 0.353061
C55   C     C_3   0.545114 0.097813 0.765835 0.073003
C56   C     C_R   0.054094 0.571388 0.803503 -0.153773
H1    H     H_    0.836362 0.833635 0.267712 0.038193
H2    H     H_    0.834507 0.784421 0.132622 0.108528
H3    H     H_    0.774953 0.809147 0.784444 0.108623
H4    H     H_    0.741347 0.666558 0.785709 0.056694
H5    H     H_    0.571882 0.733719 0.769596 0.138791
H6    H     H_    0.742719 0.901865 0.165196 0.059873
H7    H     H_    0.551536 0.331319 0.323028 0.062252
H8    H     H_    0.716775 0.258307 0.337846 0.099168
H9    H     H_    0.477960 0.214064 0.208529 0.087612
H10   H     H_    0.694489 0.253528 0.211736 0.113615
H11   H     H_    0.610754 0.120715 0.226411 0.111029
H12   H     H_    0.321511 0.947001 0.681396 -0.043612
H13   H     H_    0.616148 0.774831 0.130835 0.110772
H14   H     H_    0.291053 0.915664 0.222529 0.039157
H15   H     H_    0.178355 0.321459 0.725207 0.098638
H16   H     H_    0.962408 0.271742 0.723634 -0.038982
H17   H     H_    0.095968 0.306621 0.846665 0.092917
H18   H     H_    0.006802 0.167495 0.817267 0.146791
H19   H     H_    0.223903 0.207595 0.816942 0.159489
H20   H     H_    0.690060 0.209510 0.712275 -0.061295
H21   H     H_    0.500445 0.146645 0.665184 0.001899
H22   H     H_    0.595102 0.026159 0.738309 0.038912
H23   H     H_    0.258903 0.946018 0.591666 0.021229
H24   H     H_    0.070846 0.720353 0.260303 0.072989
H25   H     H_    0.416370 0.073632 0.776797 0.086045
H26   H     H_    0.149545 0.637520 0.824554 0.068802
H27   H     H_    0.786512 0.361341 0.840164 0.138448
H28   H     H_    0.388729 0.663011 0.172326 0.134383
H29   H     H_    0.020359 0.383514 0.175971 0.066996
H30   H     H_    0.831245 0.478124 0.647589 0.059382
H31   H     H_    0.360657 0.508744 0.350380 0.059587
H32   H     H_    0.688543 0.462373 0.918838 0.073826
H33   H     H_    0.519561 0.380484 0.999509 0.093646
H34   H     H_    0.238119 0.250610 0.333242 -0.005590
H35   H     H_    0.608301 0.413954 0.125605 0.096071
H36   H     H_    0.276889 0.777857 0.291314 -0.000945
H37   H     H_    0.877677 0.513647 0.163487 0.140389
H38   H     H_    0.484783 0.575953 0.088096 0.060552
H39   H     H_    0.648899 0.656722 0.006166 0.077250
H40   H     H_    0.558073 0.614584 0.879608 0.090332
H41   H     H_    0.290381 0.510344 0.845825 0.127019
H42   H     H_    0.324017 0.033764 0.430904 0.135858
H43   H     H_    0.863090 0.961237 0.580550 0.174133
H44   H     H_    0.815161 0.266393 0.528515 0.067408
H45   H     H_    0.019560 0.127129 0.202880 0.100452
H46   H     H_    0.381117 0.724030 0.469266 0.063686
H47   H     H_    0.073028 0.900456 0.208906 0.045144
H48   H     H_    0.350204 0.774498 0.605750 -0.096596
H49   H     H_    0.137704 0.755445 0.575497 0.057564
H50   H     H_    0.931922 0.976099 0.743107 0.072807
H51   H     H_    0.146197 0.011887 0.761157 0.033123
H52   H     H_    0.048690 0.873311 0.754039 0.038183
H53   H     H_    0.038858 0.189935 0.434760 0.031452
H54   H     H_    0.034691 0.048991 0.429310 0.089721
H55   H     H_    0.878417 0.093393 0.381913 -0.034036
H56   H     H_    0.227278 0.109968 0.217730 0.090651
H57   H     H_    0.670774 0.973015 0.280954 0.037549
H58   H     H_    0.670879 0.913447 0.360872 0.058731
H59   H     H_    0.484350 0.936207 0.320647 0.082612
H60   H     H_    0.122896 0.889239 0.085581 0.029269
H61   H     H_    0.210168 0.776463 0.041402 0.083115
H62   H     H_    0.339657 0.884194 0.098793 0.047287
H63   H     H_    0.181939 0.239256 0.205242 0.008419
H64   H     H_    0.854527 0.697488 0.670766 0.001357
H65   H     H_    0.645926 0.628597 0.658110 0.068522
O1    O     O_2   0.875110 0.423180 0.326290 -0.453191
O2    O     O_2   0.193311 0.124243 0.552205 -0.484096
O3    O     O_3   0.106882 0.159086 0.683169 -0.577964
O4    O     O_3   0.123410 0.433040 0.414950 -0.484989
O5    O     O_3   0.577950 0.634370 0.536140 -0.493800
O6    O     O_2   0.341900 0.231310 0.465740 -0.450262
O7    O     O_3   0.491678 0.180877 0.349456 -0.660700
O8    O     O_2   0.464320 0.473958 0.755168 -0.510118
O9    O     O_3   0.477010 0.268288 0.749626 -0.583945
O10   O     O_3   0.661010 0.625070 0.369680 -0.454688
O11   O     O_2   0.665460 0.483589 0.255292 -0.516482
O12   O     O_3   0.688034 0.791758 0.649224 -0.630556
O13   O     O_3   0.987487 0.252243 0.321740 -0.687234
O14   O     O_3   0.752536 0.675593 0.229644 -0.625043
O15   O     O_2   0.847800 0.768730 0.534310 -0.451755
O16   O     O_3   0.082250 0.684470 0.405440 -0.484455
O17   O     O_2   0.011286 0.876681 0.462493 -0.484558
O18   O     O_3   0.068068 0.930579 0.657555 -0.635097
O19   O     O_3   0.104705 0.102694 0.337789 -0.653884
O20   O     O_3   0.581738 0.806732 0.268289 -0.700817
O21   O     O_3   0.181951 0.780822 0.148782 -0.671908
O22   O     O_3   0.093294 0.863582 0.331946 -0.627001
O23   O     O_2   0.314600 0.576860 0.673750 -0.453064
O24   O     O_3   0.066300 0.567050 0.585060 -0.501570
O25   O     O_3   0.528700 0.375020 0.630330 -0.465522
O26   O     O_3   0.188942 0.747674 0.682182 -0.652700
O27   O     O_3   0.611760 0.365720 0.463870 -0.485411
O28   O     O_3   0.107460 0.315620 0.594570 -0.492334
P1    P     P_3+3 0.042930 0.392230 0.337410 0.937033
P2    P     P_3+3 0.672230 0.754900 0.555730 0.991808
P3    P     P_3+3 0.131946 0.823913 0.412871 0.946630
P4    P     P_3+3 0.146790 0.607860 0.662600 0.973708
P5    P     P_3+3 0.063719 0.177719 0.596297 0.972820
P6    P     P_3+3 0.620149 0.597338 0.277574 0.992374
P7    P     P_3+3 0.520868 0.228282 0.441792 0.925666
P8    P     P_3+3 0.563229 0.386574 0.721607 0.949100

loop_
_geom_bond_atom_site_label_1
_geom_bond_atom_site_label_2
_ccdc_geom_bond_type
C4    H24   S    
C52   H62   S    
C53   H17   S    
C34   H10   S    
C12   H1    S    
C54   H20   S    
C51   O20   S    
C45   H16   S    
Ba1   O4    S    
C9    P1    S    
C54   O9    S    
C46   H45   S    
C44   C46   S    
C52   H60   S    
C42   C43   A    
C43   H43   S    
C27   H38   S    
C16   O21   S    
C28   C40   S    
C15   C21   A    
C23   H8    S    
C10   C26   S    
C25   C26   A    
C6    C13   A    
Ba1   O1    S    
C35   C39   A    
C35   H42   S    
C32   H44   S    
C35   C36   A    
C52   O21   S    
C47   H64   S    
C18   H35   S    
C7    C14   A    
Ba2   O24   S    
C34   H9    S    
C44   O19   S    
Ba2   O27   S    
Ba2   O5    S    
C53   H19   S    
Ba1   Ba2   S    
C38   C39   A    
C21   C26   A    
O22   P3    S    
O1    P1    D    
C51   H57   S    
C9    C14   A    
C31   H41   S    
C38   C43   A    
C49   H51   S    
C6    C7    A    
C7    P6    S    
Ba1   O15   S    
C4    O22   S    
Ba2   P4    S    
Ba2   O25   S    
C25   C31   A    
O11   P6    D    
O26   P4    S    
C34   H11   S    
C24   C27   A    
C54   H21   S    
C37   P2    S    
C48   H3    S    
C39   C41   A    
C50   H54   S    
C47   C48   S    
C52   H61   S    
C47   H65   S    
Ba2   O28   S    
C28   H48   S    
C2    C56   A    
O13   P1    S    
C23   H7    S    
C45   H15   S    
C33   C37   A    
C42   P5    S    
C55   H22   S    
C28   O26   S    
O17   P3    D    
C3    C5    A    
O15   P2    D    
Ba2   O23   S    
C1    H2    S    
C49   O18   S    
C53   H18   S    
C36   P3    S    
O6    P7    D    
C30   H40   S    
O27   P7    S    
O7    P7    S    
C56   H26   S    
C11   H30   S    
Br1   C55   S    
O23   P4    D    
C55   H25   S    
O12   P2    S    
C8    C13   A    
O14   P6    S    
C16   H14   S    
C8    H29   S    
C20   C21   A    
C44   O13   S    
C30   C31   A    
C48   H5    S    
C48   H4    S    
O8    P8    D    
Ba1   P1    S    
C32   C41   A    
C2    C11   A    
Ba1   O16   S    
O4    P1    S    
C50   H53   S    
C37   C38   A    
O10   P6    S    
C4    C16   S    
C51   H59   S    
C17   H33   S    
C15   H32   S    
Ba1   O10   S    
C5    P8    S    
C28   H49   S    
C1    H13   S    
C50   H55   S    
O2    P5    D    
C13   C22   S    
C45   C53   S    
O3    P5    S    
O28   P5    S    
C5    C11   A    
C44   H34   S    
C46   H56   S    
C33   H46   S    
C19   H37   S    
C33   C36   A    
C14   H31   S    
C40   O18   S    
C3    H27   S    
C8    C9    A    
C23   C34   S    
C10   C56   A    
C22   C24   A    
C2    P4    S    
C4    H36   S    
Ba1   O5    S    
C49   H52   S    
O9    P8    S    
C29   C30   A    
C12   O14   S    
C1    C12   S    
C40   H12   S    
O5    P2    S    
C47   O12   S    
C6    H28   S    
C45   O3    S    
C27   C29   A    
C54   C55   S    
C1    H6    S    
C49   H50   S    
C46   H63   S    
Ba2   O6    S    
C29   H39   S    
Ba1   O27   S    
C15   C17   A    
C20   C22   A    
Ba1   P2    S    
O25   P8    S    
O16   P3    S    
C12   O20   S    
C16   H47   S    
C17   C18   A    
C51   H58   S    
C24   C25   A    
C41   P7    S    
C19   C20   A    
Ba1   O24   S    
O24   P4    S    
C50   O19   S    
C18   C19   A    
C23   O7    S    
C40   H23   S    
Ba2   O4    S    
C3    C10   A    
C32   C42   A    
