data_mof_unit_52731.cif
_audit_creation_date              2013-03-05T16:33:11-0500
_audit_creation_method            fapswitch 2.2
_symmetry_space_group_name_H-M    P1
_symmetry_Int_Tables_number       1
_space_group_crystal_system       triclinic
_cell_length_a                    27.792977
_cell_length_b                    10.776621
_cell_length_c                    9.569497
_cell_angle_alpha                 90.042409
_cell_angle_beta                  89.359224
_cell_angle_gamma                 90.996995
_cell_volume                      2865.58839867

loop_
_atom_site_label
_atom_site_type_symbol
_atom_site_description
_atom_site_fract_x
_atom_site_fract_y
_atom_site_fract_z
_atom_type_partial_charge
O1    O     O_R   0.500000 0.319640 0.618810 -0.607242
O2    O     O_R   0.500010 0.319680 0.381230 -0.567462
C1    C     C_R   0.497925 0.262783 0.500061 0.844326
O3    O     O_R   0.430260 0.500000 0.618780 -0.514347
O4    O     O_R   0.430270 0.500040 0.381190 -0.613843
C2    C     C_R   0.407456 0.500645 0.500759 0.804536
Cu1   Cu    Cu3+1 0.500000 0.499980 0.640670 1.003097
Cu2   Cu    Cu3+1 0.500000 0.500020 0.359330 0.961029
O5    O     O_R   0.499990 0.680320 0.618770 -0.559324
O6    O     O_R   0.500000 0.680360 0.381190 -0.594398
O7    O     O_R   0.569730 0.499960 0.618810 -0.553446
O8    O     O_R   0.569740 0.500000 0.381220 -0.577231
C3    C     C_R   0.498717 0.737381 0.500114 0.814296
C4    C     C_R   0.592527 0.499283 0.499319 0.853893
C5    C     C_R   0.177034 0.388977 0.507952 0.582896
O9    O     O_2   0.201275 0.282170 0.520495 -0.504382
N1    N     N_R   0.201761 0.498978 0.494480 -0.475631
C6    C     C_R   0.178542 0.609329 0.483270 0.585556
C7    C     C_R   0.279450 0.461080 0.379527 -0.079783
C8    C     C_R   0.329552 0.462317 0.381771 -0.275119
C9    C     C_R   0.327993 0.539753 0.621146 0.415309
C10   C     C_R   0.277421 0.538347 0.617077 -0.202618
C11   C     C_R   0.253320 0.499198 0.496951 0.295896
C12   C     C_R   0.101662 0.498858 0.497826 -0.132735
C13   C     C_R   0.126607 0.386792 0.510346 -0.086496
C14   C     C_R   0.100841 0.275850 0.532684 -0.216259
C15   C     C_R   0.127731 0.612321 0.485467 -0.053094
C16   C     C_R   0.354339 0.501012 0.501997 -0.075068
H1    H     H_    0.256580 0.567944 0.707062 0.141392
H2    H     H_    0.119423 0.190328 0.553380 0.211535
C17   C     C_R   0.645548 0.497274 0.497726 -0.084209
C18   C     C_R   0.974209 0.381603 0.481164 -0.090799
C19   C     C_R   0.974946 0.607138 0.519167 0.036825
C20   C     C_R   0.949123 0.493629 0.502120 -0.002873
C21   C     C_R   0.948636 0.275153 0.431651 0.463888
C22   C     C_R   0.897721 0.277039 0.425882 0.288379
C23   C     C_R   0.872296 0.383833 0.467439 -0.140351
C24   C     C_R   0.898151 0.493187 0.502858 -0.153235
C25   C     C_R   0.873121 0.603269 0.535667 -0.089867
C26   C     C_R   0.822509 0.601800 0.527071 0.570413
N2    N     N_R   0.798146 0.494334 0.496858 -0.455884
C27   C     C_R   0.821476 0.386901 0.467284 0.661362
C28   C     C_R   0.721838 0.496346 0.368474 0.493092
C29   C     C_R   0.671236 0.497319 0.370305 -0.298405
C30   C     C_R   0.670925 0.494770 0.623710 -0.145753
C31   C     C_R   0.721002 0.493790 0.622499 -0.199980
C32   C     C_R   0.746527 0.494640 0.495664 0.314126
O10   O     O_2   0.795199 0.283901 0.438097 -0.472040
C33   C     C_R   0.024872 0.382342 0.502990 -0.010828
C34   C     C_R   0.050639 0.497088 0.499355 0.006524
C35   C     C_R   0.025632 0.609903 0.500968 0.051412
C36   C     C_R   0.050679 0.273891 0.536542 0.529574
H3    H     H_    0.652099 0.498069 0.272401 0.195759
O11   O     O_2   0.204787 0.715272 0.470311 -0.438567
C37   C     C_R   0.102463 0.724575 0.476339 0.457699
H4    H     H_    0.348943 0.431882 0.289466 0.185605
H5    H     H_    0.260864 0.430846 0.286319 0.160121
C38   C     C_R   0.949464 0.714029 0.556927 -0.224058
C39   C     C_R   0.899686 0.711902 0.571307 0.424582
O12   O     O_2   0.797564 0.707116 0.544114 -0.491750
C40   C     C_R   0.052016 0.722027 0.485021 -0.307802
H6    H     H_    0.967785 0.799435 0.585315 0.156865
H7    H     H_    0.652152 0.493230 0.723407 0.215260
H8    H     H_    0.740144 0.492131 0.720412 0.166942
H9    H     H_    0.033856 0.809083 0.474294 0.130560
C41   C     C_R   0.519452 0.065412 0.599469 -0.007343
C42   C     C_R   0.492774 0.129663 0.502371 -0.282876
C43   C     C_R   0.460251 0.063217 0.415314 0.393052
C44   C     C_R   0.460567 0.932783 0.415500 0.393752
C45   C     C_R   0.493531 0.870327 0.502356 -0.262844
C46   C     C_R   0.519853 0.938157 0.599748 -0.002053
C47   C     C_3   0.572344 0.934311 0.632395 -0.467035
C48   C     C_3   0.571974 0.075489 0.632450 0.270740
H10   H     H_    0.578741 0.896355 0.737763 0.174747
H11   H     H_    0.594151 0.892262 0.547033 0.204924
H12   H     H_    0.578925 0.118035 0.736290 0.147899
C49   C     C_R   0.538364 0.547721 0.072482 0.168056
N3    N     N_R   0.500300 0.500930 0.147930 -0.252136
C50   C     C_R   0.464231 0.443171 0.076846 -0.046344
H13   H     H_    0.435149 0.397891 0.134295 0.175413
C51   C     C_R   0.464194 0.441101 0.929017 0.473949
N4    N     N_R   0.500310 0.500890 0.852020 -0.273407
C52   C     C_R   0.538525 0.547096 0.925239 0.158107
C53   C     C_3   0.558748 0.675952 0.918168 0.179147
C54   C     C_3   0.557641 0.677704 0.077736 0.124700
H14   H     H_    0.534332 0.743069 0.868335 0.094962
H15   H     H_    0.531963 0.745801 0.122555 0.104268
O13   O     O_3   0.352013 0.580674 0.738599 -0.675567
H16   H     H_    0.328189 0.603963 0.811519 0.332808
O14   O     O_3   0.127325 0.836055 0.460127 -0.650593
H17   H     H_    0.104297 0.905251 0.457022 0.329912
O15   O     O_3   0.878616 0.817854 0.621753 -0.701272
H18   H     H_    0.855510 0.791778 0.696168 0.357693
O16   O     O_3   0.427742 0.120851 0.329687 -0.655994
H19   H     H_    0.422796 0.206766 0.362652 0.311801
O17   O     O_3   0.428218 0.871094 0.330309 -0.654013
H20   H     H_    0.422888 0.785599 0.365458 0.325838
O18   O     O_3   0.600185 0.129787 0.524715 -0.693659
H21   H     H_    0.591508 0.089741 0.434673 0.339871
O19   O     O_3   0.426370 0.379332 0.867478 -0.688393
H22   H     H_    0.438801 0.338848 0.782773 0.361775
O20   O     O_3   0.605396 0.676067 0.860847 -0.678285
H23   H     H_    0.619218 0.760020 0.878267 0.350860
O21   O     O_3   0.603682 0.683195 0.136119 -0.682384
H24   H     H_    0.598908 0.704558 0.236104 0.333738
O22   O     O_3   0.747942 0.497800 0.244888 -0.691383
H25   H     H_    0.725313 0.499223 0.165529 0.335979
O23   O     O_3   0.873471 0.178451 0.366835 -0.660638
H26   H     H_    0.859638 0.130399 0.446541 0.354720
O24   O     O_3   0.974541 0.183531 0.362082 -0.552341
C55   C     C_3   0.959587 0.061702 0.399904 -0.097895
H27   H     H_    0.934727 0.022831 0.320529 0.197908
H28   H     H_    0.943209 0.055450 0.506609 0.156911
H29   H     H_    0.991629 0.001812 0.399074 0.165331
O25   O     O_3   0.027838 0.167036 0.584107 -0.585995
C56   C     C_3   0.016962 0.181356 0.727453 -0.335093
H30   H     H_    0.991485 0.258463 0.745703 0.165202
H31   H     H_    0.050252 0.196361 0.789448 0.181721
H32   H     H_    0.999182 0.094671 0.765645 0.203890

loop_
_geom_bond_atom_site_label_1
_geom_bond_atom_site_label_2
_geom_bond_distance
_ccdc_geom_bond_type
C38   H6    1.080097 S    
C19   C38   1.407535 A    
C26   O12   1.349046 S    
C10   H1    1.083326 S    
C22   O23   1.372969 S    
C53   O20   1.402068 S    
N2    C27   1.364731 A    
C7    C8    1.392727 A    
C35   C40   1.409951 A    
C12   C15   1.414743 A    
C4    C17   1.474041 S    
C8    H4    1.083211 S    
C44   O17   1.381913 S    
C51   N4    1.388258 A    
Cu1   Cu2   2.692282 S    
C49   N3    1.363682 A    
C7    H5    1.082858 S    
Cu1   O7    1.946938 S    
N1    C11   1.433398 S    
C22   C23   1.415385 A    
C53   H14   1.111699 S    
C37   O14   1.383416 S    
C44   C45   1.422166 A    
C47   H11   1.112606 S    
C24   C25   1.418853 A    
O7    C4    1.301144 A    
C15   C37   1.412548 A    
C5    C13   1.401241 A    
O22   H25   0.991730 S    
C49   C52   1.409004 A    
C5    O9    1.349870 S    
O18   H21   0.993647 S    
O23   H26   0.992394 S    
C5    N1    1.365318 A    
C23   C27   1.413413 A    
O5    C3    1.292823 A    
O24   C55   1.416269 S    
O15   H18   0.991094 S    
C29   H3    1.082600 S    
C2    C16   1.476280 S    
C41   C46   1.371618 A    
C56   H31   1.114038 S    
C43   C44   1.405812 A    
C45   C46   1.390603 A    
C41   C42   1.388100 A    
C9    O13   1.381755 S    
C49   C54   1.492019 S    
O1    Cu1   1.954528 S    
C9    C10   1.406355 A    
Cu2   N3    2.022947 S    
O16   H19   0.989278 S    
O3    Cu1   1.951903 S    
O21   H24   0.991961 S    
N1    C6    1.367700 A    
C54   H15   1.114775 S    
C12   C34   1.417795 A    
C48   O18   1.409584 S    
C1    C42   1.439380 S    
C17   C29   1.406073 A    
C42   C43   1.420316 A    
C18   C21   1.422684 A    
C12   C13   1.408792 A    
C47   H10   1.105788 S    
C25   C26   1.409810 A    
C50   C51   1.414822 A    
N3    C50   1.359411 A    
C8    C16   1.406821 A    
C38   C39   1.388564 A    
C30   C31   1.391934 A    
C41   C48   1.498988 S    
C30   H7    1.082259 S    
C43   O16   1.382169 S    
C31   H8    1.082959 S    
O1    C1    1.292014 A    
C28   O22   1.380467 S    
C18   C20   1.417605 A    
C7    C11   1.396529 A    
C28   C29   1.406534 A    
C23   C24   1.412593 A    
C14   C36   1.394023 A    
C52   C53   1.490273 S    
Cu2   O8    1.951897 S    
C33   C36   1.420683 A    
C25   C39   1.416661 A    
O17   H20   0.989215 S    
C34   C35   1.410856 A    
N2    C32   1.434883 S    
C55   H28   1.114922 S    
C27   O10   1.348835 S    
C53   C54   1.527064 S    
C54   O21   1.402268 S    
C21   O24   1.396265 S    
O3    C2    1.301322 A    
C26   N2    1.363784 A    
C9    C16   1.414834 A    
O8    C4    1.301770 A    
C14   H2    1.083738 S    
C48   H12   1.111540 S    
C36   O25   1.380237 S    
Cu1   O5    1.954881 S    
C31   C32   1.398959 A    
C55   H27   1.109524 S    
C20   C24   1.416525 A    
O2    Cu2   1.954883 S    
C6    C15   1.413044 A    
C47   C48   1.521635 S    
O6    C3    1.293382 A    
O4    Cu2   1.946941 S    
C51   O19   1.372555 S    
C19   C35   1.417290 A    
C56   H32   1.109439 S    
O2    C1    1.292581 A    
C13   C14   1.398249 A    
C46   C47   1.496650 S    
C3    C45   1.442547 S    
O14   H17   0.991796 S    
O4    C2    1.302004 A    
C37   C40   1.403416 A    
O19   H22   0.982446 S    
C19   C20   1.417676 A    
C56   H30   1.113506 S    
C55   H29   1.108839 S    
C39   O15   1.376897 S    
O20   H23   0.991472 S    
C18   C33   1.425676 A    
C6    O11   1.349131 S    
C50   H13   1.081846 S    
C40   H9    1.078518 S    
Cu1   N4    2.022645 S    
O13   H16   0.991742 S    
Cu2   O6    1.954527 S    
C33   C34   1.418404 A    
C17   C30   1.404053 A    
C10   C11   1.398144 A    
C21   C22   1.417278 A    
N4    C52   1.365542 A    
C28   C32   1.404195 A    
O25   C56   1.410283 S    
