data_mof_unit_16619.cif
_audit_creation_date              2012-12-10T16:50:05-0500
_audit_creation_method            fapswitch 2.2
_symmetry_space_group_name_H-M    P1
_symmetry_Int_Tables_number       1
_space_group_crystal_system       triclinic
_cell_length_a                    7.75705
_cell_length_b                    8.657985
_cell_length_c                    10.652255
_cell_angle_alpha                 89.621134
_cell_angle_beta                  86.103263
_cell_angle_gamma                 93.672096
_cell_volume                      712.247438349

loop_
_atom_site_label
_atom_site_type_symbol
_atom_type_description
_atom_site_fract_x
_atom_site_fract_y
_atom_site_fract_z
_atom_type_partial_charge
C1    C     C_R   0.545445 0.794284 0.503267 0.990823
C2    C     C_R   0.454343 0.206030 0.508558 0.798213
C3    C     C_R   0.499319 0.509557 0.260444 0.968764
C4    C     C_R   0.424066 0.783907 0.861764 -0.161323
C5    C     C_R   0.381426 0.918937 0.922178 -0.171528
C6    C     C_R   0.381554 0.927150 0.051851 -0.224175
C7    C     C_R   0.422628 0.798839 0.123575 0.442768
C8    C     C_R   0.459006 0.657087 0.063102 0.049494
C9    C     C_2   0.732874 0.012559 0.577617 0.946270
C10   C     C_R   0.462665 0.651871 0.930958 0.027651
C11   C     C_R   0.509328 0.514853 0.870622 -0.050200
C12   C     C_R   0.554682 0.386318 0.935886 -0.182893
C13   C     C_R   0.547545 0.388507 0.064150 -0.235116
C14   C     C_R   0.498000 0.520346 0.127587 -0.089376
C15   C     C_2   0.566052 0.955675 0.525778 -0.421249
C16   C     C_2   0.428024 0.042849 0.510801 0.163548
C17   C     C_R   0.502528 0.500324 0.739316 0.829274
H1    H     H_    0.590694 0.282477 0.887738 0.161214
H2    H     H_    0.195445 0.056042 0.448161 0.371005
H3    H     H_    0.985684 0.616434 0.592711 0.218217
H4    H     H_    0.428073 0.785057 0.760366 0.143867
H5    H     H_    0.350869 0.018631 0.868009 0.156446
H6    H     H_    0.351445 0.034994 0.096719 0.135125
H7    H     H_    0.579791 0.286091 0.114614 0.149769
H8    H     H_    0.014316 0.383532 0.407327 0.195184
H9    H     H_    0.419110 0.922543 0.274062 0.338870
H10   H     H_    0.614010 0.106704 0.729306 0.270081
N1    N     N_2   0.950330 0.457950 0.466250 -0.150421
N2    N     N_2   0.049670 0.542050 0.533750 -0.138011
O1    O     O_R   0.389250 0.738570 0.508280 -0.511017
O2    O     O_2   0.870320 0.982928 0.523479 -0.551359
O3    O     O_R   0.734576 0.096643 0.688998 -0.753329
O4    O     O_3   0.265906 0.977622 0.484292 -0.682539
O5    O     O_R   0.678390 0.711630 0.486650 -0.610163
O6    O     O_R   0.355400 0.513470 0.694050 -0.622263
O7    O     O_R   0.644540 0.486530 0.672420 -0.613975
O8    O     O_R   0.321610 0.288370 0.513350 -0.623396
O9    O     O_R   0.610750 0.261430 0.491720 -0.617869
O10   O     O_R   0.355460 0.513470 0.327580 -0.598277
O11   O     O_R   0.644600 0.486530 0.305950 -0.619366
O12   O     O_3   0.432578 0.813156 0.251164 -0.764356
Zn1   Zn    Zn3+2 0.306930 0.517990 0.514440 1.027358
Zn2   Zn    Zn3+2 0.693070 0.482010 0.485560 1.008261

loop_
_geom_bond_atom_site_label_1
_geom_bond_atom_site_label_2
_ccdc_geom_bond_type
C3    O11   A    
C11   C12   A    
C6    C7    A    
C1    C15   S    
C17   O7    A    
N2    Zn1   S    
C2    C16   S    
C2    O9    A    
N1    Zn2   S    
C9    C15   S    
C3    O10   A    
C7    C8    A    
C13   C14   A    
H8    N1    S    
C4    H4    S    
C2    O8    A    
C3    C14   S    
C6    H6    S    
N1    N2    D    
C1    O5    A    
O10   Zn1   S    
H3    N2    S    
C7    O12   S    
C5    C6    A    
C16   O4    S    
C10   C11   A    
C9    O2    D    
C4    C10   A    
C15   C16   D    
O9    Zn2   S    
C12   C13   A    
H9    O12   S    
C8    C10   A    
H2    O4    S    
C12   H1    S    
O8    Zn1   S    
O6    Zn1   S    
C1    O1    A    
O7    Zn2   S    
C8    C14   A    
C17   O6    A    
C9    O3    S    
H10   O3    S    
O5    Zn2   S    
O11   Zn2   S    
O1    Zn1   S    
C5    H5    S    
C13   H7    S    
C4    C5    A    
C11   C17   S    
