data_mof_unit_20169.cif
_audit_creation_date              2012-12-11T14:46:02-0500
_audit_creation_method            fapswitch 2.2
_symmetry_space_group_name_H-M    P1
_symmetry_Int_Tables_number       1
_space_group_crystal_system       triclinic
_cell_length_a                    10.868529
_cell_length_b                    11.022353
_cell_length_c                    18.82748
_cell_angle_alpha                 90.736196
_cell_angle_beta                  89.99208
_cell_angle_gamma                 119.766897
_cell_volume                      1957.65502201

loop_
_atom_site_label
_atom_site_type_symbol
_atom_type_description
_atom_site_fract_x
_atom_site_fract_y
_atom_site_fract_z
_atom_type_partial_charge
C1    C     C_R   0.864031 0.640771 0.602531 0.556280
C2    C     C_R   0.305474 0.547894 0.790511 0.354645
C3    C     C_R   0.303092 0.545449 0.717755 -0.108649
C4    C     C_R   0.305158 0.655219 0.680030 -0.033666
C5    C     C_R   0.781802 0.052678 0.810230 -0.028903
C6    C     C_R   0.000373 0.026810 0.797997 -0.060201
C7    C     C_R   0.101102 0.020322 0.754765 -0.109087
C8    C     C_R   0.099721 0.037795 0.682149 -0.107379
C9    C     C_R   0.004358 0.072708 0.653042 -0.087360
C10   C     C_R   0.910445 0.093036 0.696959 0.001596
C11   C     C_R   0.896902 0.055975 0.769938 0.013926
C12   C     C_R   0.267464 0.630152 0.605059 0.544543
C13   C     C_R   0.742318 0.173544 0.717506 0.006856
C14   C     C_R   0.688910 0.088577 0.775260 -0.017928
C15   C     C_R   0.711033 0.282672 0.712574 0.303289
C16   C     C_R   0.584053 0.265888 0.739225 -0.039602
C17   C     C_R   0.503463 0.153173 0.782170 -0.178165
C18   C     C_R   0.558837 0.068911 0.802605 -0.107299
C19   C     C_R   0.837618 0.160043 0.672038 -0.039295
C20   C     C_R   0.703605 0.619724 0.703096 -0.129237
C21   C     C_R   0.686420 0.620079 0.776640 -0.135048
C22   C     C_R   0.802853 0.658388 0.822623 0.038457
C23   C     C_R   0.861236 0.225355 0.602064 0.546869
C24   C     C_R   0.935084 0.695515 0.795253 -0.121508
C25   C     C_R   0.952845 0.700153 0.722869 -0.082559
C26   C     C_R   0.838208 0.661517 0.676206 0.094070
C27   C     C_R   0.376899 0.589427 0.291619 0.179756
C28   C     C_R   0.385987 0.595958 0.218674 -0.146588
C29   C     C_R   0.370671 0.696966 0.181024 -0.061246
C30   C     C_R   0.349455 0.795675 0.217686 -0.111944
C31   C     C_R   0.331746 0.785632 0.291020 0.327184
C32   C     C_R   0.338929 0.678076 0.327856 0.070003
C33   C     C_R   0.780158 0.268073 0.271513 -0.125631
C34   C     C_R   0.864087 0.639736 0.398020 0.535178
C35   C     C_R   0.768437 0.234508 0.200155 -0.115210
C36   C     C_R   0.856700 0.189134 0.169037 0.028104
C37   C     C_R   0.970037 0.197479 0.208353 -0.149228
C38   C     C_R   0.984903 0.236506 0.280077 -0.129539
C39   C     C_R   0.884604 0.264529 0.312686 0.025817
C40   C     C_R   0.893894 0.801611 0.301278 -0.097992
C41   C     C_R   0.877650 0.821984 0.230225 -0.126018
C42   C     C_R   0.782209 0.710010 0.187492 0.027405
C43   C     C_R   0.694925 0.579088 0.218171 -0.136266
C44   C     C_R   0.711032 0.558766 0.289725 -0.119814
C45   C     C_R   0.274421 0.635301 0.397579 0.585753
C46   C     C_R   0.815974 0.667842 0.330666 0.041884
C47   C     C_R   0.764599 0.033770 0.888345 0.558945
C48   C     C_R   0.389581 0.697367 0.898044 0.546694
C49   C     C_R   0.794658 0.692613 0.896180 0.542711
C50   C     C_R   0.810208 0.111285 0.101597 0.556572
C51   C     C_R   0.402640 0.707484 0.105700 0.552640
C52   C     C_R   0.774292 0.733523 0.111756 0.558122
C53   C     C_R   0.888251 0.293486 0.388827 0.556187
C54   C     C_R   0.305706 0.766394 0.717259 -0.169016
C55   C     C_R   0.305009 0.766967 0.791266 -0.216801
C56   C     C_R   0.321781 0.666692 0.827863 0.032211
Cr1   Cr    Cr6+3 0.791660 0.390250 0.499930 1.054288
Cr2   Cr    Cr6+3 0.098520 0.708290 0.500540 1.057027
Cr3   Cr    Cr6+3 0.109770 0.401430 0.499480 1.035333
Cr4   Cr    Cr6+3 0.874790 0.925890 0.000070 1.013557
Cr5   Cr    Cr6+3 0.574120 0.948670 0.999300 1.006012
Cr6   Cr    Cr6+3 0.551420 0.625320 0.000920 1.053794
H1    H     H_    0.299530 0.848648 0.689435 0.139064
H2    H     H_    0.552646 0.343405 0.730978 0.144976
H3    H     H_    0.408247 0.141602 0.806441 0.130023
H4    H     H_    0.613368 0.586203 0.667850 0.105366
H5    H     H_    0.583889 0.594627 0.797532 0.165711
H6    H     H_    0.025917 0.727441 0.829889 0.119328
H7    H     H_    0.055815 0.728101 0.702785 0.133211
H8    H     H_    0.408904 0.522255 0.191715 0.140532
H9    H     H_    0.343933 0.878088 0.189673 0.157665
H10   H     H_    0.293831 0.846484 0.819768 0.107275
H11   H     H_    0.703358 0.290833 0.295186 0.130435
H12   H     H_    0.682035 0.233471 0.170946 0.141975
H13   H     H_    0.041933 0.167221 0.184903 0.121858
H14   H     H_    0.070355 0.238209 0.310455 0.157263
H15   H     H_    0.973867 0.889153 0.331976 0.159244
H16   H     H_    0.943267 0.924248 0.207981 0.125374
H17   H     H_    0.617894 0.491263 0.186605 0.120103
H18   H     H_    0.646147 0.456669 0.312145 0.131312
H19   H     H_    0.294565 0.453566 0.691400 0.165845
H20   H     H_    0.175909 0.993893 0.777460 0.091129
H21   H     H_    0.173647 0.025531 0.648439 0.120383
H22   H     H_    0.009770 0.009475 0.852633 0.183507
H23   H     H_    0.006401 0.084591 0.596160 0.136722
H24   H     H_    0.505304 0.997712 0.843947 0.175858
O1    O     O_R   0.766500 0.250040 0.579790 -0.476444
O2    O     O_R   0.218690 0.701900 0.425960 -0.445192
O3    O     O_R   0.249490 0.516440 0.419420 -0.468085
O4    O     O_R   0.982880 0.281910 0.424890 -0.507326
O5    O     O_3   0.999980 0.499990 0.499980 -0.286956
O6    O     O_R   0.895110 0.806860 0.920430 -0.552054
O7    O     O_R   0.872260 0.046970 0.925000 -0.502490
O8    O     O_R   0.691430 0.085060 0.918550 -0.503530
O9    O     O_R   0.451490 0.822460 0.925250 -0.555308
O10   O     O_R   0.413330 0.603360 0.920440 -0.430490
O11   O     O_R   0.676110 0.626250 0.926750 -0.484709
O12   O     O_R   0.798570 0.516780 0.574780 -0.449042
O13   O     O_R   0.895350 0.809870 0.080950 -0.505847
O14   O     O_R   0.872490 0.049760 0.073800 -0.512656
O15   O     O_R   0.691680 0.088070 0.079070 -0.515872
O16   O     O_R   0.451720 0.825250 0.074050 -0.501200
O17   O     O_R   0.413580 0.606370 0.080960 -0.525408
O18   O     O_R   0.676340 0.629040 0.075550 -0.503862
O19   O     O_3   0.666780 0.833290 0.000090 -0.300935
O20   O     O_R   0.984000 0.732950 0.581090 -0.545346
O21   O     O_R   0.218600 0.700890 0.574760 -0.503379
O22   O     O_R   0.249390 0.515350 0.579940 -0.527983
O23   O     O_R   0.982790 0.280900 0.573700 -0.512418
O24   O     O_R   0.766600 0.251130 0.419260 -0.500358
O25   O     O_R   0.798660 0.517790 0.425980 -0.527599
O26   O     O_R   0.984100 0.734040 0.420570 -0.491051
O27   O     O_3   0.813047 0.412271 0.692609 -0.685918
H25   H     H_    0.907946 0.420879 0.697945 0.315233
O28   O     O_3   0.398596 0.493015 0.327863 -0.675841
H26   H     H_    0.407087 0.428478 0.293649 0.311085
F1    F     F_    0.301573 0.877022 0.325032 -0.618846
F2    F     F_    0.298728 0.435762 0.823537 -0.628860

loop_
_geom_bond_atom_site_label_1
_geom_bond_atom_site_label_2
_ccdc_geom_bond_type
C53   O24   A    
C55   C56   A    
C35   H12   S    
C48   O9    A    
Cr6   O10   S    
C8    H21   S    
C34   O26   A    
C41   C42   A    
C14   C18   A    
Cr5   O15   S    
C35   C36   A    
Cr4   O13   S    
C30   H9    S    
C2    F2    S    
C7    C8    A    
Cr6   O19   S    
C38   H14   S    
C51   O16   A    
C40   C46   A    
C5    C47   S    
C18   H24   S    
Cr2   O26   S    
C20   H4    S    
C28   C29   A    
C29   C51   S    
C5    C11   A    
Cr3   O3    S    
C38   C39   A    
C54   H1    S    
C43   H17   S    
C15   C16   A    
C48   O10   A    
Cr2   O21   S    
C32   C45   S    
C39   C53   S    
C31   F1    S    
C9    H23   S    
Cr1   O24   S    
C8    C9    A    
C3    H19   S    
C15   O27   S    
C34   C46   S    
C4    C12   S    
C29   C30   A    
Cr5   O19   S    
C9    C10   A    
C55   H10   S    
C1    O20   A    
Cr4   O7    S    
C37   H13   S    
C23   O1    A    
C21   C22   A    
C21   H5    S    
C34   O25   A    
Cr3   O23   S    
C44   C46   A    
Cr6   O18   S    
Cr4   O6    S    
C23   O23   A    
C6    H22   S    
C13   C19   A    
C44   H18   S    
C45   O2    A    
C24   C25   A    
C6    C11   A    
C12   O22   A    
Cr5   O8    S    
C16   C17   A    
Cr3   O5    S    
C25   C26   A    
Cr1   O1    S    
Cr2   O20   S    
Cr3   O4    S    
C19   C23   S    
C43   C44   A    
C37   C38   A    
Cr6   O11   S    
C31   C32   A    
C10   C19   A    
C17   C18   A    
C47   O7    A    
C33   C39   A    
C5    C14   A    
C22   C49   S    
C33   H11   S    
C40   C41   A    
C13   C15   A    
C1    C26   S    
C22   C24   A    
C25   H7    S    
C42   C43   A    
C49   O6    A    
C3    C4    A    
C41   H16   S    
C36   C50   S    
O27   H25   S    
Cr2   O5    S    
C48   C56   S    
C54   C55   A    
C52   O18   A    
C45   O3    A    
Cr1   O5    S    
C4    C54   A    
C27   C32   A    
C50   O14   A    
C28   H8    S    
Cr4   O14   S    
Cr2   O2    S    
C1    O12   A    
Cr6   O17   S    
C12   O21   A    
Cr5   O9    S    
C6    C7    A    
C52   O13   A    
C17   H3    S    
Cr3   O22   S    
Cr5   O16   S    
C2    C56   A    
C30   C31   A    
Cr1   O25   S    
C20   C26   A    
Cr1   O12   S    
C33   C35   A    
C47   O8    A    
C2    C3    A    
C10   C11   A    
C24   H6    S    
C49   O11   A    
C7    H20   S    
C20   C21   A    
C50   O15   A    
C36   C37   A    
C53   O4    A    
C40   H15   S    
C16   H2    S    
C13   C14   A    
C51   O17   A    
Cr4   O19   S    
O28   H26   S    
C42   C52   S    
C27   C28   A    
C27   O28   S    
