data_mof_unit_5795.cif
_audit_creation_date              2013-03-05T16:00:50-0500
_audit_creation_method            fapswitch 2.2
_symmetry_space_group_name_H-M    P1
_symmetry_Int_Tables_number       1
_space_group_crystal_system       triclinic
_cell_length_a                    8.310807
_cell_length_b                    12.774097
_cell_length_c                    18.752656
_cell_angle_alpha                 100.154955
_cell_angle_beta                  90.960875
_cell_angle_gamma                 98.672228
_cell_volume                      1935.32359564

loop_
_atom_site_label
_atom_site_type_symbol
_atom_site_description
_atom_site_fract_x
_atom_site_fract_y
_atom_site_fract_z
_atom_type_partial_charge
P1    P     P_3+3 0.041040 0.394770 0.336330 0.500772
O1    O     O_2   0.873090 0.425890 0.325140 -0.318077
O2    O     O_3   0.122420 0.434370 0.414380 -0.357013
O3    O     O_3   0.659500 0.627100 0.368810 -0.296793
O4    O     O_2   0.776555 0.545826 0.243506 -0.392284
O5    O     O_3   0.995211 0.254135 0.319089 -0.583968
O6    O     O_3   0.700537 0.737420 0.251246 -0.533540
H1    H     H_    0.723333 0.854905 0.342940 0.130364
C1    C     C_3   0.583652 0.897423 0.257426 -1.034547
H2    H     H_    0.529275 0.958620 0.294728 0.247417
H3    H     H_    0.692327 0.937265 0.233431 0.286972
P2    P     P_3+3 0.672880 0.754030 0.556100 0.482856
P3    P     P_3+3 0.130791 0.822898 0.402599 0.476018
O7    O     O_2   0.848200 0.768190 0.534530 -0.367251
O8    O     O_3   0.081160 0.685950 0.404810 -0.378110
O9    O     O_2   0.001464 0.879062 0.446142 -0.339306
O10   O     O_3   0.670953 0.787980 0.651368 -0.641030
O11   O     O_3   0.096302 0.844252 0.314364 -0.539604
C2    C     C_3   0.134642 0.756571 0.264800 0.444090
H4    H     H_    0.050159 0.681921 0.268751 0.147376
H5    H     H_    0.261908 0.744122 0.274255 0.008918
C3    C     C_3   0.116169 0.779372 0.188431 -0.918595
H6    H     H_    0.151312 0.712832 0.148453 0.221753
H7    H     H_    0.987645 0.786937 0.176256 0.286088
C4    C     C_3   0.312419 0.802543 0.669137 0.015085
H8    H     H_    0.381652 0.749579 0.632939 0.113089
C5    C     C_3   0.416817 0.858769 0.737548 0.040899
H9    H     H_    0.471291 0.797255 0.760097 0.160265
H10   H     H_    0.517201 0.918282 0.723330 0.119140
Ba1   Ba    Ba6+2 0.852780 0.548340 0.465070 1.648571
C6    C     C_3   0.954937 0.217113 0.383344 0.412117
H11   H     H_    0.855912 0.256946 0.409062 0.103722
H12   H     H_    0.062054 0.233171 0.421710 0.122361
C7    C     C_3   0.898671 0.096192 0.365148 -0.984469
H13   H     H_    0.776620 0.080105 0.337504 0.272763
H14   H     H_    0.892407 0.060711 0.414841 0.242184
H15   H     H_    0.984110 0.056323 0.329036 0.288171
C8    C     C_3   0.815608 0.784347 0.689969 0.174102
H16   H     H_    0.900750 0.744628 0.654403 0.105705
C9    C     C_3   0.894189 0.901575 0.723628 -0.102215
H17   H     H_    0.847015 0.958925 0.694029 0.091870
H18   H     H_    0.026397 0.911163 0.715761 0.178117
P4    P     P_3+3 0.148670 0.605320 0.663680 0.471210
O12   O     O_2   0.316610 0.574140 0.674900 -0.335616
O13   O     O_3   0.067290 0.565720 0.585630 -0.399300
O14   O     O_3   0.530210 0.372990 0.631200 -0.345892
O15   O     O_3   0.169390 0.745712 0.690122 -0.610550
P5    P     P_3+3 0.062276 0.175863 0.596456 0.490427
O16   O     O_3   0.611340 0.366290 0.463630 -0.299758
O17   O     O_3   0.108550 0.314140 0.595200 -0.411634
O18   O     O_2   0.189025 0.120809 0.550405 -0.314497
O19   O     O_3   0.103183 0.154188 0.684263 -0.476612
Ba2   Ba    Ba6+2 0.337060 0.451750 0.534940 1.622489
P6    P     P_3+3 0.642734 0.610566 0.274022 0.508566
C10   C     C_3   0.631543 0.814478 0.299125 0.462196
H19   H     H_    0.520538 0.780553 0.324651 0.022502
H20   H     H_    0.492725 0.857763 0.213164 0.269253
O20   O     O_3   0.578370 0.633800 0.536380 -0.304959
C11   C     C_3   0.383084 0.203193 0.309295 0.493530
H21   H     H_    0.296630 0.244366 0.343689 0.112595
H22   H     H_    0.424291 0.254736 0.269199 0.084642
C12   C     C_3   0.295639 0.097137 0.266349 -1.060727
H23   H     H_    0.259900 0.039366 0.303012 0.276614
H24   H     H_    0.184923 0.110896 0.237659 0.262257
H25   H     H_    0.376762 0.062132 0.225358 0.275336
P7    P     P_3+3 0.521822 0.229698 0.441526 0.476066
O21   O     O_2   0.341510 0.231850 0.465510 -0.396939
O22   O     O_3   0.521839 0.185300 0.346876 -0.576454
H26   H     H_    0.195712 0.855449 0.183260 0.261121
C13   C     C_3   0.087184 0.247914 0.733897 0.440606
H27   H     H_    0.179128 0.316218 0.725121 0.160259
H28   H     H_    0.964061 0.269741 0.728506 -0.008316
C14   C     C_3   0.114530 0.229570 0.810885 -0.812183
H29   H     H_    0.240247 0.213722 0.819368 0.307163
H30   H     H_    0.096587 0.301979 0.850266 0.188353
H31   H     H_    0.027428 0.160003 0.821439 0.281158
P8    P     P_3+3 0.553252 0.389857 0.724919 0.492667
C15   C     C_3   0.599840 0.193875 0.719231 0.423285
H32   H     H_    0.696141 0.227937 0.685556 0.007400
O23   O     O_2   0.426303 0.458776 0.757862 -0.387636
O24   O     O_3   0.488733 0.262844 0.745766 -0.515612
H33   H     H_    0.532272 0.122214 0.683682 0.165417
H34   H     H_    0.752361 0.227615 0.818033 0.244061
C16   C     C_3   0.679264 0.158154 0.782257 -0.923357
H35   H     H_    0.761851 0.101621 0.760732 0.231121
H36   H     H_    0.586052 0.118388 0.814454 0.319962
C17   C     C_R   0.992943 0.450700 0.048049 0.037427
C18   C     C_R   0.899732 0.394065 0.095633 -0.188410
C19   C     C_R   0.766272 0.421242 0.954768 -0.186049
C20   C     C_R   0.931289 0.457246 0.977521 0.059116
C21   C     C_R   0.709929 0.421832 0.884573 -0.161993
C22   C     C_R   0.815744 0.456527 0.833022 -0.045995
C23   C     C_R   0.978434 0.502092 0.855597 -0.017121
C24   C     C_R   0.035912 0.504072 0.928505 0.043323
C25   C     C_R   0.763181 0.448149 0.759759 0.222155
C26   C     C_R   0.872012 0.484045 0.709854 -0.487233
C27   C     C_R   0.028293 0.538411 0.731783 0.254417
C28   C     C_R   0.081942 0.548672 0.805996 -0.051612
C29   C     C_R   0.155217 0.498190 0.070988 0.046343
C30   C     C_R   0.215041 0.495777 0.142889 0.004810
C31   C     C_R   0.112565 0.446118 0.191766 -0.067561
C32   C     C_R   0.958916 0.390914 0.165122 -0.015034
H37   H     H_    0.830055 0.476586 0.653984 0.178812
H38   H     H_    0.582331 0.392296 0.871062 0.182550
H39   H     H_    0.881724 0.343893 0.197466 0.164267
C33   C     C_R   0.232986 0.607418 0.833226 0.069972
C34   C     C_R   0.290328 0.608533 0.903589 -0.164941
C35   C     C_R   0.197256 0.553019 0.951731 0.016890
C36   C     C_R   0.258279 0.548242 0.022686 0.055314
C37   C     C_R   0.421494 0.589111 0.046410 -0.199530
C38   C     C_R   0.377613 0.542817 0.165601 -0.067511
C39   C     C_R   0.479072 0.586681 0.115954 -0.118079
C40   C     C_R   0.435477 0.542696 0.236855 0.061779
C41   C     C_R   0.331678 0.495078 0.284436 -0.015921
C42   C     C_R   0.169119 0.450450 0.264780 0.041285
H40   H     H_    0.310853 0.652826 0.800535 0.173029
H41   H     H_    0.605913 0.618389 0.129582 0.181111
H42   H     H_    0.675897 0.393563 0.990601 0.137759
H43   H     H_    0.780642 0.348452 0.080042 0.128752
H44   H     H_    0.408413 0.655693 0.918844 0.142617
H45   H     H_    0.510400 0.621866 0.011859 0.139501
C43   C     C_R   0.759446 0.183504 0.532058 -0.499236
C44   C     C_R   0.426475 0.810065 0.473520 -0.480733
C45   C     C_R   0.402092 0.984878 0.447352 -0.206345
C46   C     C_R   0.338310 0.876843 0.442662 0.271579
C47   C     C_R   0.577244 0.849202 0.510284 0.222502
C48   C     C_R   0.642186 0.960975 0.516932 -0.049413
C49   C     C_R   0.552368 0.029157 0.484905 -0.022995
C50   C     C_R   0.614192 0.140405 0.492028 0.260351
C51   C     C_R   0.853664 0.117204 0.559539 0.181528
C52   C     C_R   0.794357 0.007017 0.553219 -0.223881
H46   H     H_    0.329187 0.033814 0.423627 0.166269
H47   H     H_    0.871167 0.958575 0.574882 0.201458
H48   H     H_    0.805973 0.268427 0.537049 0.155395
H49   H     H_    0.370574 0.728770 0.473990 0.204418
N1    N     N_R   0.321603 0.913003 0.793067 0.286780
O25   O     O_R   0.295239 0.010158 0.790879 -0.350654
O26   O     O_R   0.291842 0.873786 0.851821 -0.319376
C53   C     C_2   0.774824 0.716806 0.747603 0.965019
O27   O     O_2   0.645164 0.656042 0.743334 -0.624454
O28   O     O_R   0.883450 0.725378 0.806832 -0.750940
H50   H     H_    0.834498 0.685393 0.845395 0.325958
N2    N     N_R   0.867573 0.933083 0.801217 0.262040
O29   O     O_R   0.721570 0.934051 0.824718 -0.418837
O30   O     O_R   0.990846 0.960800 0.847778 -0.265671
N3    N     N_R   0.398001 0.483795 0.352248 0.244835
O31   O     O_R   0.514183 0.426619 0.352399 -0.366145
O32   O     O_R   0.382700 0.555765 0.408798 -0.359275
C54   C     C_2   0.263334 0.881702 0.625699 0.916317
O33   O     O_2   0.314996 0.977675 0.641128 -0.574049
O34   O     O_R   0.153144 0.845179 0.567423 -0.734034
H51   H     H_    0.133566 0.763796 0.554283 0.323157

loop_
_geom_bond_atom_site_label_1
_geom_bond_atom_site_label_2
_geom_bond_distance
_ccdc_geom_bond_type
P7    O22   1.765543 S    
C10   H19   1.111487 S    
C47   C48   1.431091 A    
Ba2   O20   2.828489 S    
C5    H10   1.110277 S    
C7    H15   1.107127 S    
C53   O28   1.397969 S    
C14   H29   1.107922 S    
Ba1   O13   2.811988 S    
C2    H4    1.110211 S    
O6    C10   1.407027 S    
C21   H38   1.080609 S    
C17   C18   1.414773 A    
C49   C50   1.418421 A    
C41   C42   1.401068 A    
C9    N2    1.469376 S    
C24   C35   1.417819 A    
C23   C24   1.435396 A    
P3    O11   1.749624 S    
C5    N1    1.459005 S    
C22   C23   1.415172 A    
C2    H5    1.108968 S    
C16   H36   1.108091 S    
P1    O1    1.528804 D    
C54   O34   1.381438 S    
C37   H45   1.076692 S    
C8    H16   1.098966 S    
C7    H13   1.105353 S    
C44   C46   1.395609 A    
P2    C47   1.866747 S    
C33   C34   1.392349 A    
N2    O29   1.298947 A    
C29   C36   1.424081 A    
P6    C40   1.871010 S    
C27   C28   1.431805 A    
C35   C36   1.430640 A    
C45   H46   1.076609 S    
C32   H39   1.079605 S    
C4    C54   1.502059 S    
O11   C2    1.403707 S    
C43   H48   1.082397 S    
C12   H24   1.110189 S    
C37   C39   1.388717 A    
O28   H50   1.013321 S    
O12   Ba2   2.830185 S    
P4    Ba2   3.392798 S    
P5    O18   1.545869 D    
C38   C39   1.399835 A    
P2    O10   1.763488 S    
O34   H51   1.012552 S    
C6    H12   1.106177 S    
C13   H27   1.107282 S    
C1    C10   1.517038 S    
C19   C21   1.391385 A    
C1    H2    1.108580 S    
C4    O15   1.396803 S    
C43   C50   1.395468 A    
N3    O32   1.296903 A    
C45   C49   1.411614 A    
P7    C50   1.846037 S    
P3    C46   1.851839 S    
P5    O17   1.754600 S    
P7    O21   1.574585 D    
O13   Ba2   2.935563 S    
C11   H21   1.103962 S    
C14   H30   1.107966 S    
P5    C51   1.852473 S    
O7    Ba1   2.886020 S    
H1    C10   1.110991 S    
C20   C24   1.422163 A    
C17   C29   1.419035 A    
Ba1   Ba2   4.618286 S    
C11   H22   1.109672 S    
O17   Ba2   2.781961 S    
C13   H28   1.107928 S    
O16   P7    1.764347 S    
N3    O31   1.295787 A    
P1    O5    1.749761 S    
C31   C32   1.400115 A    
O4    P6    1.542770 D    
C2    C3    1.520703 S    
C16   H35   1.100692 S    
C41   N3    1.416606 S    
N1    O26   1.300959 A    
C21   C22   1.402286 A    
C15   H32   1.112412 S    
C44   C47   1.398517 A    
C4    H8    1.103693 S    
P2    Ba1   3.426636 S    
P8    C25   1.850314 S    
C22   C25   1.415549 A    
C44   H49   1.073408 S    
P1    O2    1.567838 S    
O2    Ba1   2.934651 S    
P4    O12   1.529144 D    
C12   H23   1.106881 S    
C11   O22   1.409864 S    
C1    H3    1.110405 S    
C15   H33   1.102246 S    
H34   C16   1.104683 S    
P8    O24   1.743877 S    
C34   C35   1.414196 A    
C26   C27   1.395600 A    
C13   C14   1.521597 S    
C6    C7    1.520546 S    
C38   C40   1.412824 A    
C18   H43   1.077438 S    
P4    O13   1.567837 S    
C9    H17   1.105080 S    
Ba1   O16   2.829123 S    
P2    O7    1.511759 D    
P3    O8    1.743778 S    
C31   C42   1.429171 A    
C14   H31   1.107121 S    
C3    H7    1.110463 S    
C17   C20   1.431073 A    
C48   C49   1.428980 A    
C34   H44   1.076749 S    
C5    H9    1.104199 S    
O8    Ba1   2.781317 S    
C40   C41   1.403308 A    
C8    C53   1.510071 S    
N2    O30   1.299595 A    
C11   C12   1.520166 S    
C3    H26   1.110174 S    
C12   H25   1.110164 S    
O3    P6    1.753300 S    
C6    H11   1.105365 S    
P4    C27   1.879431 S    
N1    O25   1.299841 A    
C52   H47   1.074483 S    
O14   P8    1.736246 S    
C18   C32   1.394477 A    
C53   O27   1.221903 D    
C4    C5    1.537616 S    
C28   C33   1.399633 A    
C29   C30   1.436296 A    
O1    Ba1   2.829838 S    
C51   C52   1.402920 A    
P3    O9    1.546651 D    
P2    O20   1.593321 S    
C54   O33   1.217812 D    
C8    C9    1.557345 S    
O2    Ba2   2.812646 S    
C15   O24   1.408052 S    
C39   H41   1.079956 S    
P8    O23   1.542739 D    
O16   Ba2   2.917867 S    
Ba1   O20   2.918781 S    
O14   Ba2   2.806729 S    
C9    H18   1.102383 S    
P1    Ba1   3.392193 S    
C7    H14   1.104509 S    
O5    C6    1.397985 S    
C1    H20   1.109908 S    
O10   C8    1.403883 S    
Ba2   O21   2.886255 S    
C48   C52   1.419171 A    
O19   C13   1.405948 S    
C15   C16   1.515150 S    
P5    O19   1.753273 S    
C19   H42   1.077647 S    
C30   C38   1.419005 A    
C26   H37   1.082074 S    
C33   H40   1.075426 S    
C25   C26   1.399565 A    
C3    H6    1.107850 S    
C30   C31   1.426931 A    
P1    C42   1.896145 S    
O6    P6    1.747917 S    
C19   C20   1.412567 A    
C36   C37   1.412352 A    
P4    O15   1.755614 S    
C23   C28   1.423674 A    
C43   C51   1.391521 A    
O3    Ba1   2.807393 S    
C45   C46   1.388631 A    
