data_mof_unit_26535.cif
_audit_creation_date              2012-12-11T15:28:43-0500
_audit_creation_method            fapswitch 2.2
_symmetry_space_group_name_H-M    P1
_symmetry_Int_Tables_number       1
_space_group_crystal_system       triclinic
_cell_length_a                    6.95478
_cell_length_b                    19.630471
_cell_length_c                    23.222994
_cell_angle_alpha                 95.716094
_cell_angle_beta                  90.513359
_cell_angle_gamma                 89.392885
_cell_volume                      3154.49164549

loop_
_atom_site_label
_atom_site_type_symbol
_atom_type_description
_atom_site_fract_x
_atom_site_fract_y
_atom_site_fract_z
_atom_type_partial_charge
O1    O     O_R   0.617180 0.809390 0.808140 -0.532476
O2    O     O_R   0.382820 0.190610 0.191860 -0.521402
O3    O     O_R   0.293300 0.672410 0.795490 -0.527689
O4    O     O_R   0.706700 0.327590 0.204510 -0.539053
O5    O     O_R   0.117220 0.690610 0.691850 -0.520325
O6    O     O_R   0.882780 0.309390 0.308150 -0.520079
C1    C     C_R   0.463177 0.648808 0.806938 0.717047
C2    C     C_R   0.538067 0.352729 0.195104 0.751248
O7    O     O_R   0.287840 0.807750 0.814460 -0.524691
O8    O     O_R   0.712160 0.192250 0.185540 -0.532692
O9    O     O_R   0.111720 0.826910 0.710960 -0.535315
O10   O     O_R   0.888280 0.173090 0.289040 -0.524778
C3    C     C_R   0.456214 0.831387 0.832775 0.706817
C4    C     C_R   0.543552 0.169297 0.166752 0.731082
O11   O     O_R   0.622680 0.673080 0.789040 -0.546586
O12   O     O_R   0.377320 0.326920 0.210960 -0.523632
O13   O     O_3   0.448820 0.756130 0.716020 -0.353647
O14   O     O_3   0.551180 0.243870 0.283980 -0.358528
V1    V     V_3+5 0.176220 0.748860 0.756300 1.449723
V2    V     V_3+5 0.823780 0.251140 0.243700 1.462983
O15   O     O_R   0.781670 0.827580 0.704500 -0.530313
O16   O     O_R   0.218330 0.172420 0.295500 -0.538595
C5    C     C_R   0.949697 0.851719 0.693715 0.796473
C6    C     C_R   0.050828 0.148118 0.306147 0.785519
O17   O     O_R   0.787130 0.692240 0.685530 -0.523961
O18   O     O_R   0.212870 0.307760 0.314470 -0.531009
C7    C     C_R   0.956114 0.669234 0.666802 0.749004
C8    C     C_R   0.043881 0.330779 0.333188 0.742328
V3    V     V_3+5 0.675510 0.751130 0.743690 1.436511
V4    V     V_3+5 0.324490 0.248870 0.256310 1.472843
O19   O     O_3   0.952780 0.743870 0.783980 -0.373584
O20   O     O_3   0.047220 0.256130 0.216020 -0.363943
C9    C     C_1   0.966704 0.617168 0.614745 -0.174912
C10   C     C_1   0.033273 0.382855 0.385237 -0.176111
C11   C     C_1   0.978261 0.573658 0.571925 0.030960
C12   C     C_1   0.021703 0.426369 0.428053 0.028417
C13   C     C_1   0.993430 0.521868 0.521309 0.024587
C14   C     C_1   0.006526 0.478161 0.478667 0.023494
C15   C     C_R   0.957898 0.916082 0.665128 -0.249567
C16   C     C_R   0.051114 0.083744 0.334947 -0.245325
C17   C     C_R   0.970997 0.040487 0.671078 0.502638
C18   C     C_R   0.135318 0.962878 0.333574 0.505114
C19   C     C_R   0.962346 0.980164 0.698608 0.184573
C20   C     C_R   0.116334 0.022009 0.304710 0.190914
C21   C     C_R   0.962663 0.913629 0.604253 0.296772
C22   C     C_R   0.002177 0.084762 0.393839 0.296361
C23   C     C_R   0.010379 0.973679 0.576672 -0.139243
C24   C     C_R   0.057156 0.028591 0.426162 -0.137869
C25   C     C_R   0.004605 0.038127 0.610541 -0.184137
C26   C     C_R   0.116076 0.966027 0.394728 -0.179001
C27   C     C_R   0.062645 0.971631 0.516667 -0.077306
C28   C     C_R   0.056357 0.032695 0.488459 -0.079028
C29   C     C_R   0.073511 0.095642 0.523979 0.256952
C30   C     C_R   0.143643 0.912403 0.485519 0.259564
C31   C     C_R   0.039679 0.098783 0.584029 0.385867
C32   C     C_R   0.162262 0.908550 0.424846 0.388247
C33   C     C_R   0.473712 0.584853 0.836091 -0.273741
C34   C     C_R   0.540770 0.417214 0.167077 -0.276329
C35   C     C_R   0.401053 0.463716 0.832103 -0.080140
C36   C     C_R   0.719971 0.520633 0.158710 -0.096138
C37   C     C_R   0.420206 0.522633 0.804054 0.279694
C38   C     C_R   0.655879 0.471117 0.192401 0.266663
C39   C     C_R   0.521560 0.584952 0.896255 0.424322
C40   C     C_R   0.473355 0.418918 0.109679 0.452089
C41   C     C_R   0.522337 0.521750 0.922425 -0.033403
C42   C     C_R   0.558783 0.464587 0.072702 -0.061111
C43   C     C_R   0.447469 0.462518 0.890872 -0.129580
C44   C     C_R   0.680430 0.516806 0.099117 -0.115674
C45   C     C_R   0.586751 0.516776 0.980575 -0.098080
C46   C     C_R   0.528957 0.460908 0.010987 -0.148783
C47   C     C_R   0.469454 0.400425 0.977006 0.428877
C48   C     C_R   0.731971 0.559987 0.006084 0.451890
C49   C     C_R   0.423278 0.401935 0.917674 0.261784
C50   C     C_R   0.770336 0.562990 0.065778 0.271619
H1    H     H_    0.350420 0.417996 0.806745 0.207681
H2    H     H_    0.810133 0.560716 0.179462 0.203409
C51   C     C_1   0.466774 0.883398 0.884869 -0.200347
C52   C     C_1   0.532967 0.117341 0.114624 -0.190548
C53   C     C_1   0.478298 0.926841 0.927730 0.021496
C54   C     C_1   0.521477 0.073919 0.071744 0.020247
C55   C     C_1   0.493393 0.978563 0.978390 0.017846
C56   C     C_1   0.506408 0.022211 0.021072 0.017218
O21   O     O_3   0.050889 0.160622 0.618169 -0.602909
H3    H     H_    0.047937 0.199199 0.593770 0.340143
O22   O     O_3   0.236010 0.849903 0.394490 -0.604827
H4    H     H_    0.235468 0.811242 0.418790 0.338745
O23   O     O_3   0.480323 0.337460 0.998872 -0.529381
C57   C     C_3   0.670168 0.311982 0.992474 -0.199248
H5    H     H_    0.679176 0.262012 0.010876 0.165642
H6    H     H_    0.710329 0.303173 0.946022 0.147419
H7    H     H_    0.774989 0.346789 0.016496 0.115070
O24   O     O_3   0.854221 0.593115 0.971704 -0.563173
C58   C     C_3   0.002881 0.547425 0.951920 -0.271682
H8    H     H_    0.945565 0.501252 0.925930 0.141856
H9    H     H_    0.092408 0.532201 0.988560 0.148856
H10   H     H_    0.097736 0.573856 0.923311 0.185081
O25   O     O_3   0.896186 0.140227 0.417652 -0.620301
H11   H     H_    0.815601 0.124791 0.448744 0.311304
O26   O     O_3   0.911490 0.852712 0.573307 -0.621903
H12   H     H_    0.852812 0.863362 0.536174 0.316098
O27   O     O_3   0.160121 0.016104 0.246354 -0.619862
H13   H     H_    0.115912 0.057215 0.228480 0.278612
O28   O     O_3   0.953095 0.987225 0.758475 -0.619172
H14   H     H_    0.943008 0.942087 0.773546 0.280299
O29   O     O_3   0.959959 0.102221 0.705306 -0.500685
C59   C     C_3   0.764312 0.121090 0.711456 -0.047186
H15   H     H_    0.683914 0.083750 0.734854 0.132335
H16   H     H_    0.694981 0.126647 0.668734 0.114426
H17   H     H_    0.754974 0.171536 0.737487 0.165892
O30   O     O_3   0.187701 0.902623 0.301270 -0.502328
C60   C     C_3   0.018888 0.869871 0.279360 -0.060823
H18   H     H_    0.940923 0.901127 0.249035 0.133101
H19   H     H_    0.921958 0.858083 0.314900 0.121233
H20   H     H_    0.059851 0.820579 0.254778 0.161830
O31   O     O_3   0.147877 0.153238 0.502987 -0.629445
H21   H     H_    0.239781 0.138371 0.471739 0.312942
O32   O     O_3   0.229103 0.860917 0.513571 -0.628914
H22   H     H_    0.281788 0.881313 0.551113 0.313744
O33   O     O_3   0.356766 0.344251 0.884567 -0.641656
H23   H     H_    0.326820 0.308020 0.909767 0.332474
O34   O     O_3   0.901990 0.608777 0.092156 -0.647840
H24   H     H_    0.939779 0.641962 0.064967 0.331943
O35   O     O_3   0.322188 0.376836 0.091410 -0.522911
C61   C     C_3   0.149598 0.414714 0.099943 -0.157028
H25   H     H_    0.142792 0.457657 0.072104 0.124522
H26   H     H_    0.130595 0.434351 0.146237 0.135789
H27   H     H_    0.027280 0.380408 0.087635 0.142512
O36   O     O_3   0.519660 0.645403 0.933260 -0.554659
C62   C     C_3   0.656104 0.693241 0.918181 -0.083036
H28   H     H_    0.722156 0.717984 0.958517 0.164774
H29   H     H_    0.582045 0.734307 0.897229 0.090908
H30   H     H_    0.775136 0.670325 0.890586 0.144715
O37   O     O_3   0.714620 0.476130 0.249673 -0.634118
H31   H     H_    0.635062 0.445842 0.271203 0.282980
O38   O     O_3   0.376350 0.517178 0.745562 -0.631763
H32   H     H_    0.422330 0.557832 0.728024 0.287404

loop_
_geom_bond_atom_site_label_1
_geom_bond_atom_site_label_2
_ccdc_geom_bond_type
C34   C38   A    
C42   C44   A    
O23   C57   S    
C39   C41   A    
C58   H8    S    
C49   O33   S    
O13   V3    S    
C60   H18   S    
O4    C2    A    
V1    O19   S    
O36   C62   S    
O25   H11   S    
O35   C61   S    
C23   C25   A    
C42   C46   A    
O22   H4    S    
C7    C9    S    
C16   C22   A    
O9    V1    S    
O27   H13   S    
C17   O29   S    
C38   O37   S    
C11   C13   S    
O3    C1    A    
C48   O24   S    
C52   C54   T    
C59   H15   S    
O12   V4    S    
O31   H21   S    
C35   C43   A    
C36   C38   A    
C21   C23   A    
O7    C3    A    
O30   C60   S    
C6    C16   S    
O5    C7    A    
O7    V1    S    
O6    C8    A    
O26   H12   S    
O8    V2    S    
C41   C43   A    
O3    V1    S    
C46   C47   A    
C43   C49   A    
C10   C12   T    
C39   O36   S    
C15   C21   A    
C62   H30   S    
C2    C34   S    
C24   C26   A    
C8    C10   S    
C2    O12   A    
C34   C40   A    
C17   C19   A    
C18   C20   A    
C17   C25   A    
O11   V3    S    
C22   C24   A    
C29   C31   A    
O17   V3    S    
C3    C51   S    
C35   C37   A    
C27   C28   A    
O38   H32   S    
C48   C50   A    
C21   O26   S    
C53   C55   S    
C15   C19   A    
C1    O11   A    
C55   C56   T    
C25   C31   A    
O15   V3    S    
C36   H2    S    
C26   C32   A    
C40   C42   A    
C45   C48   A    
C13   C14   T    
O21   H3    S    
C57   H7    S    
C24   C28   A    
C20   O27   S    
O10   V2    S    
O1    V3    S    
C51   C53   T    
C60   H19   S    
O34   H24   S    
C18   C26   A    
C61   H27   S    
C47   O23   S    
C54   C56   S    
C22   O25   S    
C57   H6    S    
O18   V4    S    
C58   H10   S    
O15   C5    A    
O8    C4    A    
O14   V4    S    
O16   C6    A    
O1    C3    A    
C31   O21   S    
C35   H1    S    
C28   C29   A    
C37   O38   S    
C61   H26   S    
C62   H28   S    
V2    O20   S    
O16   V4    S    
C33   C39   A    
C23   C27   A    
O33   H23   S    
C30   C32   A    
C33   C37   A    
O5    V1    S    
O17   C7    A    
C40   O35   S    
O6    V2    S    
O29   C59   S    
O10   C6    A    
O18   C8    A    
O2    V4    S    
C27   C30   A    
C12   C14   S    
C18   O30   S    
V3    O19   S    
O32   H22   S    
V4    O20   S    
C9    C11   T    
C32   O22   S    
O37   H31   S    
C59   H16   S    
C41   C45   A    
O9    C5    A    
O24   C58   S    
O13   V1    S    
C1    C33   S    
C60   H20   S    
O14   V2    S    
C4    C52   S    
C45   C46   A    
O2    C4    A    
C19   O28   S    
O4    V2    S    
C16   C20   A    
C50   O34   S    
C57   H5    S    
C36   C44   A    
C58   H9    S    
C30   O32   S    
C47   C49   A    
O28   H14   S    
C44   C50   A    
C5    C15   S    
C29   O31   S    
C61   H25   S    
C62   H29   S    
C59   H17   S    
