data_mof_unit_10503.cif
_audit_creation_date              2013-03-05T15:42:12-0500
_audit_creation_method            fapswitch 2.2
_symmetry_space_group_name_H-M    P1
_symmetry_Int_Tables_number       1
_space_group_crystal_system       triclinic
_cell_length_a                    7.774042
_cell_length_b                    8.577675
_cell_length_c                    16.669997
_cell_angle_alpha                 91.871876
_cell_angle_beta                  80.643023
_cell_angle_gamma                 93.776491
_cell_volume                      1094.16452542

loop_
_atom_site_label
_atom_site_type_symbol
_atom_site_description
_atom_site_fract_x
_atom_site_fract_y
_atom_site_fract_z
_atom_type_partial_charge
O1    O     O_R   0.388470 0.738640 0.505270 -0.610056
O2    O     O_R   0.611530 0.261360 0.494730 -0.615533
O3    O     O_R   0.679650 0.711510 0.491500 -0.623444
O4    O     O_R   0.320350 0.288490 0.508500 -0.627336
C1    C     C_R   0.546208 0.794793 0.497946 0.976853
C2    C     C_R   0.453789 0.205207 0.502088 0.964580
O5    O     O_R   0.337210 0.515200 0.623500 -0.614122
O6    O     O_R   0.662790 0.484800 0.376500 -0.615554
O7    O     O_R   0.628380 0.488060 0.609730 -0.626578
O8    O     O_R   0.371620 0.511940 0.390270 -0.624782
C3    C     C_R   0.476048 0.494860 0.654229 0.885852
C4    C     C_R   0.521633 0.492141 0.345612 0.895328
Zn1   Zn    Zn3+2 0.305580 0.518120 0.509190 0.954165
Zn2   Zn    Zn3+2 0.694420 0.481880 0.490810 0.951350
C5    C     C_R   0.453782 0.446258 0.738169 -0.099594
C6    C     C_R   0.527250 0.451736 0.259869 -0.102403
C7    C     C_R   0.576013 0.351900 0.761651 -0.169177
C8    C     C_R   0.382065 0.471942 0.222836 -0.184430
C9    C     C_R   0.545991 0.287947 0.838018 -0.150026
C10   C     C_R   0.379350 0.417082 0.144183 -0.121144
C11   C     C_R   0.396771 0.322480 0.893622 0.033778
C12   C     C_R   0.520767 0.339040 0.101418 0.037389
C13   C     C_R   0.268949 0.412562 0.869369 0.356824
C14   C     C_R   0.666934 0.314857 0.138894 0.354611
C15   C     C_R   0.298615 0.472482 0.791117 -0.252287
C16   C     C_R   0.669198 0.373915 0.217826 -0.248096
C17   C     C_2   0.388040 0.281930 0.978829 -0.157936
C18   C     C_2   0.530070 0.312746 0.013897 -0.112592
H1    H     H_    0.693023 0.323969 0.720308 0.174012
H2    H     H_    0.270742 0.530758 0.254521 0.176702
H3    H     H_    0.779182 0.353414 0.247652 0.196516
H4    H     H_    0.201696 0.542150 0.772111 0.192818
H5    H     H_    0.655446 0.343501 0.977102 0.224116
H6    H     H_    0.261851 0.253849 0.015408 0.233706
H7    H     H_    0.268934 0.442129 0.116035 0.224714
H8    H     H_    0.642399 0.214644 0.854591 0.186945
C19   C     C_2   0.570528 0.958296 0.496794 -0.373681
C20   C     C_2   0.429462 0.041729 0.503328 -0.368242
H9    H     H_    0.703693 0.009474 0.490564 0.181777
H10   H     H_    0.296296 0.990559 0.509568 0.181767
N1    N     N_2   0.953500 0.457650 0.478520 -0.173396
N2    N     N_2   0.046500 0.542350 0.521480 -0.171842
H11   H     H_    0.022825 0.380409 0.439385 0.194392
H12   H     H_    0.977181 0.619616 0.560596 0.195556
N3    N     N_R   0.112462 0.449141 0.923373 0.212872
O9    O     O_R   0.121252 0.507282 0.995707 -0.382392
O10   O     O_R   0.966351 0.452974 0.895118 -0.408850
N4    N     N_R   0.811280 0.229059 0.098749 0.220575
O11   O     O_R   0.787745 0.119966 0.044793 -0.365527
O12   O     O_R   0.961926 0.245249 0.123521 -0.408174

loop_
_geom_bond_atom_site_label_1
_geom_bond_atom_site_label_2
_geom_bond_distance
_ccdc_geom_bond_type
C20   H10   1.087797 S    
O7    Zn2   1.965213 S    
C2    C20   1.402933 S    
C19   C20   1.336463 D    
C8    H2    1.083494 S    
C1    C19   1.403104 S    
N1    H11   1.029316 S    
N1    N2    1.276164 D    
O6    C4    1.291599 A    
C15   H4    1.083744 S    
N4    O12   1.301323 A    
C11   C17   1.463199 S    
C16   H3    1.083034 S    
C19   H9    1.087815 S    
C12   C18   1.459803 S    
N3    O9    1.300147 A    
O5    C3    1.291601 A    
O7    C3    1.294876 A    
O2    C2    1.275916 A    
O3    Zn2   1.980121 S    
N2    H12   1.029269 S    
C13   N3    1.436853 S    
Zn2   N1    2.014930 S    
O1    C1    1.275922 A    
O8    C4    1.295609 A    
O4    C2    1.286253 A    
Zn1   N2    2.014930 S    
C7    C9    1.381356 A    
C14   C16   1.396815 A    
C18   H5    1.085419 S    
C8    C10   1.381436 A    
C9    H8    1.083591 S    
C13   C15   1.396178 A    
C17   H6    1.084509 S    
C6    C16   1.403382 A    
O2    Zn2   1.957367 S    
C12   C14   1.412387 A    
C5    C15   1.400470 A    
O1    Zn1   1.957368 S    
C14   N4    1.442607 S    
O5    Zn1   1.961759 S    
C7    H1    1.083461 S    
C6    C8    1.394411 A    
N3    O10   1.301169 A    
C17   C18   1.338696 D    
C5    C7    1.397937 A    
N4    O11   1.301577 A    
O6    Zn2   1.961758 S    
C9    C11   1.403674 A    
C10   H7    1.079345 S    
C3    C5    1.453128 S    
C11   C13   1.414258 A    
C4    C6    1.454095 S    
O4    Zn1   1.980122 S    
C10   C12   1.405673 A    
O3    C1    1.286237 A    
O8    Zn1   1.965212 S    
