data_mof_unit_63011.cif
_audit_creation_date              2012-12-10T18:52:40-0500
_audit_creation_method            fapswitch 2.2
_symmetry_space_group_name_H-M    P1
_symmetry_Int_Tables_number       1
_space_group_crystal_system       monoclinic
_cell_length_a                    25.479604
_cell_length_b                    25.50896
_cell_length_c                    60.03219
_cell_angle_alpha                 90.0
_cell_angle_beta                  90.0
_cell_angle_gamma                 90.000286
_cell_volume                      39018.4141091

loop_
_atom_site_label
_atom_site_type_symbol
_atom_type_description
_atom_site_fract_x
_atom_site_fract_y
_atom_site_fract_z
_atom_type_partial_charge
C1    C     C_R   1.000000 0.500000 0.335272 0.025848
C2    C     C_1   0.860364 0.639371 0.249892 0.052543
C3    C     C_R   0.500001 0.000002 0.452802 -0.025034
C4    C     C_R   0.995883 0.547412 0.059063 0.026967
C5    C     C_R   0.995872 0.452584 0.940937 0.026924
C6    C     C_R   0.004115 0.452583 0.059063 0.026937
C7    C     C_R   0.004128 0.547411 0.940937 0.026959
C8    C     C_R   0.504128 0.047416 0.559063 0.026925
C9    C     C_R   0.504117 0.952587 0.440937 0.026967
C10   C     C_R   0.495872 0.952589 0.559063 0.026960
C11   C     C_R   0.495885 0.047417 0.440937 0.026938
C12   C     C_R   0.500001 1.000000 0.023560 0.037192
C13   C     C_1   0.860372 0.639378 0.750111 0.059218
C14   C     C_R   0.500001 1.000000 0.976411 0.037217
C15   C     C_R   0.999999 0.500000 0.523560 0.037183
C16   C     C_R   0.999999 0.500000 0.476411 0.037224
C17   C     C_R   0.991938 0.594611 0.047392 -0.097862
C18   C     C_R   0.991915 0.405386 0.952607 -0.097811
C19   C     C_R   0.008060 0.405384 0.047392 -0.097825
C20   C     C_R   0.008084 0.594609 0.952607 -0.097854
C21   C     C_R   0.508085 0.094614 0.547393 -0.097814
C22   C     C_R   0.508062 0.905389 0.452608 -0.097859
C23   C     C_R   0.491916 0.905391 0.547393 -0.097857
C24   C     C_1   0.139639 0.360632 0.249893 0.052665
C25   C     C_R   0.491940 0.094616 0.452607 -0.097822
C26   C     C_R   1.000000 0.499999 0.164569 0.037143
C27   C     C_R   1.000000 0.499999 0.835431 0.037131
C28   C     C_R   0.500000 0.000001 0.664569 0.037124
C29   C     C_R   0.500000 0.000001 0.335431 0.037136
C30   C     C_R   0.498430 0.048373 0.488184 0.020656
C31   C     C_R   0.498418 0.951632 0.511817 0.020649
C32   C     C_R   0.501571 0.951632 0.488184 0.020663
C33   C     C_R   0.501583 0.048373 0.511817 0.020641
C34   C     C_R   0.001582 0.548368 0.988183 0.020648
C35   C     C_1   0.639635 0.139372 0.749892 0.052408
C36   C     C_R   0.001570 0.451627 0.011816 0.020656
C37   C     C_R   0.998417 0.451627 0.988183 0.020641
C38   C     C_R   0.998429 0.548368 0.011816 0.020663
C39   C     C_R   0.500000 0.000002 0.476482 0.038084
C40   C     C_R   0.500000 0.000003 0.523518 0.038079
C41   C     C_R   1.000000 0.499997 0.976482 0.038079
C42   C     C_R   0.999999 0.499998 0.023518 0.038085
C43   C     C_R   0.493265 0.095207 0.475742 -0.130487
C44   C     C_R   0.493241 0.904799 0.524258 -0.130512
C45   C     C_R   0.506737 0.904797 0.475742 -0.130500
C46   C     C_1   0.360373 0.860621 0.250111 0.058722
C47   C     C_R   0.506760 0.095206 0.524258 -0.130489
C48   C     C_R   0.006759 0.595201 0.975741 -0.130511
C49   C     C_R   0.006735 0.404792 0.024258 -0.130488
C50   C     C_R   0.993240 0.404794 0.975742 -0.130488
C51   C     C_R   0.993263 0.595203 0.024258 -0.130501
C52   C     C_R   0.543976 0.979568 0.011844 0.020335
C53   C     C_R   0.455426 0.019094 0.988126 0.020317
C54   C     C_R   0.456025 0.020432 0.011844 0.020334
C55   C     C_R   0.544575 0.980906 0.988126 0.020322
C56   C     C_R   0.043991 0.479599 0.511844 0.020324
C57   C     C_1   0.360365 0.860628 0.749892 0.052203
C58   C     C_R   0.955410 0.519062 0.488126 0.020329
C59   C     C_R   0.956008 0.520401 0.511844 0.020328
C60   C     C_R   0.044589 0.480937 0.488126 0.020327
C61   C     C_R   0.043388 0.482586 0.417343 0.404218
C62   C     C_R   0.957939 0.520409 0.582628 0.404093
C63   C     C_R   0.956611 0.517414 0.417343 0.404230
C64   C     C_R   0.042060 0.479591 0.582628 0.404096
C65   C     C_R   0.543377 0.982556 0.917343 0.404199
C66   C     C_R   0.457955 0.020437 0.082628 0.404106
C67   C     C_R   0.456624 0.017443 0.917343 0.404203
C68   C     C_1   0.639629 0.139377 0.250110 0.058936
C69   C     C_R   0.542046 0.979563 0.082628 0.404117
C70   C     C_R   0.001005 0.452533 0.370406 -0.051658
C71   C     C_R   0.998965 0.452534 0.629594 -0.051609
C72   C     C_R   0.998994 0.547467 0.370406 -0.051620
C73   C     C_R   0.001034 0.547465 0.629594 -0.051585
C74   C     C_R   0.500988 0.952532 0.870406 -0.051631
C75   C     C_R   0.498945 0.952535 0.129594 -0.051574
C76   C     C_R   0.499013 0.047467 0.870406 -0.051651
C77   C     C_R   0.501056 0.047465 0.129594 -0.051615
C78   C     C_R   0.000977 0.452485 0.347142 -0.128638
C79   C     C_1   0.639635 0.860628 0.250108 0.052620
C80   C     C_R   0.998995 0.452488 0.652858 -0.128828
C81   C     C_R   0.999023 0.547515 0.347142 -0.128597
C82   C     C_R   0.001004 0.547512 0.652858 -0.128811
C83   C     C_R   0.500960 0.952484 0.847142 -0.128609
C84   C     C_R   0.498975 0.952489 0.152858 -0.128809
C85   C     C_R   0.499041 0.047515 0.847142 -0.128620
C86   C     C_R   0.501026 0.047511 0.152858 -0.128855
C87   C     C_R   0.999999 0.500000 0.382156 0.234893
C88   C     C_R   1.000000 0.500000 0.617834 0.234023
C89   C     C_R   0.500001 1.000000 0.882156 0.234861
C90   C     C_1   0.360367 0.139373 0.749891 0.059184
C91   C     C_R   0.500000 0.000000 0.117834 0.234038
C92   C     C_R   0.088142 0.464610 0.452425 -0.101124
C93   C     C_R   0.914735 0.541831 0.547546 -0.101043
C94   C     C_R   0.911856 0.535390 0.452425 -0.101108
C95   C     C_R   0.085264 0.458169 0.547546 -0.101040
C96   C     C_R   0.588117 0.964549 0.952425 -0.101095
C97   C     C_R   0.414767 0.041891 0.047546 -0.101072
C98   C     C_R   0.411884 0.035451 0.952425 -0.101091
C99   C     C_R   0.585234 0.958109 0.047546 -0.101056
C100  C     C_R   0.999999 0.500000 0.452671 -0.025185
C101  C     C_1   0.360361 0.139368 0.250107 0.052742
C102  C     C_R   0.999999 0.500000 0.547299 -0.025212
C103  C     C_R   0.500001 1.000000 0.952672 -0.025202
C104  C     C_R   0.500000 1.000000 0.047299 -0.025191
C105  C     C_R   0.044130 0.482152 0.440766 0.025654
C106  C     C_R   0.957227 0.520877 0.559204 0.025783
C107  C     C_R   0.955869 0.517848 0.440766 0.025665
C108  C     C_R   0.042772 0.479123 0.559204 0.025767
C109  C     C_R   0.544118 0.982121 0.940766 0.025641
C110  C     C_R   0.457243 0.020907 0.059204 0.025801
C111  C     C_R   0.455883 0.017878 0.940766 0.025625
C112  C     C_R   1.000000 0.500000 0.664728 0.025732
C113  C     C_1   0.639628 0.860622 0.749890 0.059141
C114  C     C_R   0.542758 0.979094 0.059204 0.025809
C115  C     C_R   0.585891 0.958173 0.024403 -0.131094
C116  C     C_R   0.411503 0.036003 0.975567 -0.131105
C117  C     C_R   0.414110 0.041827 0.024403 -0.131102
C118  C     C_R   0.588498 0.963997 0.975567 -0.131101
C119  C     C_R   0.085922 0.458234 0.524403 -0.131102
C120  C     C_R   0.911475 0.535941 0.475567 -0.131104
C121  C     C_R   0.914077 0.541766 0.524403 -0.131098
C122  C     C_R   0.088524 0.464059 0.475567 -0.131112
C123  C     C_R   1.000000 0.500000 0.310663 0.514626
C124  C     C_3   0.205379 0.769547 0.258785 -0.111930
C125  C     C_R   1.000000 0.500000 0.689336 0.514596
C126  C     C_R   0.500000 0.000000 0.810663 0.514629
C127  C     C_R   0.500000 0.000000 0.189336 0.514594
C128  C     C_R   0.000000 0.500000 0.189179 0.578720
C129  C     C_R   1.000000 0.500000 0.810821 0.578757
C130  C     C_R   0.500000 0.000000 0.689179 0.578747
C131  C     C_R   0.500000 0.000000 0.310821 0.578725
C132  C     C_R   0.099861 0.400218 0.249887 0.514132
C133  C     C_R   0.900144 0.599786 0.750116 0.519651
C134  C     C_R   0.900139 0.599782 0.249887 0.513735
C135  C     C_3   0.792571 0.232520 0.738901 -0.110713
C136  C     C_R   0.099857 0.400215 0.750116 0.519990
C137  C     C_R   0.099860 0.599782 0.750113 0.513585
C138  C     C_R   0.900144 0.400214 0.249884 0.519687
C139  C     C_R   0.900140 0.400218 0.750113 0.513718
C140  C     C_R   0.099856 0.599786 0.249884 0.519445
C141  C     C_R   0.599856 0.900214 0.749884 0.519610
C142  C     C_R   0.400139 0.099782 0.250113 0.514174
C143  C     C_R   0.400143 0.099785 0.749884 0.519948
C144  C     C_R   0.599860 0.900218 0.250113 0.513778
C145  C     C_R   0.599856 0.099786 0.250116 0.519619
C146  C     C_3   0.794191 0.230885 0.259333 -0.111858
C147  C     C_R   0.400140 0.900218 0.749887 0.513652
C148  C     C_R   0.400144 0.900214 0.250116 0.519377
C149  C     C_R   0.599860 0.099782 0.749887 0.513784
C150  C     C_3   0.233565 0.791150 0.237732 -0.113229
C151  C     C_3   0.768757 0.206557 0.760037 -0.111825
C152  C     C_3   0.767013 0.208281 0.238230 -0.113196
C153  C     C_3   0.231247 0.793439 0.760042 -0.111858
C154  C     C_3   0.231752 0.207068 0.760590 -0.113094
C155  C     C_3   0.768726 0.793412 0.239928 -0.111809
C156  C     C_3   0.766810 0.791519 0.761948 -0.113125
C157  C     C_3   0.207424 0.767485 0.738905 -0.110742
C158  C     C_3   0.230021 0.205357 0.241447 -0.111672
C159  C     C_3   0.731242 0.293443 0.739962 -0.111880
C160  C     C_3   0.266434 0.708850 0.262268 -0.113169
C161  C     C_3   0.268753 0.706561 0.739957 -0.111913
C162  C     C_3   0.732987 0.291718 0.261770 -0.113137
C163  C     C_3   0.731274 0.706587 0.260073 -0.111828
C164  C     C_3   0.268247 0.292931 0.739410 -0.113073
C165  C     C_3   0.269979 0.294643 0.258553 -0.111687
C166  C     C_3   0.733190 0.708481 0.738053 -0.113101
C167  C     C_3   0.241144 0.734519 0.229245 0.264809
C168  C     C_3   0.206896 0.231977 0.739441 -0.111755
C169  C     C_3   0.763152 0.261196 0.770841 0.264543
C170  C     C_3   0.759846 0.264496 0.229197 0.264811
C171  C     C_3   0.236857 0.738796 0.770841 0.264540
C172  C     C_3   0.237874 0.262232 0.770849 0.264818
C173  C     C_3   0.763087 0.738740 0.229157 0.264573
C174  C     C_3   0.759495 0.735154 0.770788 0.264839
C175  C     C_3   0.234140 0.258507 0.229269 0.264494
C176  C     C_3   0.736848 0.238805 0.729158 0.264506
C177  C     C_3   0.258856 0.765481 0.270755 0.264846
C178  C     C_3   0.263143 0.761204 0.729158 0.264502
C179  C     C_3   0.792606 0.767515 0.261066 -0.110672
C180  C     C_3   0.740154 0.235503 0.270803 0.264849
C181  C     C_3   0.736913 0.761260 0.270843 0.264539
C182  C     C_3   0.262126 0.237767 0.729152 0.264852
C183  C     C_3   0.265860 0.241494 0.270731 0.264460
C184  C     C_3   0.740505 0.764846 0.729213 0.264875
C185  C     C_3   0.794346 0.769271 0.740861 -0.111854
C186  C     C_3   0.208962 0.234055 0.262472 -0.110617
C187  C     C_3   0.707429 0.267480 0.761099 -0.110686
C188  C     C_R   0.500000 1.000000 0.835272 0.025849
C189  C     C_3   0.294620 0.730453 0.241214 -0.111951
C190  C     C_3   0.292576 0.732515 0.761094 -0.110714
C191  C     C_3   0.705809 0.269114 0.240667 -0.111880
C192  C     C_3   0.707394 0.732484 0.238935 -0.110613
C193  C     C_3   0.293104 0.268022 0.760560 -0.111810
C194  C     C_3   0.291038 0.265945 0.237528 -0.110557
C195  C     C_3   0.705655 0.730730 0.759139 -0.111907
C196  C     C_3   0.213472 0.713345 0.250029 0.006418
C197  C     C_3   0.786508 0.286675 0.749975 0.007302
C198  C     C_3   0.786523 0.286660 0.250030 0.006357
C199  C     C_R   0.500000 0.000000 0.164728 0.025729
C200  C     C_3   0.213492 0.713325 0.749975 0.007352
C201  C     C_3   0.213488 0.286671 0.749970 0.006275
C202  C     C_3   0.786508 0.713325 0.250026 0.007205
C203  C     C_3   0.786525 0.713342 0.749971 0.006286
C204  C     C_3   0.213503 0.286687 0.250025 0.007194
C205  C     C_3   0.713492 0.213325 0.750025 0.007328
C206  C     C_3   0.286528 0.786655 0.249971 0.006393
C207  C     C_3   0.286508 0.786675 0.750025 0.007378
C208  C     C_3   0.713477 0.213340 0.249970 0.006332
C209  C     C_3   0.713492 0.786674 0.249975 0.007231
C210  C     C_1   0.139627 0.639379 0.249889 0.058809
C211  C     C_3   0.286511 0.213328 0.750031 0.006250
C212  C     C_3   0.286497 0.213314 0.249975 0.007219
C213  C     C_3   0.713475 0.786659 0.750030 0.006259
C214  C     C_1   0.172991 0.672741 0.249944 0.023320
C215  C     C_1   0.826994 0.327274 0.750057 0.020133
C216  C     C_1   0.827005 0.327263 0.249945 0.023467
C217  C     C_1   0.173006 0.672727 0.750057 0.019982
C218  C     C_1   0.173003 0.327271 0.750054 0.023668
C219  C     C_1   0.826994 0.672727 0.249944 0.020331
C220  C     C_1   0.827007 0.672739 0.750056 0.023649
C221  C     C_1   0.860365 0.360628 0.750108 0.052324
C222  C     C_1   0.173014 0.327281 0.249944 0.020415
C223  C     C_1   0.673006 0.172727 0.749943 0.020204
C224  C     C_1   0.327009 0.827259 0.250056 0.023247
C225  C     C_1   0.326994 0.827273 0.749943 0.020054
C226  C     C_1   0.672995 0.172737 0.250055 0.023395
C227  C     C_1   0.673006 0.827273 0.250057 0.020399
C228  C     C_1   0.326997 0.172729 0.749946 0.023601
C229  C     C_1   0.326987 0.172719 0.250057 0.020482
C230  C     C_1   0.672993 0.827262 0.749945 0.023582
C231  C     C_R   0.995292 0.546500 0.082450 0.411786
C232  C     C_1   0.860371 0.360622 0.249889 0.059023
C233  C     C_R   0.995281 0.453497 0.917550 0.411808
C234  C     C_R   0.004706 0.453496 0.082450 0.411773
C235  C     C_R   0.004718 0.546498 0.917550 0.411761
C236  C     C_R   0.504719 0.046503 0.582450 0.411809
C237  C     C_R   0.504708 0.953500 0.417550 0.411786
C238  C     C_R   0.495281 0.953502 0.582450 0.411761
C239  C     C_R   0.495294 0.046504 0.417550 0.411773
C240  C     C_R   0.961171 0.472774 0.129349 -0.023729
C241  C     C_R   0.961178 0.527231 0.870651 -0.023760
C242  C     C_R   0.038828 0.527223 0.129349 -0.023860
C243  C     C_1   0.139635 0.639372 0.750108 0.052119
C244  C     C_R   0.038821 0.472763 0.870650 -0.023787
C245  C     C_R   0.538822 0.972769 0.629349 -0.023763
C246  C     C_R   0.538829 0.027226 0.370651 -0.023731
C247  C     C_R   0.461179 0.027237 0.629350 -0.023791
C248  C     C_R   0.461172 0.972777 0.370651 -0.023861
C249  C     C_R   0.961049 0.472181 0.152593 0.185889
C250  C     C_R   0.961056 0.527825 0.847407 0.185762
C251  C     C_R   0.038950 0.527817 0.152592 0.185675
C252  C     C_R   0.038943 0.472170 0.847407 0.185865
C253  C     C_R   0.538944 0.972174 0.652593 0.185758
C254  C     C_1   0.139633 0.360626 0.750109 0.059262
C255  C     C_R   0.538951 0.027819 0.347407 0.185886
C256  C     C_R   0.461057 0.027830 0.652593 0.185861
C257  C     C_R   0.461050 0.972183 0.347408 0.185672
C258  C     C_R   1.000000 0.499998 0.117636 0.145608
C259  C     C_R   1.000000 0.499997 0.882364 0.145596
C260  C     C_R   0.500000 0.000003 0.617636 0.145591
C261  C     C_R   0.500000 0.000002 0.382364 0.145602
C262  C     C_R   0.999999 0.499998 0.047198 -0.025033
C263  C     C_R   1.000000 0.499997 0.952801 -0.025040
C264  C     C_R   0.500000 0.000003 0.547199 -0.025040
Cl1   Cl    Cl    0.228989 0.713480 0.201444 -0.494952
Cl2   Cl    Cl    0.271011 0.786520 0.298555 -0.494754
Cl3   Cl    Cl    0.281017 0.776497 0.701238 -0.517960
Cl4   Cl    Cl    0.726677 0.215786 0.298669 -0.494335
Cl5   Cl    Cl    0.719117 0.776624 0.298766 -0.516567
Cl6   Cl    Cl    0.278654 0.221078 0.701225 -0.493726
Cl7   Cl    Cl    0.287373 0.229815 0.298504 -0.516838
Cl8   Cl    Cl    0.727495 0.785037 0.701368 -0.493407
Cl9   Cl    Cl    0.087446 0.566122 0.165800 -0.480219
Cl10  Cl    Cl    0.087426 0.433852 0.834198 -0.479706
Cl11  Cl    Cl    0.912555 0.433875 0.165801 -0.479261
Cl12  Cl    Cl    0.781038 0.276476 0.798762 -0.517231
Cl13  Cl    Cl    0.912570 0.566142 0.834199 -0.479613
Cl14  Cl    Cl    0.412574 0.066148 0.665802 -0.479685
Cl15  Cl    Cl    0.412554 0.933878 0.334200 -0.480194
Cl16  Cl    Cl    0.587430 0.933858 0.665801 -0.479593
Cl17  Cl    Cl    0.587445 0.066125 0.334199 -0.479237
Cl18  Cl    Cl    0.773323 0.284214 0.201331 -0.494535
Cl19  Cl    Cl    0.218983 0.723503 0.798762 -0.517751
Cl20  Cl    Cl    0.221346 0.278921 0.798775 -0.493921
Cl21  Cl    Cl    0.780882 0.723375 0.201235 -0.516368
Cl22  Cl    Cl    0.772505 0.714963 0.798632 -0.493609
Cl23  Cl    Cl    0.212627 0.270185 0.201496 -0.516651
Cl24  Cl    Cl    0.718962 0.223524 0.701238 -0.517441
H1    H     H_    0.998275 0.584723 0.338464 0.150752
H2    H     H_    0.987883 0.368417 0.943888 0.178371
H3    H     H_    0.012083 0.368415 0.056112 0.178337
H4    H     H_    0.012117 0.631577 0.943888 0.178296
H5    H     H_    0.512117 0.131582 0.556112 0.178366
H6    H     H_    0.512085 0.868419 0.443888 0.178252
H7    H     H_    0.487883 0.868423 0.556112 0.178290
H8    H     H_    0.487917 0.131585 0.443888 0.178339
H9    H     H_    0.488827 0.133137 0.483390 0.121404
H10   H     H_    0.488793 0.866871 0.516610 0.121453
H11   H     H_    0.511174 0.866868 0.483390 0.121367
H12   H     H_    0.001849 0.584717 0.661536 0.150784
H13   H     H_    0.511207 0.133134 0.516610 0.121497
H14   H     H_    0.011207 0.633129 0.983390 0.121454
H15   H     H_    0.011173 0.366863 0.016610 0.121404
H16   H     H_    0.988793 0.366866 0.983390 0.121499
H17   H     H_    0.988826 0.633132 0.016610 0.121367
H18   H     H_    0.998373 0.584351 0.379331 0.145360
H19   H     H_    0.002035 0.584353 0.620679 0.146413
H20   H     H_    0.001626 0.415649 0.379331 0.145258
H21   H     H_    0.997964 0.415647 0.620678 0.146351
H22   H     H_    0.498406 0.084351 0.879330 0.145294
H23   H     H_    0.001724 0.415277 0.338464 0.150603
H24   H     H_    0.502075 0.084351 0.120679 0.146353
H25   H     H_    0.501595 0.915648 0.879330 0.145356
H26   H     H_    0.497926 0.915649 0.120679 0.146452
H27   H     H_    0.220564 0.824992 0.227501 0.155184
H28   H     H_    0.783701 0.170797 0.768451 0.155163
H29   H     H_    0.780494 0.173965 0.228405 0.155267
H30   H     H_    0.216307 0.829195 0.768460 0.155065
H31   H     H_    0.217238 0.171737 0.769454 0.155488
H32   H     H_    0.783642 0.829146 0.231486 0.155312
H33   H     H_    0.780125 0.825669 0.771918 0.155487
H34   H     H_    0.998151 0.415282 0.661536 0.150693
H35   H     H_    0.214051 0.168589 0.234245 0.155451
H36   H     H_    0.716299 0.329203 0.731548 0.155106
H37   H     H_    0.279436 0.675008 0.272499 0.155254
H38   H     H_    0.283693 0.670805 0.731540 0.155009
H39   H     H_    0.719507 0.326035 0.271594 0.155333
H40   H     H_    0.716358 0.670854 0.268515 0.155312
H41   H     H_    0.282761 0.328262 0.730546 0.155490
H42   H     H_    0.285949 0.331411 0.265756 0.155457
H43   H     H_    0.719875 0.674331 0.728082 0.155495
H44   H     H_    0.331366 0.714844 0.233820 0.156407
H45   H     H_    0.498307 0.084724 0.838464 0.150633
H46   H     H_    0.672403 0.281355 0.770380 0.156362
H47   H     H_    0.669426 0.284356 0.232826 0.156549
H48   H     H_    0.327606 0.718635 0.770371 0.156281
H49   H     H_    0.328576 0.282349 0.769401 0.156738
H50   H     H_    0.672338 0.718582 0.229682 0.156618
H51   H     H_    0.669140 0.715353 0.766823 0.156629
H52   H     H_    0.324784 0.278538 0.227130 0.156701
H53   H     H_    0.827597 0.218645 0.729620 0.156345
H54   H     H_    0.168633 0.785157 0.266180 0.156414
H55   H     H_    0.172394 0.781364 0.729628 0.156263
H56   H     H_    0.501887 0.084716 0.161537 0.150671
H57   H     H_    0.830574 0.215644 0.267173 0.156558
H58   H     H_    0.827661 0.781417 0.270319 0.156553
H59   H     H_    0.171424 0.217651 0.730599 0.156799
H60   H     H_    0.175216 0.221462 0.272871 0.156627
H61   H     H_    0.830860 0.784647 0.733177 0.156683
H62   H     H_    0.122822 0.451166 0.443680 0.175649
H63   H     H_    0.881541 0.558605 0.556290 0.175710
H64   H     H_    0.877177 0.548834 0.443680 0.175639
H65   H     H_    0.118458 0.441395 0.556290 0.175742
H66   H     H_    0.622787 0.951079 0.943680 0.175693
H67   H     H_    0.501694 0.915276 0.838464 0.150726
H68   H     H_    0.381585 0.058688 0.056290 0.175652
H69   H     H_    0.377214 0.048920 0.943680 0.175728
H70   H     H_    0.618416 0.941312 0.056290 0.175647
H71   H     H_    0.619884 0.940382 0.016938 0.119643
H72   H     H_    0.375557 0.049424 0.983033 0.119722
H73   H     H_    0.380117 0.059618 0.016938 0.119647
H74   H     H_    0.624444 0.950575 0.983033 0.119707
H75   H     H_    0.119927 0.440468 0.516938 0.119673
H76   H     H_    0.875519 0.549336 0.483033 0.119691
H77   H     H_    0.880072 0.559532 0.516938 0.119663
H78   H     H_    0.498113 0.915284 0.161537 0.150817
H79   H     H_    0.124480 0.450664 0.483033 0.119700
H80   H     H_    0.068906 0.548342 0.120287 0.188561
H81   H     H_    0.068893 0.451636 0.879712 0.188579
H82   H     H_    0.931094 0.451655 0.120287 0.188626
H83   H     H_    0.931105 0.548358 0.879713 0.188619
H84   H     H_    0.431107 0.048364 0.620288 0.188585
H85   H     H_    0.431094 0.951658 0.379713 0.188568
H86   H     H_    0.568895 0.951642 0.620287 0.188625
H87   H     H_    0.568906 0.048345 0.379713 0.188633
H88   H     H_    0.987915 0.631581 0.056112 0.178250
N1    N     N_R   0.999999 0.499998 0.093676 -0.395170
N2    N     N_R   1.000000 0.499997 0.906323 -0.395176
N3    N     N_R   0.500000 0.000003 0.593676 -0.395174
N4    N     N_R   0.500001 0.000002 0.406324 -0.395171
N5    N     N_R   0.999999 0.500000 0.406120 -0.397832
N6    N     N_R   1.000000 0.500000 0.593860 -0.397573
N7    N     N_R   0.500000 1.000000 0.906120 -0.397858
N8    N     N_R   0.500000 0.000000 0.093860 -0.397538
O1    O     O_3   1.000000 0.500000 0.249900 -0.469836
O2    O     O_R   0.500000 0.957050 0.200150 -0.541781
O3    O     O_R   0.500000 0.957050 0.799850 -0.541826
O4    O     O_R   0.500000 0.042950 0.200150 -0.541894
O5    O     O_R   0.043100 0.500000 0.199950 -0.485603
O6    O     O_R   0.956900 0.500000 0.800050 -0.485489
O7    O     O_R   0.956900 0.500000 0.199950 -0.485572
O8    O     O_R   0.043100 0.500000 0.800050 -0.485668
O9    O     O_R   0.543100 0.000000 0.699950 -0.485494
O10   O     O_R   0.456900 0.000000 0.300050 -0.485600
O11   O     O_R   0.456900 0.000000 0.699950 -0.485674
O12   O     O_3   1.000000 0.500000 0.750100 -0.469827
O13   O     O_R   0.543100 0.000000 0.300050 -0.485570
O14   O     O_R   0.060660 0.396130 0.262970 -0.536625
O15   O     O_R   0.939340 0.603870 0.737030 -0.539631
O16   O     O_R   0.939340 0.603870 0.262970 -0.536894
O17   O     O_R   0.060660 0.396130 0.737030 -0.539412
O18   O     O_R   0.060660 0.603870 0.737030 -0.537196
O19   O     O_R   0.939340 0.396130 0.262970 -0.539923
O20   O     O_R   0.939340 0.396130 0.737030 -0.537211
O21   O     O_R   0.060660 0.603870 0.262970 -0.540020
O22   O     O_R   0.560660 0.896130 0.762970 -0.539822
O23   O     O_3   0.500000 0.000000 0.749900 -0.469821
O24   O     O_R   0.439340 0.103870 0.237030 -0.536430
O25   O     O_R   0.439340 0.103870 0.762970 -0.539603
O26   O     O_R   0.560660 0.896130 0.237030 -0.536698
O27   O     O_R   0.560660 0.103870 0.237030 -0.540084
O28   O     O_R   0.439340 0.896130 0.762970 -0.537038
O29   O     O_R   0.439340 0.896130 0.237030 -0.540181
O30   O     O_R   0.560660 0.103870 0.762970 -0.537053
O31   O     O_R   0.896240 0.560540 0.236830 -0.519062
O32   O     O_R   0.103760 0.439460 0.763170 -0.503271
O33   O     O_R   0.103760 0.439460 0.236830 -0.519583
O34   O     O_3   0.500000 0.000000 0.250100 -0.469841
O35   O     O_R   0.896240 0.560540 0.763170 -0.502748
O36   O     O_R   0.896240 0.439460 0.763170 -0.518908
O37   O     O_R   0.103760 0.560540 0.236830 -0.502678
O38   O     O_R   0.103760 0.560540 0.763170 -0.519174
O39   O     O_R   0.896240 0.439460 0.236830 -0.502673
O40   O     O_R   0.396240 0.060540 0.736830 -0.503228
O41   O     O_R   0.603760 0.939460 0.263170 -0.519108
O42   O     O_R   0.603760 0.939460 0.736830 -0.502704
O43   O     O_R   0.396240 0.060540 0.263170 -0.519629
O44   O     O_R   0.396240 0.939460 0.263170 -0.502656
O45   O     O_R   0.000000 0.542950 0.299850 -0.541805
O46   O     O_R   0.603760 0.060540 0.736830 -0.518930
O47   O     O_R   0.603760 0.060540 0.263170 -0.502651
O48   O     O_R   0.396240 0.939460 0.736830 -0.519196
O49   O     O_2   0.989603 0.591709 0.093880 -0.466988
O50   O     O_2   0.989581 0.408288 0.906120 -0.466685
O51   O     O_2   0.010396 0.408286 0.093880 -0.466744
O52   O     O_2   0.010419 0.591706 0.906120 -0.466974
O53   O     O_2   0.510419 0.091712 0.593880 -0.466697
O54   O     O_2   0.510397 0.908291 0.406120 -0.466985
O55   O     O_2   0.489581 0.908294 0.593880 -0.466986
O56   O     O_R   1.000000 0.457050 0.700150 -0.541874
O57   O     O_2   0.489604 0.091713 0.406120 -0.466742
O58   O     O_2   0.085861 0.466124 0.405874 -0.480309
O59   O     O_2   0.916690 0.539764 0.594086 -0.480871
O60   O     O_2   0.914138 0.533876 0.405874 -0.480322
O61   O     O_2   0.083309 0.460236 0.594086 -0.480781
O62   O     O_2   0.585839 0.966065 0.905874 -0.480269
O63   O     O_2   0.416719 0.039822 0.094086 -0.480942
O64   O     O_2   0.414162 0.033934 0.905874 -0.480173
O65   O     O_2   0.583282 0.960179 0.094086 -0.480946
O66   O     O_R   0.000000 0.457050 0.299850 -0.541917
O67   O     O_R   0.000000 0.542950 0.700150 -0.541802
O68   O     O_R   0.500000 0.042950 0.799850 -0.541898
Zn1   Zn    Zn3+2 0.061590 0.500000 0.231190 1.033395
Zn2   Zn    Zn3+2 1.000000 0.561700 0.731400 0.962690
Zn3   Zn    Zn3+2 0.000000 0.561700 0.268600 0.962663
Zn4   Zn    Zn3+2 0.000000 0.438300 0.731400 0.962874
Zn5   Zn    Zn3+2 0.500000 0.938300 0.768600 0.962685
Zn6   Zn    Zn3+2 0.500000 0.061700 0.231400 0.962941
Zn7   Zn    Zn3+2 0.500000 0.061700 0.768600 0.962868
Zn8   Zn    Zn3+2 0.500000 0.938300 0.231400 0.962669
Zn9   Zn    Zn3+2 0.938410 0.500000 0.768810 1.033829
Zn10  Zn    Zn3+2 0.938410 0.500000 0.231190 1.033746
Zn11  Zn    Zn3+2 0.061590 0.500000 0.768810 1.033257
Zn12  Zn    Zn3+2 0.561590 0.000000 0.731190 1.033845
Zn13  Zn    Zn3+2 0.438410 0.000000 0.268810 1.033373
Zn14  Zn    Zn3+2 0.438410 0.000000 0.731190 1.033274
Zn15  Zn    Zn3+2 0.561590 0.000000 0.268810 1.033725
Zn16  Zn    Zn3+2 0.000000 0.438300 0.268600 0.962936

loop_
_geom_bond_atom_site_label_1
_geom_bond_atom_site_label_2
_ccdc_geom_bond_type
C237  N4    A    
C160  H37   S    
O45   Zn3   S    
C32   C45   A    
C36   C42   A    
O14   Zn16  S    
C74   C83   A    
C198  C216  S    
C113  C230  T    
C156  C185  S    
C147  O28   A    
C2    C134  S    
C242  C251  A    
C90   C228  T    
C93   C121  A    
C160  C189  S    
C12   C104  A    
C82   H12   S    
C193  C211  S    
C246  C255  A    
C194  H52   S    
C97   H68   S    
C46   C224  T    
C180  Cl4   S    
C51   H17   S    
C162  H39   S    
C46   C148  S    
C241  H83   S    
C249  Cl11  S    
C152  H29   S    
O23   Zn12  S    
C8    C264  A    
C61   C105  A    
C71   H21   S    
C90   C143  S    
C72   H18   S    
C160  C196  S    
C85   C188  A    
C240  H82   S    
C43   H9    S    
C3    C39   A    
C240  C249  A    
C84   C199  A    
C66   O63   S    
C242  C258  A    
C47   H13   S    
C215  C221  T    
C190  H48   S    
C141  O42   A    
C156  H33   S    
O11   Zn14  S    
C134  O16   A    
C136  O32   A    
C250  Cl13  S    
C234  O51   S    
C155  C209  S    
C166  C184  S    
C169  C187  S    
C5    C18   A    
C95   C119  A    
C130  O9    A    
C245  C253  A    
C205  C223  S    
C29   C257  A    
C260  N3    S    
C142  O43   A    
C73   C88   A    
C253  Cl16  S    
O37   Zn1   S    
C152  C170  S    
C19   C49   A    
C158  H35   S    
C179  C202  S    
C189  C206  S    
C80   C112  A    
C64   O61   S    
C146  C180  S    
C175  Cl23  S    
C66   C110  A    
O1    Zn16  S    
C176  Cl24  S    
C112  C125  S    
C246  C261  A    
C57   C147  S    
C189  H44   S    
C33   C47   A    
C44   H10   S    
C30   C43   A    
C143  O25   A    
C34   C48   A    
O31   Zn10  S    
C242  H80   S    
C247  H84   S    
C52   C115  A    
C142  O24   A    
C127  O4    A    
C77   C91   A    
C164  C193  S    
C13   C133  S    
O23   Zn7   S    
C135  C197  S    
C187  C205  S    
C62   C106  A    
C238  N3    A    
C96   C109  A    
C162  C198  S    
C138  C232  S    
C124  H54   S    
O32   Zn11  S    
C104  C110  A    
C37   C50   A    
C236  O53   S    
C123  O45   A    
O48   Zn14  S    
C28   C130  S    
C29   C255  A    
C132  O14   A    
O3    Zn5   S    
C133  O15   A    
C3    C11   A    
C95   C108  A    
C68   C226  T    
C194  C212  S    
C71   C88   A    
C137  C243  S    
C22   C45   A    
C4    C262  A    
C164  H41   S    
C5    C263  A    
C83   H67   S    
C146  H57   S    
C252  Cl10  S    
C76   C85   A    
C84   H78   S    
C138  O39   A    
C67   N7    A    
C163  C181  S    
C115  H71   S    
C138  O19   A    
C25   C43   A    
C99   C114  A    
C53   C54   A    
C6    C19   A    
C18   H2    S    
C36   C37   A    
C165  C204  S    
C175  C204  S    
C64   N6    A    
O36   Zn9   S    
O43   Zn13  S    
C75   C84   A    
C239  O57   S    
C11   C25   A    
O41   Zn15  S    
C177  C206  S    
C16   C60   A    
C159  C187  S    
C245  C260  A    
C137  O38   A    
C235  N2    A    
C208  C226  S    
C94   C120  A    
C206  C224  S    
C231  O49   S    
C165  H42   S    
C7    C263  A    
C98   H69   S    
C185  H61   S    
C162  C180  S    
C259  N2    S    
C75   C91   A    
C76   C89   A    
O67   Zn2   S    
C57   C225  T    
C247  C256  A    
C139  C221  S    
C14   C55   A    
C6    C234  A    
C127  O2    A    
C128  O5    A    
C97   C117  A    
C255  Cl17  S    
C169  Cl12  S    
C126  O3    A    
O23   Zn5   S    
C70   C87   A    
C119  H75   S    
C61   O58   S    
C148  O44   A    
C64   C108  A    
C181  Cl5   S    
C179  H58   S    
C167  C189  S    
C94   C107  A    
C33   C40   A    
C183  Cl7   S    
C186  C204  S    
C129  O6    A    
C20   H4    S    
C99   H70   S    
C21   H5    S    
C28   C253  A    
C150  C206  S    
C50   H16   S    
C91   N8    S    
C183  C186  S    
C16   C100  A    
O6    Zn9   S    
C61   N5    A    
C38   C51   A    
C183  C212  S    
C170  C191  S    
O35   Zn9   S    
C171  C190  S    
O34   Zn8   S    
C62   O59   S    
C146  C198  S    
C171  C200  S    
C3    C9    A    
C92   C122  A    
C93   C106  A    
C196  C214  S    
C101  C142  S    
C137  O18   A    
C31   C32   A    
C124  C196  S    
C218  C254  T    
C6    C262  A    
C151  C205  S    
C124  C177  S    
C163  C192  S    
O7    Zn10  S    
C76   H22   S    
C187  H46   S    
C139  O36   A    
C257  Cl15  S    
C211  C228  S    
C9    C237  A    
C56   C119  A    
C86   H56   S    
C83   C188  A    
C73   H19   S    
C72   C87   A    
O2    Zn8   S    
C169  C197  S    
C132  O33   A    
C88   N6    S    
C161  C200  S    
C152  C208  S    
C164  C182  S    
C161  C190  S    
C127  C199  S    
C237  O54   S    
O8    Zn11  S    
C154  H31   S    
C235  O52   S    
C35   C149  S    
C118  H74   S    
O10   Zn13  S    
C136  O17   A    
C151  C169  S    
C159  C176  S    
C157  C200  S    
C135  C176  S    
C126  C188  S    
C134  O31   A    
C85   H45   S    
O1    Zn10  S    
C14   C103  A    
C29   C131  S    
C133  O35   A    
C113  C141  S    
C163  H40   S    
C166  C203  S    
C13   C220  T    
C37   C41   A    
C164  C201  S    
C36   C49   A    
O66   Zn16  S    
C190  C207  S    
C14   C53   A    
C128  O7    A    
C156  C213  S    
C147  O48   A    
C191  H47   S    
O22   Zn5   S    
C240  C258  A    
C81   H1    S    
C55   C118  A    
O1    Zn1   S    
C21   C47   A    
C1    C78   A    
C129  O8    A    
C165  C194  S    
C17   C51   A    
C92   H62   S    
C247  C260  A    
C140  C210  S    
C245  H86   S    
C94   H64   S    
C178  Cl3   S    
C156  C174  S    
C203  C220  S    
O34   Zn6   S    
C170  Cl18  S    
C201  C218  S    
C168  H59   S    
C99   C115  A    
C248  H85   S    
C1    C81   A    
C87   N5    S    
C31   C40   A    
C103  C111  A    
C32   C39   A    
C140  O37   A    
O12   Zn2   S    
C244  H81   S    
C153  C207  S    
C186  H60   S    
O56   Zn4   S    
C95   H65   S    
O47   Zn15  S    
O27   Zn6   S    
C241  C259  A    
C72   C81   A    
C52   C55   A    
C86   C199  A    
C174  C195  S    
C131  O10   A    
C19   H3    S    
O46   Zn12  S    
C200  C217  S    
C154  C168  S    
C172  C193  S    
C34   C41   A    
C23   H7    S    
C158  C186  S    
C162  C191  S    
C12   C52   A    
C155  C179  S    
C238  O55   S    
C158  C212  S    
C7    C235  A    
C143  O40   A    
C184  Cl8   S    
C4    C231  A    
C251  Cl9   S    
C49   H15   S    
C63   O60   S    
C155  H32   S    
O20   Zn4   S    
C58   C59   A    
C116  H72   S    
C23   C44   A    
C56   C60   A    
C173  C202  S    
C165  C183  S    
C176  C205  S    
O18   Zn2   S    
C27   C252  A    
C1    C123  S    
O42   Zn12  S    
C154  C211  S    
C24   C132  S    
C178  C207  S    
C58   C120  A    
O29   Zn8   S    
C63   N5    A    
C60   C122  A    
C65   C109  A    
O1    Zn3   S    
O21   Zn3   S    
C4    C17   A    
C8    C236  A    
C67   C111  A    
C182  Cl6   S    
C168  C182  S    
C166  H43   S    
C159  H36   S    
O38   Zn11  S    
C125  O67   A    
O19   Zn16  S    
C22   H6    S    
O12   Zn11  S    
C73   C82   A    
C18   C50   A    
C248  C261  A    
C258  N1    S    
C256  Cl14  S    
C150  H27   S    
C124  C150  S    
O5    Zn1   S    
C20   C48   A    
C17   H88   S    
C204  C222  S    
C15   C59   A    
C241  C250  A    
C145  O47   A    
C69   N8    A    
C233  N2    A    
O26   Zn8   S    
C24   C222  T    
C149  O30   A    
C173  C192  S    
C193  H49   S    
C122  H79   S    
C131  O13   A    
C103  C109  A    
C185  C203  S    
O12   Zn4   S    
C65   O62   S    
C93   H63   S    
C177  Cl2   S    
C125  O56   A    
O40   Zn14  S    
C161  H38   S    
C135  C151  S    
C150  C167  S    
C182  C211  S    
C141  O22   A    
C213  C230  S    
C153  C157  S    
C139  O20   A    
C195  C213  S    
C157  H55   S    
C236  N3    A    
C92   C105  A    
C159  C197  S    
C192  C209  S    
C7    C20   A    
C136  C254  S    
C62   N6    A    
C67   O64   S    
C101  C229  T    
C209  C227  S    
C161  C178  S    
C144  O41   A    
C12   C54   A    
C68   C145  S    
C82   C112  A    
O9    Zn12  S    
C174  Cl22  S    
C59   C121  A    
C234  N1    A    
C163  C202  S    
C212  C229  S    
O23   Zn14  S    
C70   C78   A    
C80   H34   S    
C167  C196  S    
C42   C262  A    
C74   H25   S    
C167  Cl1   S    
C184  C185  S    
C261  N4    S    
C100  C105  A    
C135  H53   S    
C121  H77   S    
C45   H11   S    
C74   C89   A    
C96   C118  A    
C26   C249  A    
C27   C250  A    
C38   C42   A    
C48   H14   S    
C9    C22   A    
O34   Zn15  S    
C11   C239  A    
C168  C201  S    
C181  C209  S    
C89   N7    S    
O12   Zn9   S    
C207  C225  S    
C30   C39   A    
C102  C108  A    
O13   Zn15  S    
C175  C194  S    
C197  C215  S    
C53   C116  A    
C157  C178  S    
C155  C173  S    
C5    C233  A    
O30   Zn7   S    
O24   Zn6   S    
C244  C259  A    
C171  Cl19  S    
O28   Zn5   S    
C79   C227  T    
C71   C80   A    
C66   N8    A    
C148  O29   A    
C144  O26   A    
C69   C114  A    
C31   C44   A    
O39   Zn10  S    
C126  O68   A    
C41   C263  A    
C166  C195  S    
O17   Zn4   S    
O44   Zn13  S    
C26   C251  A    
C246  H87   S    
C16   C58   A    
C210  C214  T    
C140  O21   A    
C120  H76   S    
C231  N1    A    
C202  C219  S    
C217  C243  T    
C35   C223  T    
C158  C175  S    
C98   C116  A    
C79   C144  S    
C160  C177  S    
C153  C171  S    
C8    C21   A    
C154  C172  S    
C26   C128  S    
O68   Zn7   S    
C195  H51   S    
C70   H20   S    
C104  C114  A    
C77   C86   A    
C10   C238  A    
C25   H8    S    
C151  H28   S    
C27   C129  S    
C54   C117  A    
C63   C107  A    
C65   N7    A    
C170  C198  S    
C149  O46   A    
C145  O27   A    
O15   Zn2   S    
C100  C107  A    
C98   C111  A    
C244  C252  A    
C30   C33   A    
C34   C38   A    
C28   C256  A    
C96   H66   S    
C123  O66   A    
C69   O65   S    
O34   Zn13  S    
C10   C23   A    
O4    Zn6   S    
O33   Zn1   S    
C233  O50   S    
C15   C56   A    
C97   C110  A    
C40   C264  A    
C192  H50   S    
C184  C213  S    
C2    C219  T    
O16   Zn3   S    
C146  C152  S    
C130  O11   A    
C174  C203  S    
C216  C232  T    
C10   C264  A    
C102  C106  A    
C191  C208  S    
C15   C102  A    
C172  C201  S    
C75   H26   S    
C153  H30   S    
C248  C257  A    
C172  Cl20  S    
C77   H24   S    
C173  Cl21  S    
C78   H23   S    
O25   Zn7   S    
C239  N4    A    
C180  C208  S    
C117  H73   S    
C179  C181  S    
