data_mof_unit_26889.cif
_audit_creation_date              2012-10-26T18:59:35-0400
_audit_creation_method            fapswitch 2.2
_symmetry_space_group_name_H-M    P1
_symmetry_Int_Tables_number       1
_space_group_crystal_system       triclinic
_cell_length_a                    23.495053
_cell_length_b                    10.852747
_cell_length_c                    9.571822
_cell_angle_alpha                 90.34427
_cell_angle_beta                  90.672135
_cell_angle_gamma                 90.799728
_cell_volume                      2440.22715568

loop_
_atom_site_label
_atom_site_type_symbol
_atom_type_description
_atom_site_fract_x
_atom_site_fract_y
_atom_site_fract_z
_atom_type_partial_charge
Br1   Br    Br    0.798171 0.712982 0.322963 -0.353287
Br2   Br    Br    0.415676 0.302922 0.154810 -0.453024
Br3   Br    Br    0.641372 0.488195 0.893527 -0.435863
Br4   Br    Br    0.071547 0.786203 0.801615 -0.234077
Br5   Br    Br    0.201215 0.406277 0.783082 -0.308001
Br6   Br    Br    0.199168 0.591712 0.215339 -0.299003
C1    C     C_R   0.500256 0.262809 0.499627 0.552895
C2    C     C_R   0.121377 0.592413 0.572388 0.473343
C3    C     C_R   0.239479 0.461067 0.618337 0.196750
C4    C     C_R   0.391015 0.499488 0.499367 0.579187
C5    C     C_R   0.298793 0.461877 0.617861 -0.100362
C6    C     C_R   0.328468 0.498438 0.498371 -0.043339
C7    C     C_R   0.298018 0.534502 0.378819 -0.092219
C8    C     C_R   0.238621 0.535903 0.379108 0.199808
C9    C     C_R   0.209029 0.498903 0.499096 0.233382
C10   C     C_R   0.760594 0.401598 0.567733 -0.031027
C11   C     C_R   0.700881 0.397066 0.566749 0.004988
C12   C     C_R   0.968447 0.320594 0.355327 -0.088493
C13   C     C_R   0.670872 0.492912 0.500328 -0.038981
C14   C     C_R   0.700592 0.585412 0.428816 -0.112404
C15   C     C_R   0.759864 0.587087 0.427165 0.230908
C16   C     C_R   0.500335 0.737211 0.500142 0.555122
C17   C     C_R   0.790102 0.496208 0.499370 0.212797
C18   C     C_R   0.500251 0.062970 0.620756 0.014575
C19   C     C_R   0.500847 0.130186 0.497965 0.018349
C20   C     C_R   0.502021 0.063822 0.370840 -0.120841
C21   C     C_R   0.501935 0.934659 0.371188 -0.140977
C22   C     C_R   0.500838 0.869880 0.498740 0.020984
C23   C     C_R   0.027466 0.319954 0.356612 -0.082101
C24   C     C_R   0.500139 0.938760 0.621229 0.061847
C25   C     C_3   0.499777 0.931662 0.777124 -0.114730
C26   C     C_3   0.499433 0.073988 0.776107 -0.237081
C27   C     C_R   0.525975 0.593698 0.075495 0.087637
C28   C     C_R   0.608695 0.497433 0.500390 0.522920
C29   C     C_R   0.466685 0.419094 0.070949 0.259281
C30   C     C_R   0.467031 0.419467 0.922737 0.038484
C31   C     C_R   0.528332 0.590049 0.929105 0.127621
C32   C     C_3   0.590650 0.623693 0.933507 0.034521
C33   C     C_3   0.585803 0.638058 0.090971 -0.224694
C34   C     C_R   0.058527 0.409680 0.432231 0.042442
C35   C     C_R   0.879374 0.584987 0.582602 0.438228
C36   C     C_R   0.879628 0.411222 0.428661 0.428457
C37   C     C_R   0.939091 0.409957 0.431182 0.045278
C38   C     C_R   0.969575 0.499878 0.510640 -0.036210
C39   C     C_R   0.939879 0.588171 0.589823 -0.022798
C40   C     C_2   0.670775 0.289637 0.629154 0.299558
C41   C     C_2   0.446404 0.873537 0.834317 0.270653
C42   C     C_2   0.942564 0.764863 0.764124 0.363150
C43   C     C_R   0.029790 0.500826 0.509520 -0.053072
C44   C     C_R   0.061265 0.591764 0.585023 0.022170
C45   C     C_R   0.031753 0.676861 0.670370 0.185497
C46   C     C_R   0.971503 0.675873 0.671760 -0.000839
C47   C     C_R   0.117997 0.409699 0.432527 0.459558
Cu1   Cu    Cu3+1 0.500000 0.499980 0.640670 1.000507
Cu2   Cu    Cu3+1 0.500000 0.500020 0.359330 1.016961
H1    H     H_    0.945902 0.250529 0.294538 0.192652
H2    H     H_    0.600696 0.711407 0.879287 0.129092
H3    H     H_    0.613125 0.574989 0.151951 0.205262
H4    H     H_    0.588102 0.735735 0.126508 0.100973
H5    H     H_    0.321611 0.432609 0.710626 0.173472
H6    H     H_    0.320298 0.563678 0.285993 0.182621
H7    H     H_    0.784723 0.330645 0.619909 0.193418
H8    H     H_    0.624927 0.279458 0.619667 0.121864
H9    H     H_    0.449298 0.815005 0.925515 0.101042
H10   H     H_    0.914319 0.731832 0.845052 0.158255
H11   H     H_    0.677550 0.656999 0.374702 0.142687
H12   H     H_    0.503028 0.110845 0.271453 0.173810
H13   H     H_    0.502738 0.886337 0.271893 0.136947
H14   H     H_    0.539639 0.892775 0.820932 0.085590
H15   H     H_    0.459482 0.115992 0.813823 0.180156
H16   H     H_    0.539305 0.116792 0.818641 0.148640
H17   H     H_    0.048668 0.249381 0.296892 0.195874
H18   H     H_    0.440977 0.353585 0.864617 0.141061
N1    N     N_R   0.851221 0.498057 0.502837 -0.382463
N2    N     N_R   0.147949 0.500616 0.500774 -0.383250
N3    N     N_R   0.500360 0.500930 0.147930 -0.218434
N4    N     N_R   0.500360 0.500890 0.852020 -0.238076
O1    O     O_R   0.500000 0.319640 0.618810 -0.519879
O2    O     O_R   0.582120 0.500020 0.618760 -0.462513
O3    O     O_R   0.582120 0.500060 0.381180 -0.515316
O4    O     O_2   0.848402 0.667923 0.653076 -0.446953
O5    O     O_2   0.696969 0.210222 0.691629 -0.453864
O6    O     O_2   0.399838 0.892765 0.781306 -0.434171
O7    O     O_2   0.949536 0.875649 0.748904 -0.397354
O8    O     O_2   0.850196 0.326831 0.351623 -0.450919
O9    O     O_2   0.145902 0.319903 0.364584 -0.416611
O10   O     O_2   0.153551 0.684282 0.628098 -0.370367
O11   O     O_R   0.500010 0.319680 0.381230 -0.467753
O12   O     O_R   0.417880 0.499940 0.618820 -0.502941
O13   O     O_R   0.417880 0.499980 0.381240 -0.459600
O14   O     O_R   0.499990 0.680320 0.618770 -0.500860
O15   O     O_R   0.500000 0.680360 0.381190 -0.516528

loop_
_geom_bond_atom_site_label_1
_geom_bond_atom_site_label_2
_ccdc_geom_bond_type
C38   C43   A    
Br2   C29   S    
C9    N2    S    
Br1   C15   S    
C29   C30   A    
C6    C7    A    
C20   C21   A    
C27   C33   S    
C20   H12   S    
C14   H11   S    
Cu2   O13   S    
C30   N4    A    
C24   C25   S    
C34   C43   A    
Cu2   O11   S    
C21   H13   S    
C28   O3    A    
C35   N1    A    
C40   O5    D    
C1    O11   A    
C4    O12   A    
C10   C11   A    
C16   O14   A    
C47   O9    S    
C41   O6    D    
C42   H10   S    
C12   H1    S    
C23   H17   S    
C33   H4    S    
C16   C22   S    
C7    C8    A    
C47   N2    A    
C10   H7    S    
C26   H16   S    
C29   N3    A    
C36   N1    A    
Br4   C45   S    
C45   C46   A    
C11   C40   S    
Br3   C32   S    
Cu1   O12   S    
C41   H9    S    
C36   O8    S    
C26   H15   S    
C39   C46   A    
C19   C20   A    
C33   H3    S    
C31   N4    A    
C2    N2    A    
C27   C31   A    
C42   O7    D    
C37   C38   A    
C18   C26   S    
Br5   C3    S    
C31   C32   S    
C28   O2    A    
Br6   C8    S    
C32   H2    S    
C27   N3    A    
C25   C26   S    
C42   C46   S    
C35   O4    S    
C44   C45   A    
C12   C23   A    
C18   C19   A    
C3    C5    A    
C4    C6    S    
C1    O1    A    
Cu2   N3    S    
Cu2   O15   S    
C34   C47   A    
C10   C17   A    
C15   C17   A    
C36   C37   A    
C17   N1    S    
C5    H5    S    
C2    C44   A    
C38   C39   A    
Cu1   O2    S    
Cu1   Cu2   S    
C16   O15   A    
C13   C28   S    
C5    C6    A    
C1    C19   S    
C40   H8    S    
C2    O10   S    
Cu1   N4    S    
C13   C14   A    
C22   C24   A    
C3    C9    A    
Cu1   O14   S    
C12   C37   A    
Cu2   O3    S    
C32   C33   S    
C23   C34   A    
C11   C13   A    
C18   C24   A    
C30   H18   S    
C25   H14   S    
C7    H6    S    
C14   C15   A    
C4    O13   A    
C43   C44   A    
C21   C22   A    
C35   C39   A    
C8    C9    A    
C25   C41   S    
Cu1   O1    S    
