data_mof_unit_15943.cif
_audit_creation_date              2013-03-05T16:15:25-0500
_audit_creation_method            fapswitch 2.2
_symmetry_space_group_name_H-M    P1
_symmetry_Int_Tables_number       1
_space_group_crystal_system       triclinic
_cell_length_a                    23.478605
_cell_length_b                    14.248981
_cell_length_c                    13.328433
_cell_angle_alpha                 90.289626
_cell_angle_beta                  89.935785
_cell_angle_gamma                 89.943354
_cell_volume                      4458.914593

loop_
_atom_site_label
_atom_site_type_symbol
_atom_site_description
_atom_site_fract_x
_atom_site_fract_y
_atom_site_fract_z
_atom_type_partial_charge
O1    O     O_R   0.500000 0.373710 0.576470 -0.608051
O2    O     O_R   0.500000 0.626290 0.423530 -0.602450
O3    O     O_R   0.500000 0.626290 0.576470 -0.602551
O4    O     O_R   0.500000 0.373710 0.423530 -0.598033
C1    C     C_R   0.499879 0.326485 0.499757 0.911992
C2    C     C_R   0.500155 0.673519 0.500236 0.909367
O5    O     O_R   0.416150 0.500000 0.576470 -0.588816
O6    O     O_R   0.583850 0.500000 0.423530 -0.580093
O7    O     O_R   0.583850 0.500000 0.576470 -0.585048
O8    O     O_R   0.416150 0.500000 0.423530 -0.574836
C3    C     C_R   0.387365 0.498789 0.500096 1.016685
C4    C     C_R   0.612509 0.501213 0.500068 1.007153
Zn1   Zn    Zn3+2 0.500000 0.500000 0.602090 0.981518
Zn2   Zn    Zn3+2 0.500000 0.500000 0.397910 0.987936
C5    C     C_R   0.876543 0.536951 0.489640 0.637954
C6    C     C_R   0.120658 0.395632 0.526578 0.653391
C7    C     C_R   0.881609 0.378717 0.546962 0.603797
C8    C     C_R   0.115095 0.556344 0.477567 0.579658
N1    N     N_R   0.851123 0.454922 0.516841 -0.292272
N2    N     N_R   0.145706 0.477745 0.499139 -0.299767
C9    C     C_R   0.941450 0.380792 0.543965 -0.157659
C10   C     C_R   0.055437 0.554519 0.482459 -0.157341
C11   C     C_R   0.935855 0.545611 0.493043 -0.169283
C12   C     C_R   0.061325 0.390595 0.537248 -0.185520
C13   C     C_R   0.968591 0.465460 0.516246 -0.145818
C14   C     C_R   0.028458 0.470143 0.511855 -0.149028
C15   C     C_R   0.974678 0.301585 0.568910 0.359736
C16   C     C_R   0.022339 0.634907 0.461625 0.356552
C17   C     C_R   0.963073 0.631907 0.474334 0.386761
C18   C     C_R   0.034264 0.309092 0.573535 0.388055
O9    O     O_2   0.844025 0.609258 0.458189 -0.546314
O10   O     O_2   0.153501 0.319341 0.542271 -0.524104
O11   O     O_2   0.853887 0.302377 0.580833 -0.577479
O12   O     O_2   0.142816 0.635805 0.452676 -0.567754
C19   C     C_R   0.235843 0.474850 0.408268 0.359698
C20   C     C_R   0.761538 0.428127 0.428641 0.367223
C21   C     C_R   0.234749 0.496313 0.589777 0.335652
C22   C     C_R   0.761709 0.491360 0.599465 0.337927
C23   C     C_R   0.295592 0.475515 0.409141 0.259345
C24   C     C_R   0.703850 0.453986 0.418676 0.265281
C25   C     C_R   0.294295 0.498699 0.591323 0.280455
C26   C     C_R   0.704284 0.515140 0.590563 0.313900
C27   C     C_R   0.324964 0.492266 0.500150 -0.402509
C28   C     C_R   0.674488 0.491580 0.502028 -0.416663
C29   C     C_R   0.206234 0.483045 0.498817 0.022826
C30   C     C_R   0.790461 0.452269 0.517215 0.006062
C31   C     C_1   0.499966 0.225880 0.499334 -0.227173
C32   C     C_1   0.500291 0.774131 0.500624 -0.224679
C33   C     C_1   0.500079 0.141318 0.499362 -0.012735
C34   C     C_1   0.500357 0.858695 0.500547 -0.009636
C35   C     C_1   0.500233 0.042287 0.499727 0.007919
C36   C     C_1   0.500330 0.957727 0.500143 0.008591
N3    N     N_1   0.500000 0.500000 0.261870 -0.058606
N4    N     N_1   0.500000 0.500000 0.738130 -0.058493
C37   C     C_1   0.500051 0.500043 0.169328 0.045131
C38   C     C_1   0.500216 0.499976 0.830669 0.067281
C39   C     C_1   0.500145 0.499980 0.049534 -0.054599
C40   C     C_1   0.500228 0.499955 0.950475 -0.049933
O13   O     O_3   0.949247 0.216600 0.591266 -0.600157
C41   C     C_3   0.953040 0.157598 0.505889 0.148597
H1    H     H_    0.997599 0.132516 0.495675 0.166510
H2    H     H_    0.939286 0.194903 0.436559 0.114529
C42   C     C_3   0.914393 0.072610 0.520594 -0.325604
H3    H     H_    0.928982 0.032205 0.586887 0.217033
H4    H     H_    0.870101 0.096880 0.534805 0.254231
C43   C     C_3   0.914934 0.008721 0.428290 -0.988178
H5    H     H_    0.901307 0.048110 0.360729 0.274954
H6    H     H_    0.884973 0.949492 0.439797 0.280288
H7    H     H_    0.958368 0.980010 0.415536 0.269023
O14   O     O_3   0.047829 0.719411 0.437437 -0.598287
C44   C     C_3   0.041547 0.734827 0.333390 0.141691
H8    H     H_    0.995806 0.743482 0.313410 0.165074
H9    H     H_    0.059845 0.675276 0.289303 0.131044
C45   C     C_3   0.073265 0.824435 0.305164 -0.300017
H10   H     H_    0.057557 0.883670 0.352283 0.225065
H11   H     H_    0.119518 0.814929 0.319780 0.244735
C46   C     C_3   0.064534 0.848642 0.194824 -0.990685
H12   H     H_    0.079407 0.790208 0.145964 0.268490
H13   H     H_    0.089192 0.912701 0.176228 0.274003
H14   H     H_    0.018759 0.862328 0.179711 0.270976
O15   O     O_3   0.932049 0.714453 0.468365 -0.602537
C47   C     C_3   0.938055 0.766537 0.558782 0.133643
H15   H     H_    0.946031 0.840789 0.538622 0.171425
H16   H     H_    0.974782 0.744611 0.606620 0.124893
C48   C     C_3   0.883042 0.761029 0.620112 -0.327681
H17   H     H_    0.846735 0.785524 0.573607 0.252194
H18   H     H_    0.875162 0.687053 0.642101 0.245205
C49   C     C_3   0.886504 0.821233 0.714864 -0.990750
H19   H     H_    0.922733 0.798292 0.762368 0.269552
H20   H     H_    0.846550 0.813744 0.758710 0.274597
H21   H     H_    0.892071 0.896257 0.694996 0.267192
O16   O     O_3   0.065996 0.234615 0.610109 -0.597487
C50   C     C_3   0.062260 0.232383 0.716323 0.125123
H22   H     H_    0.072081 0.159607 0.740332 0.164933
H23   H     H_    0.018621 0.248168 0.744987 0.145106
C51   C     C_3   0.105837 0.298902 0.764789 -0.326780
H24   H     H_    0.149383 0.280017 0.738890 0.269726
H25   H     H_    0.096810 0.372391 0.742349 0.219770
C52   C     C_3   0.103854 0.293412 0.879009 -0.983434
H26   H     H_    0.060952 0.313640 0.906963 0.266709
H27   H     H_    0.135729 0.342410 0.911501 0.273478
H28   H     H_    0.113967 0.221104 0.904198 0.269457
O17   O     O_3   0.205580 0.456225 0.321250 -0.632374
C53   C     C_3   0.209638 0.532989 0.254826 0.145851
H29   H     H_    0.249001 0.526451 0.208923 0.179979
H30   H     H_    0.210077 0.601970 0.294951 0.163486
C54   C     C_3   0.158272 0.531231 0.184592 -0.341838
H31   H     H_    0.157269 0.463347 0.143141 0.230644
H32   H     H_    0.118567 0.537253 0.229679 0.224975
C55   C     C_3   0.160520 0.611430 0.109277 -0.994112
H33   H     H_    0.162228 0.680035 0.149061 0.274917
H34   H     H_    0.121779 0.609692 0.061639 0.269376
H35   H     H_    0.198568 0.604178 0.060208 0.270810
O18   O     O_3   0.792872 0.393572 0.347980 -0.631546
C56   C     C_3   0.773273 0.303786 0.317117 0.087347
H36   H     H_    0.790380 0.290627 0.240574 0.164173
H37   H     H_    0.726294 0.298852 0.310505 0.184507
C57   C     C_3   0.794906 0.226201 0.386459 -0.352679
H38   H     H_    0.841993 0.230297 0.391867 0.248182
H39   H     H_    0.776168 0.235779 0.462361 0.247499
C58   C     C_3   0.778120 0.129296 0.347238 -0.972863
H40   H     H_    0.731122 0.124233 0.339406 0.269581
H41   H     H_    0.792405 0.074754 0.400787 0.280427
H42   H     H_    0.798438 0.115629 0.273287 0.266477
O19   O     O_3   0.203966 0.497590 0.678339 -0.641333
C59   C     C_3   0.195658 0.591398 0.709428 0.106106
H43   H     H_    0.179695 0.635899 0.646863 0.167897
H44   H     H_    0.236297 0.621243 0.738243 0.181679
C60   C     C_3   0.151424 0.592965 0.793588 -0.352652
H45   H     H_    0.110831 0.562603 0.765388 0.223775
H46   H     H_    0.166667 0.549285 0.857058 0.232350
C61   C     C_3   0.140409 0.692670 0.831166 -0.956746
H47   H     H_    0.180087 0.723380 0.862539 0.269203
H48   H     H_    0.107522 0.691450 0.891054 0.265269
H49   H     H_    0.124781 0.737424 0.768961 0.273888
O20   O     O_3   0.792220 0.519547 0.683041 -0.641479
C62   C     C_3   0.783165 0.454496 0.760977 0.115852
H50   H     H_    0.803329 0.386041 0.741488 0.172958
H51   H     H_    0.736902 0.443228 0.775453 0.172932
C63   C     C_3   0.810266 0.492522 0.857062 -0.332024
H52   H     H_    0.856737 0.502317 0.844955 0.226629
H53   H     H_    0.791139 0.561863 0.875776 0.229757
C64   C     C_3   0.801063 0.425983 0.944985 -0.969890
H54   H     H_    0.754823 0.416162 0.959160 0.269721
H55   H     H_    0.820840 0.455998 0.013634 0.273536
H56   H     H_    0.820967 0.356760 0.928915 0.270205
O21   O     O_3   0.325025 0.460842 0.320522 -0.620995
C65   C     C_3   0.331604 0.363219 0.305530 0.138847
H57   H     H_    0.289563 0.326862 0.305244 0.167388
H58   H     H_    0.358909 0.332767 0.365539 0.124183
C66   C     C_3   0.360150 0.346451 0.204065 -0.333687
H59   H     H_    0.332935 0.376297 0.143927 0.221475
H60   H     H_    0.401984 0.382664 0.202622 0.234454
C67   C     C_3   0.369331 0.242068 0.183776 -0.960491
H61   H     H_    0.397097 0.211146 0.242454 0.269165
H62   H     H_    0.390265 0.232547 0.109667 0.271547
H63   H     H_    0.327860 0.204607 0.182739 0.269494
O22   O     O_3   0.675768 0.440128 0.328601 -0.629418
C68   C     C_3   0.688682 0.514941 0.263249 0.141169
H64   H     H_    0.735342 0.529249 0.259657 0.172844
H65   H     H_    0.666215 0.579679 0.288769 0.139268
C69   C     C_3   0.668493 0.489057 0.157743 -0.337035
H66   H     H_    0.690885 0.424396 0.132256 0.220026
H67   H     H_    0.622057 0.474429 0.159322 0.234592
C70   C     C_3   0.680217 0.567707 0.083251 -0.963389
H68   H     H_    0.657411 0.632676 0.106301 0.267553
H69   H     H_    0.665060 0.546400 0.007599 0.275644
H70   H     H_    0.726643 0.582163 0.078931 0.271307
O23   O     O_3   0.321910 0.513458 0.681636 -0.615600
C71   C     C_3   0.327374 0.426974 0.732251 0.148870
H71   H     H_    0.360556 0.383266 0.694765 0.139568
H72   H     H_    0.286658 0.386726 0.733831 0.160426
C72   C     C_3   0.345092 0.446615 0.840574 -0.325004
H73   H     H_    0.382344 0.494457 0.841261 0.235853
H74   H     H_    0.309529 0.482176 0.880764 0.218816
C73   C     C_3   0.360590 0.356474 0.895502 -0.978222
H75   H     H_    0.323122 0.309096 0.899491 0.270319
H76   H     H_    0.374557 0.373851 0.972885 0.270361
H77   H     H_    0.396119 0.319866 0.856465 0.268570
O24   O     O_3   0.677660 0.560173 0.670357 -0.617058
C74   C     C_3   0.669558 0.656454 0.648118 0.144697
H78   H     H_    0.633344 0.681909 0.694610 0.162009
H79   H     H_    0.657348 0.669186 0.568484 0.092881
C75   C     C_3   0.722618 0.713902 0.674999 -0.332149
H80   H     H_    0.734757 0.700309 0.754197 0.238390
H81   H     H_    0.758538 0.692588 0.625662 0.251051
C76   C     C_3   0.712011 0.818737 0.661390 -0.981242
H82   H     H_    0.700544 0.833830 0.582251 0.270583
H83   H     H_    0.751206 0.858465 0.680464 0.275039
H84   H     H_    0.677033 0.842788 0.711498 0.269204

loop_
_geom_bond_atom_site_label_1
_geom_bond_atom_site_label_2
_geom_bond_distance
_ccdc_geom_bond_type
C64   H56   1.110807 S    
C43   H6    1.110349 S    
C42   H4    1.111334 S    
C50   H22   1.110831 S    
C54   H32   1.111549 S    
O23   C71   1.413674 S    
C6    C12   1.402070 A    
C19   C23   1.402925 A    
O21   C65   1.412601 S    
C65   C66   1.526289 S    
O3    C2    1.221570 A    
C20   O18   1.389825 S    
C33   C35   1.411114 S    
C53   H30   1.116670 S    
O18   C56   1.419156 S    
N1    C30   1.424807 S    
C31   C33   1.204927 T    
C72   H73   1.109450 S    
C5    N1    1.363440 A    
C1    C31   1.433502 S    
C70   H68   1.110792 S    
C2    C32   1.433607 S    
C41   C42   1.527231 S    
O1    C1    1.221188 A    
C11   C17   1.409554 A    
C24   O22   1.383712 S    
C16   C17   1.402286 A    
C12   C14   1.413344 A    
C22   C26   1.395187 A    
C19   O17   1.385480 S    
C61   H49   1.110977 S    
C48   H17   1.111510 S    
C72   C73   1.525537 S    
C43   H7    1.110968 S    
C71   H71   1.113323 S    
C56   H36   1.110979 S    
C51   C52   1.525431 S    
C75   H80   1.111595 S    
C41   H2    1.116260 S    
C66   C67   1.525454 S    
O7    Zn1   1.997700 S    
C57   H38   1.109549 S    
C58   H42   1.110775 S    
C55   H33   1.110525 S    
C73   H77   1.110896 S    
C52   H26   1.110868 S    
C26   O24   1.387220 S    
C61   H47   1.110860 S    
C76   H84   1.110781 S    
C45   C46   1.526277 S    
C51   H25   1.110738 S    
C34   C36   1.411141 S    
C66   H59   1.111613 S    
C68   H65   1.113693 S    
C20   C30   1.404042 A    
O14   C44   1.413023 S    
C22   O20   1.383173 S    
C38   C40   1.596833 S    
C67   H62   1.110428 S    
N2    C29   1.423198 S    
O3    Zn1   1.833310 S    
O6    C4    1.222751 A    
C60   C61   1.525743 S    
C5    C11   1.398916 A    
C43   H5    1.110688 S    
C9    C15   1.412654 A    
C42   C43   1.526797 S    
O13   C41   1.414068 S    
C70   H69   1.110605 S    
C10   C16   1.412439 A    
C15   C18   1.404581 A    
C21   C25   1.398688 A    
C25   C27   1.414344 A    
O2    C2    1.221141 A    
C7    O11   1.347730 S    
C53   H29   1.111348 S    
O15   C47   1.419344 S    
C55   H34   1.110099 S    
N3    C37   1.233444 T    
C62   C63   1.527759 S    
N4    C38   1.233415 T    
C68   C69   1.528005 S    
C22   C30   1.399702 A    
C45   H10   1.111897 S    
C48   H18   1.111139 S    
C35   C36   1.204934 T    
C20   C24   1.409893 A    
C63   H52   1.111778 S    
C67   H63   1.110922 S    
C18   O16   1.386842 S    
O8    Zn2   1.997702 S    
C74   H79   1.115428 S    
C44   H9    1.115150 S    
C59   H44   1.112982 S    
C23   C27   1.415333 A    
C59   C60   1.527887 S    
C56   H37   1.108882 S    
C13   C14   1.408398 A    
C74   H78   1.111039 S    
C25   O23   1.383109 S    
C7    C9    1.405853 A    
C41   H1    1.113197 S    
C57   C58   1.526247 S    
O5    C3    1.222564 A    
C17   O15   1.385537 S    
C69   C70   1.526024 S    
C62   H51   1.114918 S    
C68   H64   1.115547 S    
C49   H21   1.110442 S    
C24   C28   1.409947 A    
C6    N2    1.361530 A    
C56   C57   1.531199 S    
C51   H24   1.111130 S    
C52   H28   1.110786 S    
C58   H40   1.110890 S    
C46   H13   1.110302 S    
C65   H57   1.115202 S    
C63   C64   1.526438 S    
C3    C27   1.468126 S    
C8    O12   1.349216 S    
C55   H35   1.110955 S    
C67   H61   1.111234 S    
C72   H74   1.111896 S    
C45   H11   1.111771 S    
C61   H48   1.110156 S    
C73   H75   1.110794 S    
C52   H27   1.110744 S    
C49   H20   1.110180 S    
C50   C51   1.536107 S    
C47   H16   1.118224 S    
C37   C39   1.596665 S    
O19   C59   1.410728 S    
C54   C55   1.525765 S    
C12   C18   1.411651 A    
O1    Zn1   1.829920 S    
C54   H31   1.111800 S    
C21   C29   1.397682 A    
C19   C29   1.396416 A    
C21   O19   1.383421 S    
C58   H41   1.109732 S    
O24   C74   1.417700 S    
C69   H66   1.111836 S    
C48   C49   1.525399 S    
C64   H55   1.110446 S    
C9    C13   1.415465 A    
O6    Zn2   1.998454 S    
C74   C75   1.533123 S    
C8    C10   1.402408 A    
C16   O14   1.384509 S    
C65   H58   1.114935 S    
O20   C62   1.411746 S    
C44   C45   1.527261 S    
C5    O9    1.350432 S    
C63   H53   1.111963 S    
C70   H70   1.110977 S    
C47   C48   1.530067 S    
C62   H50   1.113218 S    
Zn1   N4    1.813200 S    
C75   C76   1.525910 S    
C60   H45   1.112098 S    
C26   C28   1.411700 A    
C44   H8    1.113629 S    
C4    C28   1.461765 S    
C69   H67   1.110395 S    
C15   O13   1.384340 S    
C46   H14   1.110903 S    
C39   C40   1.320289 T    
O22   C68   1.412959 S    
C71   H72   1.115501 S    
C11   C13   1.411763 A    
C59   H43   1.115123 S    
C6    O10   1.349475 S    
O4    C1    1.221457 A    
C32   C34   1.204966 T    
O16   C50   1.418808 S    
C7    N1    1.362377 A    
C75   H81   1.110021 S    
C8    N2    1.362211 A    
C66   H60   1.110140 S    
O4    Zn2   1.833312 S    
O2    Zn2   1.829919 S    
O7    C4    1.220129 A    
C57   H39   1.110459 S    
C76   H83   1.109962 S    
O8    C3    1.223576 A    
C42   H3    1.111285 S    
O5    Zn1   1.998456 S    
Zn2   N3    1.813200 S    
C49   H19   1.110851 S    
C50   H23   1.115395 S    
C47   H15   1.108967 S    
C10   C14   1.416317 A    
C23   O21   1.382678 S    
O17   C53   1.413900 S    
C46   H12   1.110283 S    
C76   H82   1.110939 S    
C53   C54   1.527663 S    
C64   H54   1.110872 S    
C73   H76   1.109476 S    
C60   H46   1.112039 S    
C71   C72   1.527535 S    
