data_mof_unit_24103.cif
_audit_creation_date              2012-12-11T17:22:18-0500
_audit_creation_method            fapswitch 2.2
_symmetry_space_group_name_H-M    P1
_symmetry_Int_Tables_number       1
_space_group_crystal_system       triclinic
_cell_length_a                    20.588283
_cell_length_b                    7.156418
_cell_length_c                    20.646785
_cell_angle_alpha                 89.558616
_cell_angle_beta                  101.526917
_cell_angle_gamma                 89.414168
_cell_volume                      2980.4045608

loop_
_atom_site_label
_atom_site_type_symbol
_atom_type_description
_atom_site_fract_x
_atom_site_fract_y
_atom_site_fract_z
_atom_type_partial_charge
O1    O     O_R   0.807340 0.614490 0.194100 -0.536105
O2    O     O_R   0.192660 0.385510 0.805900 -0.536142
O3    O     O_R   0.692660 0.114490 0.305900 -0.526588
O4    O     O_R   0.307340 0.885510 0.694100 -0.526571
O5    O     O_R   0.672910 0.282300 0.178070 -0.533852
O6    O     O_R   0.327090 0.717700 0.821930 -0.534217
O7    O     O_R   0.827090 0.782300 0.321930 -0.548841
O8    O     O_R   0.172910 0.217700 0.678070 -0.548820
C1    C     C_R   0.649437 0.455109 0.160663 0.698777
C2    C     C_R   0.350555 0.544894 0.839338 0.699139
C3    C     C_R   0.849709 0.952376 0.340387 0.692077
C4    C     C_R   0.150295 0.047625 0.659608 0.692037
O9    O     O_R   0.805620 0.284620 0.186180 -0.530298
O10   O     O_R   0.194380 0.715380 0.813820 -0.530381
O11   O     O_R   0.694380 0.784620 0.313820 -0.542540
O12   O     O_R   0.305620 0.215380 0.686180 -0.542483
O13   O     O_R   0.826310 0.116750 0.314070 -0.528967
O14   O     O_R   0.173690 0.883250 0.685930 -0.528884
O15   O     O_R   0.673690 0.616750 0.185930 -0.540092
O16   O     O_R   0.326310 0.383250 0.814070 -0.539942
C5    C     C_R   0.824884 0.453250 0.171375 0.726569
C6    C     C_R   0.175123 0.546751 0.828632 0.726771
C7    C     C_R   0.674942 0.953355 0.328474 0.722243
C8    C     C_R   0.325060 0.046646 0.671528 0.722263
O17   O     O_3   0.756630 0.448770 0.291950 -0.371378
O18   O     O_3   0.243370 0.551230 0.708050 -0.371246
O19   O     O_3   0.743370 0.948770 0.208050 -0.372351
O20   O     O_3   0.256630 0.051230 0.791950 -0.372627
V1    V     V_3+5 0.748770 0.172970 0.242220 1.435977
V2    V     V_3+5 0.251230 0.827030 0.757780 1.435389
V3    V     V_3+5 0.751230 0.672970 0.257780 1.389190
V4    V     V_3+5 0.248770 0.327030 0.742220 1.389343
H1    H     H_    0.556617 0.284036 0.470781 0.109700
H2    H     H_    0.443401 0.715979 0.529236 0.109694
H3    H     H_    0.964699 0.786568 0.051244 0.111030
H4    H     H_    0.035370 0.213461 0.948824 0.111022
C9    C     C_R   0.487399 0.173112 0.526394 -0.158114
C10   C     C_R   0.512619 0.826904 0.473623 -0.158149
C11   C     C_R   0.024871 0.674090 0.986287 -0.161631
C12   C     C_R   0.975201 0.325939 0.013783 -0.161686
H5    H     H_    0.478158 0.308070 0.546426 0.111091
H6    H     H_    0.521859 0.691946 0.453591 0.111077
H7    H     H_    0.043633 0.809822 0.976101 0.109859
H8    H     H_    0.956439 0.190207 0.023969 0.109921
C13   C     C_R   0.454971 0.013794 0.543460 0.136333
C14   C     C_R   0.545046 0.986222 0.456556 0.136288
C15   C     C_R   0.045385 0.513379 0.956887 0.135171
C16   C     C_R   0.954681 0.486651 0.043179 0.135311
C17   C     C_R   0.467891 0.840617 0.516732 -0.163243
C18   C     C_R   0.532127 0.159399 0.483285 -0.163240
C19   C     C_R   0.020227 0.339209 0.970978 -0.158328
C20   C     C_R   0.979844 0.660821 0.029092 -0.158253
C21   C     C_1   0.408918 0.027456 0.588467 -0.076411
C22   C     C_1   0.591095 0.972558 0.411545 -0.076403
C23   C     C_1   0.091613 0.527033 0.912048 -0.073264
C24   C     C_1   0.908434 0.472994 0.087998 -0.073489
C25   C     C_1   0.629451 0.962782 0.373848 -0.183381
C26   C     C_1   0.370557 0.037226 0.626159 -0.183517
C27   C     C_1   0.870134 0.462840 0.125743 -0.179519
C28   C     C_1   0.129894 0.537171 0.874283 -0.178930
C29   C     C_R   0.909384 0.955861 0.395080 -0.106767
C30   C     C_R   0.090632 0.044161 0.604898 -0.106842
C31   C     C_R   0.588559 0.474996 0.107674 -0.106625
C32   C     C_R   0.411434 0.525052 0.892315 -0.106617
C33   C     C_R   0.981595 0.178971 0.560937 -0.014377
C34   C     C_R   0.018439 0.821135 0.439012 -0.014463
C35   C     C_R   0.514828 0.350898 0.929332 -0.016883
C36   C     C_R   0.485187 0.649244 0.070605 -0.016673
C37   C     C_R   0.039338 0.166969 0.609274 -0.226945
C38   C     C_R   0.960694 0.833151 0.390676 -0.226940
C39   C     C_R   0.460064 0.400924 0.880675 -0.223861
C40   C     C_R   0.540010 0.599536 0.119235 -0.223652
C41   C     C_R   0.085358 0.927670 0.548994 -0.067012
C42   C     C_R   0.914650 0.072283 0.450997 -0.067087
C43   C     C_R   0.417782 0.607200 0.955278 -0.070759
C44   C     C_R   0.582099 0.392215 0.044797 -0.070642
C45   C     C_R   0.026649 0.935779 0.496968 0.034446
C46   C     C_R   0.973377 0.064262 0.502999 0.034456
C47   C     C_R   0.475231 0.565882 0.006503 0.036239
C48   C     C_R   0.524745 0.433931 0.993492 0.036284
H9    H     H_    0.955884 0.744758 0.347465 0.133061
H10   H     H_    0.044153 0.255426 0.652469 0.133066
H11   H     H_    0.546225 0.665361 0.167278 0.132624
H12   H     H_    0.453917 0.335500 0.832567 0.132624
C49   C     C_R   0.855683 0.188820 0.455029 0.088607
C50   C     C_R   0.852252 0.377778 0.435519 -0.056210
C51   C     C_R   0.796726 0.486704 0.440707 -0.039777
C52   C     C_R   0.743412 0.406236 0.462752 -0.097644
C53   C     C_R   0.745613 0.216789 0.480040 -0.118395
C54   C     C_R   0.801286 0.107710 0.475714 -0.161212
H13   H     H_    0.893087 0.441297 0.417953 0.090086
H14   H     H_    0.795007 0.633635 0.427847 0.102572
H15   H     H_    0.700483 0.490804 0.466594 0.096367
H16   H     H_    0.704445 0.154877 0.497418 0.115711
H17   H     H_    0.802634 0.961265 0.489624 0.091426
C55   C     C_R   0.144268 0.810805 0.545036 0.088758
C56   C     C_R   0.198801 0.891634 0.524514 -0.160907
C57   C     C_R   0.254408 0.782213 0.520235 -0.118315
C58   C     C_R   0.256404 0.592695 0.537398 -0.097458
C59   C     C_R   0.202954 0.512501 0.559281 -0.039519
C60   C     C_R   0.147499 0.621769 0.564438 -0.056551
H18   H     H_    0.197606 0.038126 0.510688 0.091219
H19   H     H_    0.295683 0.843906 0.502981 0.115631
H20   H     H_    0.299277 0.507853 0.533580 0.096318
H21   H     H_    0.204510 0.365509 0.572026 0.102378
H22   H     H_    0.106558 0.558453 0.581879 0.090077
C61   C     C_R   0.639973 0.281799 0.033110 0.087625
C62   C     C_R   0.691020 0.371481 0.009339 -0.157899
C63   C     C_R   0.747426 0.270623 0.001485 -0.120479
C64   C     C_R   0.753753 0.080822 0.018388 -0.095629
C65   C     C_R   0.703773 0.991574 0.043378 -0.066857
C66   C     C_R   0.647244 0.091763 0.051213 -0.056318
H23   H     H_    0.686854 0.518851 0.996639 0.098284
H24   H     H_    0.786349 0.339781 0.982512 0.115599
H25   H     H_    0.797545 0.003181 0.012462 0.098781
H26   H     H_    0.708982 0.845049 0.057054 0.097200
H27   H     H_    0.609485 0.021753 0.071677 0.092845
C67   C     C_R   0.359590 0.715601 0.967260 0.086830
C68   C     C_R   0.351337 0.905367 0.948991 -0.055530
C69   C     C_R   0.294511 0.003532 0.957174 -0.067830
C70   C     C_R   0.245234 0.912519 0.982715 -0.096094
C71   C     C_R   0.252565 0.722984 0.999837 -0.120872
C72   C     C_R   0.309264 0.624148 0.991632 -0.158337
H28   H     H_    0.388606 0.976729 0.928190 0.092996
H29   H     H_    0.288539 0.149872 0.943373 0.097402
H30   H     H_    0.201212 0.988579 0.988916 0.099036
H31   H     H_    0.214186 0.652450 0.019242 0.115793
H32   H     H_    0.314204 0.476950 0.004501 0.098891
C73   C     C_R   0.932766 0.316283 0.576421 0.101176
C74   C     C_R   0.882688 0.258183 0.609059 -0.104059
C75   C     C_R   0.839477 0.389645 0.627993 -0.101500
C76   C     C_R   0.847077 0.579993 0.616075 -0.105087
C77   C     C_R   0.898526 0.639458 0.586137 -0.120078
C78   C     C_R   0.941836 0.508527 0.567243 -0.139283
H33   H     H_    0.876870 0.111337 0.619291 0.094485
H34   H     H_    0.800168 0.343935 0.652008 0.101319
H35   H     H_    0.813521 0.681511 0.630619 0.099151
H36   H     H_    0.905090 0.786922 0.577874 0.114011
H37   H     H_    0.982268 0.557093 0.545566 0.105667
C79   C     C_R   0.067271 0.683866 0.423504 0.101191
C80   C     C_R   0.058105 0.491577 0.432491 -0.139299
C81   C     C_R   0.101412 0.360697 0.413568 -0.120018
C82   C     C_R   0.152955 0.420263 0.383784 -0.105061
C83   C     C_R   0.160655 0.610671 0.372051 -0.101565
C84   C     C_R   0.117447 0.742085 0.391017 -0.104013
H38   H     H_    0.017592 0.442939 0.454032 0.105659
H39   H     H_    0.094769 0.213199 0.421689 0.113989
H40   H     H_    0.186507 0.318782 0.369212 0.099145
H41   H     H_    0.200038 0.656461 0.348153 0.101303
H42   H     H_    0.123346 0.888975 0.380923 0.094397
C85   C     C_R   0.557356 0.203097 0.909250 0.106783
C86   C     C_R   0.545099 0.013931 0.920398 -0.130185
C87   C     C_R   0.583340 0.873960 0.898765 -0.120290
C88   C     C_R   0.632975 0.921677 0.864540 -0.100236
C89   C     C_R   0.643844 0.109343 0.851156 -0.099516
C90   C     C_R   0.605647 0.249745 0.872708 -0.114902
H43   H     H_    0.506313 0.974787 0.945924 0.099174
H44   H     H_    0.574419 0.728625 0.908410 0.118425
H45   H     H_    0.662646 0.813189 0.847950 0.097806
H46   H     H_    0.681827 0.146040 0.824032 0.101335
H47   H     H_    0.614173 0.394648 0.861744 0.095143
C91   C     C_R   0.442649 0.797197 0.090606 0.106902
C92   C     C_R   0.394912 0.750988 0.127866 -0.115035
C93   C     C_R   0.356697 0.891538 0.149308 -0.099426
C94   C     C_R   0.366987 0.078977 0.135074 -0.100316
C95   C     C_R   0.416045 0.126334 0.100073 -0.120414
C96   C     C_R   0.454290 0.986209 0.078531 -0.130251
H48   H     H_    0.386835 0.606272 0.139485 0.095444
H49   H     H_    0.319149 0.855136 0.177010 0.101327
H50   H     H_    0.337299 0.187584 0.151575 0.097785
H51   H     H_    0.424484 0.271513 0.089721 0.118275
H52   H     H_    0.492532 0.025109 0.052278 0.099000

loop_
_geom_bond_atom_site_label_1
_geom_bond_atom_site_label_2
_ccdc_geom_bond_type
C29   C38   A    
O17   V3    S    
C51   C52   A    
O18   V4    S    
C94   C95   A    
C21   C26   T    
O19   V1    S    
O13   V1    S    
C61   C66   A    
C71   H31   S    
O3    C7    A    
C92   C93   A    
C16   C24   S    
O15   V3    S    
C73   C74   A    
C56   C57   A    
C54   H17   S    
C10   C17   A    
C68   H28   S    
O1    C5    A    
C59   H21   S    
O9    V1    S    
C93   C94   A    
C5    C27   S    
C50   H13   S    
C6    C28   S    
C66   H27   S    
O4    C8    A    
C31   C44   A    
C57   H19   S    
O1    V3    S    
C62   C63   A    
O2    V4    S    
C32   C39   A    
C87   H44   S    
O3    V1    S    
C38   H9    S    
C67   C68   A    
C37   H10   S    
C64   C65   A    
C80   C81   A    
C1    O15   A    
C65   C66   A    
C2    O16   A    
C76   C77   A    
O2    C6    A    
C61   C62   A    
C30   C41   A    
C65   H26   S    
O14   V2    S    
C12   H8    S    
C56   H18   S    
C36   C40   A    
C36   C47   A    
O11   C7    A    
C11   C20   A    
C85   C86   A    
C13   C21   S    
C95   H51   S    
O12   C8    A    
C23   C28   T    
C94   H50   S    
C93   H49   S    
C43   C67   S    
O10   V2    S    
O5    V1    S    
C82   H40   S    
O7    V3    S    
C35   C85   S    
O8    V4    S    
C44   C48   A    
C79   C80   A    
C75   H34   S    
C78   H37   S    
C50   C51   A    
C15   C19   A    
C76   H35   S    
C45   C46   A    
C11   C15   A    
C73   C78   A    
C30   C37   A    
C70   H30   S    
C62   H23   S    
C39   H12   S    
O7    C3    A    
O5    C1    A    
C83   H41   S    
C4    C30   S    
C33   C73   S    
C58   C59   A    
C13   C17   A    
O8    C4    A    
C55   C56   A    
C14   C22   S    
C70   C71   A    
O9    C5    A    
C85   C90   A    
C31   C40   A    
C68   C69   A    
C77   H36   S    
C88   C89   A    
C49   C50   A    
H4    C19   S    
C63   H24   S    
C7    C25   S    
C80   H38   S    
O6    V2    S    
C74   H33   S    
C90   H47   S    
C44   C61   S    
C77   C78   A    
C47   C48   A    
C9    C13   A    
C75   C76   A    
C89   C90   A    
C51   H14   S    
C69   C70   A    
C15   C23   S    
C91   C92   A    
O16   V4    S    
C60   H22   S    
C12   C16   A    
C34   C45   A    
C52   H15   S    
C3    O13   A    
H2    C17   S    
C58   H20   S    
C33   C46   A    
C89   H46   S    
C1    C31   S    
C81   H39   S    
C2    C32   S    
C35   C48   A    
C84   H42   S    
C83   C84   A    
C3    C29   S    
C79   C84   A    
C53   H16   S    
C11   H7    S    
C49   C54   A    
O11   V3    S    
C96   H52   S    
C36   C91   S    
C29   C42   A    
O12   V4    S    
C12   C19   A    
C14   C18   A    
C24   C27   T    
O10   C6    A    
O20   V2    S    
C74   C75   A    
H1    C18   S    
C92   H48   S    
C88   H45   S    
C63   C64   A    
C9    C18   A    
C72   H32   S    
C34   C38   A    
C95   C96   A    
C33   C37   A    
C59   C60   A    
C69   H29   S    
C32   C43   A    
C86   H43   S    
C35   C39   A    
C67   C72   A    
C42   C49   S    
C9    H5    S    
C10   C14   A    
C40   H11   S    
O6    C2    A    
C91   C96   A    
C10   H6    S    
C16   C20   A    
C34   C79   S    
C52   C53   A    
C8    C26   S    
C57   C58   A    
C42   C46   A    
C4    O14   A    
H3    C20   S    
C71   C72   A    
C41   C45   A    
C81   C82   A    
C86   C87   A    
C41   C55   S    
C53   C54   A    
C55   C60   A    
C43   C47   A    
C64   H25   S    
O4    V2    S    
C82   C83   A    
C87   C88   A    
C22   C25   T    
