data_mof_unit_60294.cif
_audit_creation_date              2012-10-26T20:52:00-0400
_audit_creation_method            fapswitch 2.2
_symmetry_space_group_name_H-M    P1
_symmetry_Int_Tables_number       1
_space_group_crystal_system       triclinic
_cell_length_a                    8.780275
_cell_length_b                    16.0043
_cell_length_c                    14.76195
_cell_angle_alpha                 90.030375
_cell_angle_beta                  97.40182
_cell_angle_gamma                 89.968371
_cell_volume                      2057.09482441

loop_
_atom_site_label
_atom_site_type_symbol
_atom_type_description
_atom_site_fract_x
_atom_site_fract_y
_atom_site_fract_z
_atom_type_partial_charge
C1    C     C_R   0.500050 0.340878 0.499976 0.552622
C2    C     C_R   0.796355 0.499439 0.522469 0.569382
C3    C     C_2   0.041139 0.513263 0.467126 0.044487
C4    C     C_2   0.958860 0.486749 0.532878 0.044303
C5    C     C_R   0.486504 0.955576 0.580145 -0.110129
C6    C     C_R   0.517338 0.044420 0.420323 -0.109447
C7    C     C_R   0.502168 0.912704 0.499238 0.046689
C8    C     C_R   0.501699 0.087292 0.501234 0.047083
C9    C     C_R   0.518190 0.956804 0.418642 0.116201
C10   C     C_R   0.486589 0.043191 0.581960 0.116153
C11   C     C_1   0.501150 0.823137 0.499772 -0.010285
C12   C     C_R   0.499986 0.659121 0.500027 0.552226
C13   C     C_1   0.500934 0.176860 0.500451 -0.009789
C14   C     C_1   0.500442 0.251847 0.500062 0.010999
C15   C     C_1   0.500492 0.748151 0.500021 0.010658
C16   C     C_R   0.631324 0.526042 0.962757 0.103826
C17   C     C_R   0.368677 0.473957 0.037243 0.104220
C18   C     C_R   0.501145 0.500301 0.902912 -0.015721
C19   C     C_R   0.498856 0.499698 0.097088 -0.015387
C20   C     C_R   0.370481 0.474431 0.941562 -0.097813
C21   C     C_R   0.629521 0.525568 0.058438 -0.097859
C22   C     C_1   0.500174 0.500091 0.802692 0.195085
C23   C     C_1   0.499827 0.499908 0.197308 0.195943
C24   C     C_R   0.203644 0.500566 0.477532 0.571510
Cu1   Cu    Cu3+1 0.500040 0.500000 0.589220 1.074478
Cu2   Cu    Cu3+1 0.499960 0.500000 0.410780 1.076013
H1    H     H_    0.474419 0.920692 0.641747 0.120291
H2    H     H_    0.529032 0.079304 0.358665 0.120616
H3    H     H_    0.730927 0.545586 0.102767 0.167922
H4    H     H_    0.269075 0.454414 0.897233 0.167917
H5    H     H_    0.574273 0.117801 0.685800 0.242767
H6    H     H_    0.452529 0.045797 0.716866 0.235408
H7    H     H_    0.640299 0.882200 0.344747 0.243124
H8    H     H_    0.536596 0.954195 0.281503 0.235891
I1    I     I_    0.957499 0.591655 0.353145 -0.278422
I2    I     I_    0.042494 0.408376 0.646875 -0.274028
I3    I     I_    0.834149 0.566600 0.912095 -0.281224
I4    I     I_    0.165850 0.433401 0.087903 -0.279973
N1    N     N_1   0.500050 0.499980 0.276720 -0.164807
N2    N     N_1   0.499950 0.500020 0.723280 -0.165223
N3    N     N_3   0.470111 0.087614 0.664810 -0.594969
N4    N     N_3   0.533783 0.912379 0.335667 -0.594087
O1    O     O_R   0.500070 0.380310 0.575330 -0.480102
O2    O     O_R   0.499930 0.619690 0.424670 -0.478981
O3    O     O_R   0.500000 0.380310 0.424640 -0.496557
O4    O     O_R   0.500000 0.619690 0.575360 -0.496972
O5    O     O_R   0.274870 0.500000 0.557960 -0.487517
O6    O     O_R   0.725130 0.500000 0.442040 -0.488231
O7    O     O_R   0.274790 0.500000 0.407270 -0.468438
O8    O     O_R   0.725210 0.500000 0.592730 -0.469852

loop_
_geom_bond_atom_site_label_1
_geom_bond_atom_site_label_2
_ccdc_geom_bond_type
C2    C4    S    
H6    N3    S    
C4    I2    S    
C8    C13   S    
Cu2   O6    S    
C5    C7    A    
Cu1   O5    S    
C19   C23   S    
H8    N4    S    
C12   C15   S    
C3    I1    S    
C16   I3    S    
C22   N2    T    
Cu1   O1    S    
C6    C9    A    
C18   C22   S    
C9    N4    S    
Cu2   O2    S    
C5    C10   A    
C12   O2    A    
H5    N3    S    
C20   H4    S    
C13   C14   T    
C10   N3    S    
C7    C11   S    
C1    O3    A    
C3    C24   S    
C16   C21   A    
C21   H3    S    
C23   N1    T    
H7    N4    S    
C8    C10   A    
C19   C21   A    
C18   C20   A    
C17   I4    S    
Cu1   N2    S    
Cu2   N1    S    
C3    C4    D    
C17   C20   A    
C16   C18   A    
C2    O6    A    
Cu2   O7    S    
C24   O7    A    
C7    C9    A    
Cu1   O8    S    
C6    C8    A    
C1    C14   S    
C2    O8    A    
Cu2   O3    S    
C17   C19   A    
Cu1   Cu2   S    
C5    H1    S    
C24   O5    A    
C11   C15   T    
Cu1   O4    S    
C1    O1    A    
C6    H2    S    
C12   O4    A    
