data_mof_unit_29039.cif
_audit_creation_date              2013-03-05T15:47:14-0500
_audit_creation_method            fapswitch 2.2
_symmetry_space_group_name_H-M    P1
_symmetry_Int_Tables_number       1
_space_group_crystal_system       triclinic
_cell_length_a                    27.77707
_cell_length_b                    10.921306
_cell_length_c                    9.786861
_cell_angle_alpha                 110.168584
_cell_angle_beta                  98.232626
_cell_angle_gamma                 90.847147
_cell_volume                      2751.60619691

loop_
_atom_site_label
_atom_site_type_symbol
_atom_site_description
_atom_site_fract_x
_atom_site_fract_y
_atom_site_fract_z
_atom_type_partial_charge
O1    O     O_R   0.504520 0.332330 0.577400 -0.511211
O2    O     O_R   0.495480 0.667670 0.422600 -0.512961
O3    O     O_R   0.490210 0.295500 0.332650 -0.583182
O4    O     O_R   0.509790 0.704500 0.667350 -0.581754
C1    C     C_R   0.494424 0.253905 0.442384 0.887894
C2    C     C_R   0.501260 0.746045 0.557814 0.885211
O5    O     O_R   0.437420 0.518430 0.622370 -0.585808
O6    O     O_R   0.562580 0.481570 0.377630 -0.586133
O7    O     O_R   0.423110 0.481600 0.377610 -0.577230
O8    O     O_R   0.576890 0.518400 0.622390 -0.578919
C3    C     C_R   0.407479 0.500074 0.501413 0.789118
C4    C     C_R   0.592552 0.500143 0.498765 0.794203
Cu1   Cu    Cu3+1 0.508480 0.521810 0.644910 0.971249
Cu2   Cu    Cu3+1 0.491520 0.478190 0.355090 0.969383
C5    C     C_R   0.177737 0.397452 0.515822 0.533525
C6    C     C_R   0.825763 0.619323 0.560807 0.536529
O9    O     O_2   0.201137 0.288101 0.506643 -0.539660
O10   O     O_2   0.804106 0.731639 0.617548 -0.539851
N1    N     N_R   0.202982 0.507101 0.520068 -0.473834
N2    N     N_R   0.798105 0.503979 0.495555 -0.473632
C7    C     C_R   0.180556 0.619792 0.530164 0.573010
C8    C     C_R   0.818749 0.388487 0.436130 0.576603
C9    C     C_R   0.271726 0.499353 0.385604 -0.104340
C10   C     C_R   0.728246 0.523390 0.626655 -0.114006
C11   C     C_R   0.321671 0.497503 0.380851 -0.225404
C12   C     C_R   0.678164 0.522147 0.627632 -0.202650
C13   C     C_R   0.336848 0.505266 0.634272 -0.220289
C14   C     C_R   0.663953 0.481003 0.364644 -0.216387
C15   C     C_R   0.286916 0.506720 0.638542 -0.123931
C16   C     C_R   0.714197 0.482180 0.363985 -0.093637
C17   C     C_R   0.254250 0.504086 0.514471 0.353088
C18   C     C_R   0.746449 0.503431 0.495079 0.342714
C19   C     C_R   0.103503 0.513183 0.531416 -0.120536
C20   C     C_R   0.898949 0.503462 0.511421 -0.120290
C21   C     C_R   0.127440 0.397297 0.517539 0.028250
C22   C     C_R   0.876449 0.621660 0.567383 0.030138
C23   C     C_R   0.100814 0.284010 0.506846 -0.177325
C24   C     C_R   0.905034 0.739391 0.632085 -0.183330
C25   C     C_R   0.130696 0.628259 0.546183 -0.194101
C26   C     C_R   0.870122 0.384185 0.450452 -0.189720
C27   C     C_R   0.354697 0.500776 0.505370 -0.034994
C28   C     C_R   0.645491 0.500919 0.496647 -0.039506
H1    H     H_    0.118627 0.195712 0.503803 0.193944
H2    H     H_    0.888936 0.830637 0.682580 0.184192
C29   C     C_R   0.973231 0.386774 0.471411 -0.120031
C30   C     C_R   0.028672 0.630440 0.554148 -0.126170
C31   C     C_R   0.978188 0.627355 0.566560 0.139128
C32   C     C_R   0.025026 0.392198 0.496598 0.142047
C33   C     C_R   0.950219 0.505540 0.516845 -0.000969
C34   C     C_R   0.052359 0.512503 0.528414 -0.003401
C35   C     C_R   0.944174 0.266775 0.401246 0.359812
C36   C     C_R   0.055835 0.746506 0.565404 0.379496
C37   C     C_R   0.893082 0.265169 0.401504 0.437116
C38   C     C_R   0.107175 0.746449 0.570412 0.440810
O11   O     O_2   0.789435 0.279136 0.362239 -0.489845
O12   O     O_2   0.206412 0.721833 0.521868 -0.496058
C39   C     C_R   0.050536 0.281847 0.497388 -0.156959
C40   C     C_R   0.954989 0.741816 0.633149 -0.154283
C41   C     C_2   0.486775 0.114521 0.414149 -0.427104
C42   C     C_2   0.496582 0.885074 0.586356 -0.427051
C43   C     C_2   0.473262 0.070088 0.516202 0.411968
C44   C     C_2   0.471879 0.928057 0.484956 0.401060
H3    H     H_    0.512612 0.953878 0.693974 0.154311
H4    H     H_    0.491287 0.046500 0.306252 0.150819
N3    N     N_2   0.478780 0.445430 0.137360 -0.280903
N4    N     N_2   0.521220 0.554570 0.862640 -0.286230
C45   C     C_2   0.504045 0.511147 0.081049 -0.036588
C46   C     C_2   0.495387 0.490575 0.919429 -0.043250
H5    H     H_    0.361403 0.507428 0.731723 0.154466
H6    H     H_    0.639653 0.464559 0.262122 0.160045
H7    H     H_    0.466583 0.419953 0.847690 0.183542
H8    H     H_    0.532361 0.583327 0.153198 0.162143
H9    H     H_    0.548418 0.621008 0.933127 0.194683
H10   H     H_    0.452072 0.377580 0.066486 0.188500
H11   H     H_    0.273543 0.510504 0.738465 0.132326
H12   H     H_    0.728101 0.466798 0.261890 0.144571
H13   H     H_    0.665103 0.537797 0.731035 0.163364
H14   H     H_    0.334400 0.494335 0.280217 0.158286
H15   H     H_    0.753035 0.539440 0.728199 0.140581
H16   H     H_    0.246563 0.497204 0.289331 0.139576
O13   O     O_3   0.865613 0.146918 0.346101 -0.531111
C47   C     C_3   0.857006 0.108885 0.465500 -0.243279
H17   H     H_    0.841505 0.006081 0.420952 0.200789
H18   H     H_    0.830265 0.169762 0.528003 0.192685
H19   H     H_    0.890864 0.113709 0.543623 0.102132
O14   O     O_3   0.133501 0.861156 0.588983 -0.525463
C48   C     C_3   0.156220 0.916687 0.737928 -0.256808
H20   H     H_    0.172707 0.015318 0.756272 0.194390
H21   H     H_    0.185897 0.857857 0.764953 0.185574
H22   H     H_    0.130007 0.928381 0.816597 0.112461
O15   O     O_3   0.964275 0.163380 0.302104 -0.570450
C49   C     C_3   0.958097 0.044228 0.326215 -0.213368
H23   H     H_    0.924469 0.987194 0.257054 0.220131
H24   H     H_    0.958909 0.057508 0.444230 0.124352
H25   H     H_    0.988983 0.984556 0.289992 0.192640
O16   O     O_3   0.030748 0.845679 0.533990 -0.570725
C50   C     C_3   0.042731 0.968899 0.646959 -0.310176
H26   H     H_    0.072641 0.022947 0.623099 0.219389
H27   H     H_    0.051057 0.962410 0.758788 0.138991
H28   H     H_    0.010627 0.028156 0.648475 0.153460
H29   H     H_    0.032316 0.193896 0.496272 0.159859
H30   H     H_    0.975084 0.833925 0.693266 0.170497
O17   O     O_3   0.451512 0.841212 0.346505 -0.560800
C51   C     C_3   0.401639 0.861694 0.318058 -0.311758
H31   H     H_    0.396535 0.955836 0.299528 0.154684
H32   H     H_    0.382132 0.857519 0.408383 0.156686
H33   H     H_    0.384750 0.782276 0.215668 0.194046
O18   O     O_3   0.467291 0.156114 0.654539 -0.568056
C52   C     C_3   0.421299 0.127972 0.686216 -0.352028
H34   H     H_    0.420132 0.034412 0.707398 0.167332
H35   H     H_    0.391383 0.126124 0.596445 0.163498
H36   H     H_    0.414743 0.206531 0.788078 0.176183

loop_
_geom_bond_atom_site_label_1
_geom_bond_atom_site_label_2
_geom_bond_distance
_ccdc_geom_bond_type
N4    C46   1.295956 D    
C48   H20   1.109416 S    
C13   C15   1.393710 A    
N1    C17   1.433367 S    
C51   H32   1.114154 S    
C50   H26   1.108731 S    
C32   C39   1.408803 A    
C31   C33   1.423027 A    
C5    N1    1.363814 A    
C41   H4    1.087371 S    
C19   C25   1.409375 A    
C42   H3    1.087325 S    
O1    C1    1.290207 A    
C37   O13   1.383308 S    
C21   C23   1.396488 A    
C10   C12   1.392436 A    
C52   H35   1.114022 S    
C25   C38   1.416847 A    
C29   C35   1.424764 A    
C30   C36   1.428217 A    
O18   C52   1.410713 S    
C42   C44   1.346034 D    
C45   H8    1.085099 S    
C14   C28   1.406603 A    
O4    Cu1   1.929725 S    
C43   O18   1.391039 S    
C4    C28   1.473548 S    
C35   O15   1.395204 S    
C24   C40   1.385942 A    
N3    C45   1.296126 D    
C36   O16   1.394194 S    
C40   H30   1.072801 S    
C9    H16   1.082836 S    
C13   H5    1.083096 S    
O6    C4    1.298569 A    
C32   C34   1.421407 A    
Cu1   Cu2   2.678268 S    
O2    C2    1.289816 A    
C5    C21   1.399602 A    
C51   H31   1.111580 S    
C50   H27   1.112574 S    
C36   C38   1.419922 A    
O13   C47   1.416666 S    
Cu1   N4    2.012095 S    
C41   C43   1.345407 D    
C12   H13   1.082900 S    
C1    C41   1.456823 S    
C45   C46   1.501552 S    
C2    C42   1.457446 S    
O4    C2    1.295011 A    
C52   H36   1.109016 S    
C11   C27   1.405979 A    
O15   C49   1.412531 S    
C38   O14   1.383832 S    
O14   C48   1.416528 S    
C19   C34   1.416557 A    
N4    H9    1.030779 S    
C49   H25   1.109399 S    
N3    H10   1.030796 S    
C11   H14   1.082958 S    
C35   C37   1.419410 A    
C9    C17   1.400029 A    
C23   H1    1.083589 S    
O5    C3    1.297195 A    
O7    Cu2   1.943501 S    
C10   C18   1.399123 A    
C24   H2    1.083551 S    
C16   H12   1.082794 S    
C13   C27   1.406029 A    
C10   H15   1.082966 S    
C7    C25   1.416780 A    
C29   C33   1.413120 A    
C6    N2    1.364201 A    
C8    C26   1.416825 A    
O16   C50   1.414047 S    
C49   H24   1.110177 S    
O7    C3    1.296914 A    
O3    Cu2   1.929724 S    
O8    C4    1.296083 A    
N2    C8    1.367132 A    
C26   C37   1.417172 A    
C47   H18   1.110063 S    
C48   H21   1.110293 S    
C20   C26   1.410844 A    
O1    Cu1   1.939219 S    
C50   H28   1.108381 S    
C12   C28   1.405852 A    
C44   O17   1.390696 S    
N2    C18   1.434104 S    
C29   C32   1.421264 A    
C5    O9    1.350006 S    
C30   C31   1.425689 A    
C20   C33   1.417058 A    
O6    Cu2   1.952843 S    
N1    C7    1.367091 A    
C14   H6    1.082950 S    
O3    C1    1.294382 A    
O8    Cu1   1.943507 S    
C7    O12   1.348988 S    
C8    O11   1.348813 S    
C15   H11   1.082896 S    
C47   H19   1.112039 S    
C39   H29   1.075025 S    
C30   C34   1.415687 A    
C22   C24   1.396068 A    
C15   C17   1.399356 A    
C52   H34   1.111355 S    
C6    C22   1.399605 A    
C31   C40   1.408884 A    
C16   C18   1.400660 A    
C46   H7    1.084179 S    
C14   C16   1.396472 A    
C49   H23   1.108894 S    
C19   C21   1.412290 A    
Cu2   N3    2.012093 S    
C3    C27   1.472213 S    
C20   C22   1.411136 A    
C9    C11   1.394964 A    
C43   C44   1.472711 S    
O2    Cu2   1.939219 S    
O5    Cu1   1.952843 S    
C6    O10   1.350060 S    
C47   H17   1.109258 S    
C48   H22   1.111184 S    
O17   C51   1.410101 S    
C51   H33   1.109294 S    
C23   C39   1.385671 A    
