data_mof_unit_50398.cif
_audit_creation_date              2012-12-10T17:33:04-0500
_audit_creation_method            fapswitch 2.2
_symmetry_space_group_name_H-M    P1
_symmetry_Int_Tables_number       1
_space_group_crystal_system       triclinic
_cell_length_a                    12.358627
_cell_length_b                    13.276604
_cell_length_c                    14.2267
_cell_angle_alpha                 93.519599
_cell_angle_beta                  107.444182
_cell_angle_gamma                 117.066799
_cell_volume                      1928.56236799

loop_
_atom_site_label
_atom_site_type_symbol
_atom_type_description
_atom_site_fract_x
_atom_site_fract_y
_atom_site_fract_z
_atom_type_partial_charge
C1    C     C_R   0.651040 0.714103 0.508901 0.775835
C2    C     C_R   0.843193 0.492380 0.918268 0.091073
C3    C     C_R   0.795033 0.510793 0.992490 0.145252
C4    C     C_R   0.946372 0.466166 0.944334 0.071867
C5    C     C_R   0.010766 0.472327 0.047378 0.099400
C6    C     C_R   0.958310 0.488974 0.119184 -0.217800
C7    C     C_R   0.851835 0.506922 0.091737 -0.232843
C8    C     C_R   0.984610 0.430799 0.870203 -0.246997
C9    C     C_R   0.088966 0.410618 0.896663 -0.158443
C10   C     C_R   0.161665 0.426623 0.998254 0.057375
C11   C     C_R   0.123680 0.459118 0.074627 0.039882
C12   C     C_R   0.618344 0.516921 0.686865 0.804044
C13   C     C_R   0.271659 0.410753 0.024829 0.316198
C14   C     C_R   0.344743 0.427963 0.127368 0.093692
C15   C     C_R   0.201941 0.480859 0.176189 -0.317925
C16   C     C_R   0.138764 0.966750 0.361443 -0.187270
C17   C     C_R   0.249143 0.162345 0.463188 -0.049757
C18   C     C_R   0.732512 0.921068 0.577022 -0.186604
C19   C     C_R   0.823735 0.037909 0.597109 -0.135372
C20   C     C_R   0.924262 0.072572 0.560292 -0.167337
C21   C     C_R   0.932804 0.990283 0.498833 0.078525
C22   C     C_R   0.830535 0.873007 0.468610 0.080315
C23   C     C_R   0.345278 0.285291 0.484991 0.808337
C24   C     C_R   0.038810 0.020703 0.465583 0.072085
C25   C     C_R   0.034653 0.937351 0.394943 0.166437
C26   C     C_R   0.925508 0.826515 0.356829 -0.238147
C27   C     C_R   0.824132 0.795137 0.392038 -0.198079
C28   C     C_R   0.149833 0.131460 0.501365 -0.240430
C29   C     C_R   0.245321 0.079227 0.394866 -0.192320
C30   C     C_R   0.736624 0.837395 0.515142 -0.101622
C31   C     C_R   0.253763 0.685550 0.661905 -0.287671
C32   C     C_R   0.654929 0.342661 0.362865 0.085577
C33   C     C_R   0.732712 0.308875 0.331840 -0.253590
C34   C     C_R   0.380586 0.481363 0.312611 0.833418
C35   C     C_R   0.867940 0.368092 0.383140 -0.202160
C36   C     C_R   0.927859 0.462818 0.466709 -0.006530
C37   C     C_R   0.843808 0.494914 0.495375 0.286472
C38   C     C_R   0.067432 0.526945 0.522658 -0.038601
C39   C     C_R   0.118981 0.621342 0.605426 0.173209
C40   C     C_R   0.036048 0.651619 0.631584 -0.278222
C41   C     C_R   0.902126 0.590270 0.577852 -0.196056
C42   C     C_R   0.159316 0.502194 0.500858 0.017692
C43   C     C_R   0.338196 0.656796 0.636708 0.078788
C44   C     C_R   0.680631 0.520486 0.793455 -0.075308
C45   C     C_R   0.309621 0.463807 0.203546 -0.110125
C46   C     C_R   0.690008 0.532539 0.966331 -0.156043
C47   C     C_R   0.631797 0.535700 0.866946 -0.138005
C48   C     C_R   0.788021 0.503049 0.820451 -0.252253
Cu1   Cu    Cu3+1 0.416420 0.526630 0.522910 0.940822
Cu2   Cu    Cu3+1 0.583580 0.473370 0.477090 0.932575
H1    H     H_    0.814435 0.518806 0.148917 0.146986
H2    H     H_    0.321696 0.102344 0.364285 0.149043
H3    H     H_    0.918487 0.763562 0.299660 0.143658
H4    H     H_    0.135975 0.903665 0.307287 0.137962
H5    H     H_    0.161518 0.196570 0.558546 0.158708
H6    H     H_    0.660267 0.895971 0.612081 0.153265
H7    H     H_    0.991668 0.164715 0.579457 0.134986
H8    H     H_    0.818928 0.101859 0.644181 0.146436
H9    H     H_    0.739482 0.709924 0.356233 0.176974
H10   H     H_    0.442133 0.706261 0.680275 0.119119
H11   H     H_    0.182584 0.514341 0.236200 0.173401
H12   H     H_    0.075227 0.724101 0.694709 0.159315
H13   H     H_    0.293693 0.757804 0.725373 0.142040
H14   H     H_    0.128480 0.431802 0.439327 0.121254
H15   H     H_    0.550222 0.295952 0.322365 0.132451
H16   H     H_    0.923191 0.338149 0.355810 0.137510
H17   H     H_    0.687891 0.236328 0.267641 0.151159
H18   H     H_    0.847921 0.621120 0.603984 0.206237
H19   H     H_    0.112457 0.383422 0.835872 0.201882
H20   H     H_    0.652347 0.546254 0.022566 0.145197
H21   H     H_    0.548907 0.549847 0.847729 0.183789
H22   H     H_    0.828622 0.500057 0.763896 0.157400
H23   H     H_    0.994294 0.484613 0.196934 0.144422
H24   H     H_    0.932914 0.413709 0.789996 0.148584
N1    N     N_R   0.290690 0.566960 0.557640 -0.176963
N2    N     N_R   0.709100 0.433710 0.442970 -0.205316
O1    O     O_R   0.545970 0.684450 0.528810 -0.581127
O2    O     O_R   0.687130 0.639470 0.490120 -0.603482
O3    O     O_R   0.519670 0.535100 0.660030 -0.578080
O4    O     O_R   0.660830 0.490120 0.621340 -0.601284
O5    O     O_R   0.312870 0.360530 0.509880 -0.582632
O6    O     O_R   0.454030 0.315550 0.471190 -0.587745
O7    O     O_R   0.339170 0.509880 0.378660 -0.596244
O8    O     O_R   0.480330 0.464900 0.339970 -0.557441
Cl1   Cl    Cl    0.320467 0.369253 0.930980 -0.705458
N3    N     N_3   0.454891 0.409629 0.154128 -0.565355
H25   H     H_    0.522876 0.466089 0.126095 0.236695
H26   H     H_    0.423269 0.323930 0.120446 0.249292

loop_
_geom_bond_atom_site_label_1
_geom_bond_atom_site_label_2
_ccdc_geom_bond_type
C23   O6    A    
C17   C29   A    
C19   C20   A    
C4    C8    A    
Cu2   O8    S    
C33   H17   S    
C42   N1    A    
C17   C23   S    
C31   C43   A    
C36   C37   A    
C9    H19   S    
C5    C11   A    
C3    C7    A    
C5    C6    A    
N3    H26   S    
C12   O3    A    
C40   H12   S    
C18   C19   A    
Cu1   O5    S    
C11   C15   A    
C35   C36   A    
C31   C39   A    
C8    C9    A    
Cu1   N1    S    
C18   C30   A    
C41   H18   S    
C23   O5    A    
C9    C10   A    
C44   C47   A    
C18   H6    S    
C21   C22   A    
C1    O2    A    
C34   O8    A    
C48   H22   S    
Cu2   O2    S    
C28   H5    S    
C14   C45   A    
C19   H8    S    
C43   N1    A    
C31   H13   S    
C24   C25   A    
C14   N3    S    
C39   C40   A    
N3    H25   S    
C35   H16   S    
C2    C48   A    
C25   C26   A    
Cu1   O3    S    
C2    C4    A    
Cu2   N2    S    
C8    H24   S    
C15   H11   S    
C34   C45   S    
C47   H21   S    
C43   H10   S    
C40   C41   A    
C37   N2    A    
C22   C27   A    
C26   C27   A    
C34   O7    A    
C15   C45   A    
C26   H3    S    
C42   H14   S    
Cu2   O6    S    
C6    H23   S    
C16   C25   A    
C46   C47   A    
C22   C30   A    
C17   C28   A    
C24   C28   A    
C4    C5    A    
C10   C13   A    
Cu2   O4    S    
C32   N2    A    
C38   C42   A    
C6    C7    A    
C3    C46   A    
C32   C33   A    
Cu1   O7    S    
C36   C38   A    
C2    C3    A    
C16   C29   A    
C7    H1    S    
C12   C44   S    
C27   H9    S    
C38   C39   A    
C12   O4    A    
C1    C30   S    
C33   C35   A    
Cu1   O1    S    
C37   C41   A    
C16   H4    S    
C46   H20   S    
C10   C11   A    
C20   C21   A    
Cu1   Cu2   S    
C21   C24   A    
C13   Cl1   S    
C1    O1    A    
C20   H7    S    
C13   C14   A    
C44   C48   A    
C32   H15   S    
C29   H2    S    
