data_mof_unit_16848.cif
_audit_creation_date              2012-12-10T20:26:32-0500
_audit_creation_method            fapswitch 2.2
_symmetry_space_group_name_H-M    P1
_symmetry_Int_Tables_number       1
_space_group_crystal_system       triclinic
_cell_length_a                    10.54736
_cell_length_b                    10.774217
_cell_length_c                    9.937354
_cell_angle_alpha                 88.839424
_cell_angle_beta                  86.796952
_cell_angle_gamma                 91.917532
_cell_volume                      1126.60384962

loop_
_atom_site_label
_atom_site_type_symbol
_atom_type_description
_atom_site_fract_x
_atom_site_fract_y
_atom_site_fract_z
_atom_type_partial_charge
C1    C     C_R   0.506886 0.260254 0.500375 1.009515
C2    C     C_R   0.531918 0.129505 0.499562 -0.175340
C3    C     C_R   0.569272 0.069676 0.378520 0.321714
C4    C     C_R   0.570719 0.938322 0.378675 0.343392
C5    C     C_R   0.525615 0.871781 0.496400 -0.163521
C6    C     C_R   0.513303 0.933766 0.617301 -0.118337
C7    C     C_3   0.419764 0.922111 0.736534 0.413799
C8    C     C_3   0.433740 0.064154 0.743231 0.514144
C9    C     C_R   0.391127 0.471491 0.077900 0.100950
C10   C     C_R   0.601495 0.546744 0.063812 0.336498
C11   C     C_R   0.601747 0.546601 0.921092 0.451581
C12   C     C_R   0.264342 0.519349 0.503735 0.837401
C13   C     C_R   0.390041 0.476667 0.935964 0.143503
C14   C     C_3   0.304608 0.365411 0.932076 0.150480
C15   C     C_3   0.313919 0.351873 0.084472 0.081970
C16   C     C_R   0.505420 0.739800 0.498465 0.935691
C17   C     C_R   0.738227 0.498113 0.496079 0.758128
C18   C     C_2   0.935917 0.592193 0.418961 -0.067031
C19   C     C_2   0.873673 0.495576 0.483435 0.352087
C20   C     C_2   0.073930 0.600084 0.408099 0.468696
C21   C     C_2   0.135724 0.565538 0.516874 0.219085
C22   C     C_R   0.520191 0.059966 0.619371 -0.008250
H1    H     H_    0.884861 0.667830 0.375751 0.142328
H2    H     H_    0.347255 0.293140 0.870727 0.167618
H3    H     H_    0.370880 0.271834 0.114237 0.139909
N1    N     N_R   0.499170 0.499140 0.142800 -0.188383
N2    N     N_R   0.499170 0.499180 0.857150 -0.202628
O1    O     O_R   0.500020 0.316790 0.614690 -0.587360
O2    O     O_R   0.500000 0.316760 0.385350 -0.559936
O3    O     O_R   0.319080 0.500020 0.614640 -0.582476
O4    O     O_R   0.319070 0.499980 0.385300 -0.593317
O5    O     O_R   0.500000 0.683240 0.614650 -0.625928
O6    O     O_R   0.499980 0.683210 0.385310 -0.557647
O7    O     O_R   0.680930 0.500020 0.614700 -0.592468
O8    O     O_R   0.680920 0.499980 0.385360 -0.588940
Zn1   Zn    Zn3+2 0.500010 0.500020 0.653130 1.038274
Zn2   Zn    Zn3+2 0.499990 0.499980 0.346870 1.072626
Br1   Br    Br    0.529884 0.131515 0.889599 -0.505301
Br2   Br    Br    0.742811 0.630430 0.138620 -0.275703
O9    O     O_3   0.703835 0.602676 0.849449 -0.649155
H4    H     H_    0.669035 0.653047 0.776902 0.382713
O10   O     O_3   0.184233 0.397753 0.893265 -0.649857
H5    H     H_    0.136905 0.318204 0.879979 0.379130
Br3   Br    Br    0.151860 0.358197 0.187266 -0.286908
O11   O     O_3   0.936210 0.392967 0.528396 -0.696110
H6    H     H_    0.872060 0.332071 0.569656 0.349859
O12   O     O_3   0.133177 0.640695 0.286774 -0.682258
H7    H     H_    0.216592 0.680116 0.304947 0.340517
O13   O     O_3   0.072255 0.573326 0.642828 -0.679193
H8    H     H_    0.130264 0.557032 0.715221 0.421312
O14   O     O_3   0.597827 0.139637 0.262042 -0.715024
H9    H     H_    0.573913 0.090513 0.183724 0.380406
O15   O     O_3   0.612448 0.874434 0.266537 -0.690746
H10   H     H_    0.678401 0.926188 0.214866 0.376063
Br4   Br    Br    0.252810 0.858054 0.689271 -0.406341
Br5   Br    Br    0.480338 0.830279 0.889291 -0.396958
O16   O     O_3   0.321637 0.125209 0.719460 -0.742735
H11   H     H_    0.263877 0.107452 0.800294 0.358463

loop_
_geom_bond_atom_site_label_1
_geom_bond_atom_site_label_2
_ccdc_geom_bond_type
C2    C22   A    
C1    O1    A    
C8    C22   S    
C19   O11   S    
N1    Zn2   S    
C6    C7    S    
O3    Zn1   S    
C16   O6    A    
C16   O5    A    
O7    Zn1   S    
O12   H7    S    
C11   N2    A    
C14   O10   S    
C10   N1    A    
C1    O2    A    
C2    C3    A    
C9    C15   S    
C7    C8    S    
O15   H10   S    
C17   O7    A    
O16   H11   S    
C11   O9    S    
C8    Br1   S    
C7    Br5   S    
C7    Br4   S    
O5    Zn1   S    
C21   O13   S    
O9    H4    S    
C17   C19   S    
C15   Br3   S    
C18   C19   D    
C18   C20   S    
C12   O4    A    
C5    C6    A    
N2    Zn1   S    
C13   C14   S    
C15   H3    S    
C4    O15   S    
O10   H5    S    
O2    Zn2   S    
C18   H1    S    
C6    C22   A    
O4    Zn2   S    
O14   H9    S    
C20   C21   D    
O1    Zn1   S    
C1    C2    S    
C10   C11   A    
C14   H2    S    
O13   H8    S    
C9    C13   A    
C14   C15   S    
C13   N2    A    
C5    C16   S    
C3    O14   S    
C17   O8    A    
C9    N1    A    
C12   O3    A    
O11   H6    S    
C12   C21   S    
C10   Br2   S    
C8    O16   S    
O6    Zn2   S    
C20   O12   S    
C3    C4    A    
O8    Zn2   S    
C4    C5    A    
