data_mof_unit_42998.cif
_audit_creation_date              2012-12-10T17:49:30-0500
_audit_creation_method            fapswitch 2.2
_symmetry_space_group_name_H-M    P1
_symmetry_Int_Tables_number       1
_space_group_crystal_system       triclinic
_cell_length_a                    14.71265
_cell_length_b                    14.677354
_cell_length_c                    15.86922
_cell_angle_alpha                 76.620905
_cell_angle_beta                  102.712748
_cell_angle_gamma                 114.934014
_cell_volume                      2993.81141613

loop_
_atom_site_label
_atom_site_type_symbol
_atom_type_description
_atom_site_fract_x
_atom_site_fract_y
_atom_site_fract_z
_atom_type_partial_charge
C1    C     C_R   0.880406 0.312115 0.514281 0.794824
C2    C     C_3   0.991526 0.392587 0.071137 -0.504386
C3    C     C_3   0.000565 0.498001 0.083438 0.176538
C4    C     C_3   0.099015 0.582573 0.050979 0.353334
C5    C     C_3   0.096024 0.583150 0.952429 -0.545586
C6    C     C_1   0.000942 0.498759 0.175602 -0.038996
C7    C     C_1   0.999381 0.499371 0.824703 -0.028860
C8    C     C_1   0.999634 0.500354 0.749043 -0.144254
C9    C     C_R   0.812986 0.204107 0.526935 -0.053878
C10   C     C_R   0.187057 0.795843 0.476907 -0.080177
C11   C     C_R   0.781797 0.029076 0.590389 -0.177076
C12   C     C_R   0.000005 0.500400 0.659570 0.832663
C13   C     C_R   0.849299 0.129418 0.571649 -0.188060
C14   C     C_R   0.709451 0.176877 0.498539 -0.245924
C15   C     C_R   0.639148 0.077822 0.522001 0.077384
C16   C     C_R   0.677174 0.003105 0.567222 0.081370
C17   C     C_R   0.532743 0.051812 0.503572 0.020566
C18   C     C_R   0.465602 0.948368 0.523177 -0.056606
C19   C     C_R   0.506570 0.876395 0.573203 0.409346
C20   C     C_R   0.610797 0.904086 0.592071 -0.292044
C21   C     C_R   0.491193 0.126545 0.469890 -0.208655
C22   C     C_R   0.387569 0.101014 0.456005 -0.237298
C23   C     C_R   0.119601 0.687854 0.484672 0.785361
C24   C     C_R   0.321265 0.999644 0.467674 0.168128
C25   C     C_R   0.359871 0.922331 0.495666 0.085762
C26   C     C_R   0.216438 0.974369 0.449634 -0.206354
C27   C     C_R   0.149472 0.872691 0.456683 -0.194884
C28   C     C_R   0.291467 0.821763 0.491633 -0.219043
C29   C     C_R   0.682241 0.601365 0.323039 -0.301230
C30   C     C_R   0.775813 0.597376 0.357723 -0.024183
C31   C     C_R   0.726228 0.536142 0.499194 0.639189
C32   C     C_R   0.623386 0.522566 0.464907 -0.109391
C33   C     C_R   0.604996 0.561442 0.375337 0.025040
C34   C     C_R   0.000324 0.499994 0.340374 0.822512
C35   C     C_R   0.539650 0.475552 0.515068 -0.077013
C36   C     C_R   0.444994 0.485167 0.477252 -0.106358
C37   C     C_R   0.429262 0.518703 0.385573 0.440828
C38   C     C_R   0.509444 0.558875 0.337310 -0.233304
C39   C     C_R   0.542410 0.411201 0.597475 0.476738
C40   C     C_R   0.461524 0.373856 0.645639 -0.289281
C41   C     C_R   0.375211 0.394473 0.613812 0.082472
C42   C     C_R   0.366810 0.453397 0.530800 -0.016148
C43   C     C_R   0.295983 0.354783 0.664220 -0.283459
C44   C     C_R   0.210084 0.376294 0.633285 0.073164
C45   C     C_3   0.995096 0.390684 0.973138 0.471603
C46   C     C_R   0.280940 0.479738 0.506416 0.056431
C47   C     C_3   0.906963 0.518881 0.929231 -0.156329
C48   C     C_3   0.907707 0.516866 0.027829 -0.445304
C49   C     C_1   0.000842 0.499399 0.250983 -0.187839
C50   C     C_3   0.998480 0.496307 0.917682 0.101394
Cu1   Cu    Cu3+1 0.081750 0.475690 0.522550 0.935996
Cu2   Cu    Cu3+1 0.918250 0.524310 0.477450 0.960178
H1    H     H_    0.919090 0.334611 0.092497 0.168032
H2    H     H_    0.052142 0.372322 0.116108 0.163738
H3    H     H_    0.100034 0.657206 0.057663 0.061399
H4    H     H_    0.639755 0.847532 0.628896 0.158940
H5    H     H_    0.318323 0.762705 0.496349 0.214142
H6    H     H_    0.068795 0.854428 0.444338 0.153735
H7    H     H_    0.359206 0.161029 0.433426 0.135850
H8    H     H_    0.811189 0.972326 0.625609 0.134924
H9    H     H_    0.929370 0.148805 0.593647 0.150939
H10   H     H_    0.685750 0.235149 0.458707 0.147223
H11   H     H_    0.536475 0.206708 0.457252 0.131900
H12   H     H_    0.186403 0.033217 0.430202 0.130893
H13   H     H_    0.495481 0.585834 0.267962 0.148094
H14   H     H_    0.275122 0.535063 0.449835 0.181453
H15   H     H_    0.148614 0.344969 0.671969 0.150410
H16   H     H_    0.466529 0.327471 0.709048 0.159223
H17   H     H_    0.668925 0.631173 0.254358 0.152809
H18   H     H_    0.832502 0.622771 0.314971 0.158976
H19   H     H_    0.918041 0.597435 0.895036 0.134873
H20   H     H_    0.300322 0.307212 0.727112 0.149588
H21   H     H_    0.837343 0.456643 0.051585 0.217907
H22   H     H_    0.909869 0.590733 0.037042 0.157935
H23   H     H_    0.164839 0.576394 0.941516 0.202209
H24   H     H_    0.098520 0.658125 0.914797 0.147127
N1    N     N_R   0.795410 0.560790 0.443550 -0.232005
N2    N     N_R   0.204590 0.439170 0.556520 -0.201891
O1    O     O_R   0.977910 0.338120 0.529720 -0.588599
O2    O     O_R   0.839850 0.379180 0.491640 -0.575255
O3    O     O_R   0.069060 0.479460 0.639610 -0.582418
O4    O     O_R   0.931000 0.520530 0.601530 -0.529142
O5    O     O_R   0.160150 0.620820 0.508360 -0.594248
O6    O     O_R   0.022090 0.661880 0.470280 -0.589250
O7    O     O_R   0.069000 0.479470 0.398470 -0.577984
O8    O     O_R   0.930940 0.520540 0.360390 -0.591936
C51   C     C_2   0.089920 0.376058 0.965854 0.294479
H25   H     H_    0.157449 0.401045 0.013248 0.088309
O9    O     O_2   0.092503 0.339763 0.904927 -0.548141
O10   O     O_3   0.906760 0.312447 0.937840 -0.620954
C52   C     C_3   0.890611 0.212645 0.983266 0.073318
H26   H     H_    0.828761 0.188542 0.023272 0.142888
H27   H     H_    0.958259 0.206033 0.027901 0.131084
C53   C     C_3   0.857209 0.140652 0.916386 -0.288923
H28   H     H_    0.789450 0.146561 0.871905 0.219463
H29   H     H_    0.918793 0.163273 0.876433 0.250000
C54   C     C_3   0.831633 0.030520 0.960764 -0.948314
H30   H     H_    0.898935 0.022445 0.004455 0.260404
H31   H     H_    0.807769 0.980573 0.910290 0.259584
H32   H     H_    0.768666 0.005632 0.999635 0.255394
O11   O     O_3   0.446905 0.778380 0.606747 -0.624879
C55   C     C_3   0.420315 0.778876 0.686833 0.031037
H33   H     H_    0.382303 0.832578 0.678722 0.145334
H34   H     H_    0.489007 0.800966 0.736635 0.150896
C56   C     C_3   0.346995 0.671699 0.718987 -0.278247
H35   H     H_    0.279414 0.648131 0.668649 0.242675
H36   H     H_    0.384480 0.617476 0.728897 0.231518
C57   C     C_3   0.312643 0.666526 0.804570 -0.951100
H37   H     H_    0.378748 0.689048 0.856374 0.256323
H38   H     H_    0.260619 0.587371 0.825977 0.272786
H39   H     H_    0.271770 0.717543 0.795390 0.251093
O12   O     O_3   0.761050 0.540241 0.586796 -0.549443
C58   C     C_3   0.785963 0.639838 0.601591 0.052942
H40   H     H_    0.720295 0.662919 0.578303 0.127328
H41   H     H_    0.851390 0.694850 0.567494 0.137579
C59   C     C_3   0.815003 0.643110 0.699605 -0.286947
H42   H     H_    0.750442 0.587627 0.734058 0.256064
H43   H     H_    0.880977 0.621433 0.724068 0.210560
C60   C     C_3   0.842109 0.748943 0.719872 -0.956290
H44   H     H_    0.907255 0.805634 0.686761 0.252988
H45   H     H_    0.863258 0.748602 0.791532 0.259753
H46   H     H_    0.776344 0.771380 0.697750 0.255155
O13   O     O_3   0.334777 0.508362 0.339384 -0.652627
C61   C     C_3   0.276856 0.405634 0.327616 0.051905
H47   H     H_    0.195762 0.392789 0.321158 0.185932
H48   H     H_    0.290238 0.349708 0.384625 0.125293
C62   C     C_3   0.295338 0.384865 0.243853 -0.354170
H49   H     H_    0.282003 0.440822 0.187466 0.252947
H50   H     H_    0.375012 0.392997 0.250339 0.212892
C63   C     C_3   0.225366 0.277704 0.225830 -0.926513
H51   H     H_    0.144920 0.267503 0.218116 0.247240
H52   H     H_    0.239882 0.265291 0.164483 0.262408
H53   H     H_    0.239409 0.220205 0.280387 0.253726
O14   O     O_3   0.622997 0.382195 0.631609 -0.569790
C64   C     C_3   0.594699 0.276926 0.633279 0.048640
H54   H     H_    0.641072 0.269325 0.591048 0.174386
H55   H     H_    0.513529 0.235190 0.608061 0.124047
C65   C     C_3   0.618964 0.227086 0.726554 -0.313235
H56   H     H_    0.700455 0.266608 0.750702 0.229789
H57   H     H_    0.573587 0.234312 0.770172 0.217877
C66   C     C_3   0.595773 0.114620 0.730677 -0.938229
H58   H     H_    0.516324 0.074116 0.701753 0.257894
H59   H     H_    0.606478 0.078967 0.799885 0.252977
H60   H     H_    0.648014 0.106299 0.694941 0.269535
C67   C     C_2   0.804774 0.450783 0.887641 0.403350
H61   H     H_    0.798954 0.400701 0.844369 0.126928
O15   O     O_2   0.727383 0.455941 0.898074 -0.560754
O16   O     O_3   0.184298 0.563335 0.099855 -0.624411
C68   C     C_3   0.261861 0.651296 0.130140 0.067677
H62   H     H_    0.312208 0.625540 0.184078 0.206691
H63   H     H_    0.232196 0.693784 0.159127 0.128822
C69   C     C_3   0.325102 0.720328 0.057674 -0.393386
H64   H     H_    0.350813 0.674814 0.028551 0.230081
H65   H     H_    0.278339 0.752983 0.005424 0.212440
C70   C     C_3   0.417444 0.807286 0.093261 -0.903604
H66   H     H_    0.393464 0.854372 0.122077 0.258997
H67   H     H_    0.461202 0.856232 0.039253 0.255479
H68   H     H_    0.467218 0.776848 0.144029 0.254560

loop_
_geom_bond_atom_site_label_1
_geom_bond_atom_site_label_2
_ccdc_geom_bond_type
C10   C27   A    
C64   C65   S    
C51   H25   S    
C47   C67   S    
C43   H20   S    
C70   H67   S    
C11   C13   A    
C41   C42   A    
C63   H52   S    
C35   C36   A    
C20   H4    S    
C3    C6    S    
Cu1   O7    S    
C54   H30   S    
O13   C61   S    
C28   H5    S    
C57   H37   S    
C25   C28   A    
C56   H36   S    
C26   C27   A    
O11   C55   S    
C23   O5    A    
C36   C37   A    
C45   C51   S    
C24   C26   A    
C46   H14   S    
C68   H63   S    
C67   H61   S    
C55   H34   S    
C15   C16   A    
C4    O16   S    
C29   C33   A    
C3    C48   S    
C59   H42   S    
C55   C56   S    
C64   H55   S    
C18   C19   A    
C34   O8    A    
Cu2   O6    S    
C9    C13   A    
C26   H12   S    
C30   H18   S    
C37   O13   S    
C30   N1    A    
C36   C42   A    
C47   C48   S    
C57   H38   S    
C31   O12   S    
C69   C70   S    
C62   H49   S    
C29   C30   A    
Cu1   O3    S    
C8    C12   S    
C53   H29   S    
C58   C59   S    
C21   C22   A    
C70   H68   S    
C41   C43   A    
C53   H28   S    
C18   C25   A    
O12   C58   S    
C67   O15   D    
C31   N1    A    
C47   C50   S    
C29   H17   S    
C60   H45   S    
C2    C45   S    
C56   C57   S    
C21   H11   S    
C23   O6    A    
Cu1   Cu2   S    
C32   C35   A    
C48   H22   S    
C64   H54   S    
C1    C9    S    
O16   C68   S    
C2    H2    S    
C66   H60   S    
C52   H26   S    
C46   N2    A    
Cu2   N1    S    
C53   C54   S    
C44   N2    A    
C65   C66   S    
C17   C21   A    
C34   O7    A    
C5    H23   S    
C35   C39   A    
C9    C14   A    
C62   H50   S    
C37   C38   A    
C52   H27   S    
C11   C16   A    
C31   C32   A    
C38   H13   S    
C16   C20   A    
C17   C18   A    
C12   O4    A    
C24   C25   A    
Cu2   O4    S    
C45   O10   S    
C47   H19   S    
C65   H57   S    
C61   C62   S    
C40   C41   A    
C69   H65   S    
C51   O9    D    
C4    H3    S    
C42   C46   A    
C43   C44   A    
C1    O1    A    
C22   C24   A    
C5    C50   S    
C68   C69   S    
C63   H53   S    
C11   H8    S    
Cu1   O5    S    
C22   H7    S    
C54   H32   S    
C61   H48   S    
C58   H40   S    
C60   H46   S    
C10   C28   A    
C15   C17   A    
C34   C49   S    
C54   H31   S    
C48   H21   S    
C7    C50   S    
C4    C5    S    
C2    H1    S    
C60   H44   S    
C57   H39   S    
O14   C64   S    
C10   C23   S    
C56   H35   S    
C33   C38   A    
C59   C60   S    
C32   C33   A    
C19   C20   A    
C66   H59   S    
C63   H51   S    
Cu1   N2    S    
Cu2   O2    S    
C68   H62   S    
C52   C53   S    
C19   O11   S    
O10   C52   S    
C45   C50   S    
C27   H6    S    
Cu2   O8    S    
C59   H43   S    
C12   O3    A    
C2    C3    S    
C6    C49   T    
C55   H33   S    
Cu1   O1    S    
C62   C63   S    
C7    C8    T    
C65   H56   S    
C39   C40   A    
C13   H9    S    
C69   H64   S    
C40   H16   S    
C70   H66   S    
C1    O2    A    
C14   C15   A    
C44   H15   S    
C5    H24   S    
C66   H58   S    
C3    C4    S    
C61   H47   S    
C58   H41   S    
C39   O14   S    
C14   H10   S    
