data_mof_unit_63300.cif
_audit_creation_date              2013-03-05T16:27:22-0500
_audit_creation_method            fapswitch 2.2
_symmetry_space_group_name_H-M    P1
_symmetry_Int_Tables_number       1
_space_group_crystal_system       triclinic
_cell_length_a                    28.809801
_cell_length_b                    18.292346
_cell_length_c                    21.740422
_cell_angle_alpha                 90.663902
_cell_angle_beta                  140.731083
_cell_angle_gamma                 89.606449
_cell_volume                      7251.41927785

loop_
_atom_site_label
_atom_site_type_symbol
_atom_site_description
_atom_site_fract_x
_atom_site_fract_y
_atom_site_fract_z
_atom_type_partial_charge
O1    O     O_R   0.892670 0.439420 0.892670 -0.626289
O2    O     O_R   0.107330 0.560580 0.107330 -0.625871
O3    O     O_R   0.107330 0.439420 0.107330 -0.599169
O4    O     O_R   0.892670 0.560580 0.892670 -0.598380
O5    O     O_R   0.392670 0.939420 0.892670 -0.626037
O6    O     O_R   0.607330 0.060580 0.107330 -0.626342
O7    O     O_R   0.607330 0.939420 0.107330 -0.598460
O8    O     O_R   0.392670 0.060580 0.892670 -0.598424
C1    C     C_R   0.859032 0.499893 0.862515 0.934357
C2    C     C_R   0.140985 0.500109 0.137638 0.935195
C3    C     C_R   0.359020 0.999892 0.862393 0.935442
C4    C     C_R   0.640969 0.000108 0.137494 0.934890
O9    O     O_R   0.999990 0.439420 0.908380 -0.596496
O10   O     O_R   0.000010 0.560580 0.091620 -0.595730
O11   O     O_R   0.000010 0.439420 0.091620 -0.611731
O12   O     O_R   0.999990 0.560580 0.908380 -0.611366
O13   O     O_R   0.499990 0.939420 0.908380 -0.596498
O14   O     O_R   0.500010 0.060580 0.091620 -0.596648
O15   O     O_R   0.500010 0.939420 0.091620 -0.611397
O16   O     O_R   0.499990 0.060580 0.908380 -0.611710
C5    C     C_R   0.997146 0.499379 0.876851 0.942717
C6    C     C_R   0.002718 0.500602 0.123030 0.941789
C7    C     C_R   0.497246 0.999381 0.876943 0.942189
C8    C     C_R   0.502852 0.000621 0.123148 0.942711
Zn1   Zn    Zn3+2 1.000000 0.419100 0.000000 1.035237
Zn2   Zn    Zn3+2 1.000000 0.580900 0.000000 1.036399
Zn3   Zn    Zn3+2 0.500000 0.919100 0.000000 1.035595
Zn4   Zn    Zn3+2 0.500000 0.080900 0.000000 1.035079
C9    C     C_R   0.865485 0.547004 0.667786 0.105717
C10   C     C_R   0.133255 0.449612 0.330755 0.106787
C11   C     C_R   0.365907 0.047894 0.668084 0.104562
C12   C     C_R   0.634504 0.952970 0.332203 0.105791
C13   C     C_R   0.818180 0.594440 0.587256 0.313883
C14   C     C_R   0.179507 0.401241 0.410290 0.316601
C15   C     C_R   0.318970 0.096000 0.588033 0.319867
C16   C     C_R   0.681799 0.905524 0.412723 0.313875
C17   C     C_R   0.838812 0.621223 0.550779 0.116309
C18   C     C_R   0.158766 0.375761 0.447028 0.113771
C19   C     C_R   0.340475 0.123257 0.552602 0.123637
C20   C     C_R   0.661163 0.878745 0.449194 0.116236
C21   C     C_R   0.903108 0.595704 0.589386 -0.162632
C22   C     C_R   0.095164 0.402836 0.409145 -0.164415
C23   C     C_R   0.404120 0.096374 0.590473 -0.180274
C24   C     C_R   0.596874 0.904279 0.410596 -0.162610
H1    H     H_    0.917471 0.615681 0.559000 0.161353
H2    H     H_    0.080674 0.383608 0.439608 0.161051
H3    H     H_    0.418581 0.116255 0.560141 0.165854
H4    H     H_    0.582508 0.884308 0.440981 0.161356
C25   C     C_R   0.948186 0.544517 0.665402 -0.016325
C26   C     C_R   0.050990 0.454621 0.333854 -0.016476
C27   C     C_R   0.448610 0.044744 0.665827 -0.011790
C28   C     C_R   0.551805 0.955474 0.334589 -0.016349
C29   C     C_R   0.935855 0.529537 0.714924 0.007933
C30   C     C_R   0.063459 0.469037 0.284375 0.008531
C31   C     C_R   0.436218 0.030031 0.715270 0.008731
C32   C     C_R   0.564138 0.970451 0.285070 0.007922
C33   C     C_R   0.994174 0.496642 0.807684 -0.203632
C34   C     C_R   0.005834 0.503247 0.192363 -0.204271
C35   C     C_R   0.494254 0.996638 0.807744 -0.204581
C36   C     C_R   0.505826 0.003358 0.192316 -0.203589
C37   C     C_R   0.054523 0.465315 0.838947 0.209174
C38   C     C_R   0.946158 0.535820 0.161861 0.209355
C39   C     C_R   0.554307 0.964741 0.838676 0.209310
C40   C     C_R   0.445484 0.034697 0.161062 0.209150
C41   C     C_R   0.056451 0.465019 0.777076 0.234997
C42   C     C_R   0.944297 0.536171 0.223796 0.233976
C43   C     C_R   0.556163 0.964362 0.776725 0.234045
C44   C     C_R   0.443557 0.034993 0.222933 0.235027
C45   C     C_R   0.003870 0.505896 0.690924 -0.218275
C46   C     C_R   0.996105 0.494362 0.309109 -0.217138
C47   C     C_R   0.503907 0.005647 0.690940 -0.217518
C48   C     C_R   0.496129 0.994106 0.309076 -0.218250
C49   C     C_1   0.782436 0.499623 0.786328 -0.142256
C50   C     C_1   0.217572 0.500371 0.213822 -0.141045
C51   C     C_1   0.282429 0.999623 0.786248 -0.141958
C52   C     C_1   0.717565 0.000378 0.213678 -0.141912
C53   C     C_1   0.717560 0.499706 0.720477 -0.130969
C54   C     C_1   0.282445 0.500286 0.279589 -0.131484
C55   C     C_1   0.217556 0.999707 0.720447 -0.130403
C56   C     C_1   0.782441 0.000294 0.279526 -0.130575
O17   O     O_R   0.060590 0.607350 0.560620 -0.618562
O18   O     O_R   0.939410 0.392650 0.439380 -0.618419
O19   O     O_R   0.939410 0.607350 0.439380 -0.608911
O20   O     O_R   0.060590 0.392650 0.560620 -0.609035
O21   O     O_R   0.560590 0.107350 0.560620 -0.618651
O22   O     O_R   0.439410 0.892650 0.439380 -0.618472
O23   O     O_R   0.439410 0.107350 0.439380 -0.608384
O24   O     O_R   0.560590 0.892650 0.560620 -0.608909
C57   C     C_R   0.000075 0.641315 0.499902 0.925102
C58   C     C_R   0.999925 0.358685 0.500095 0.924708
C59   C     C_R   0.500075 0.141315 0.499904 0.925246
C60   C     C_R   0.499925 0.858685 0.500098 0.925036
O25   O     O_R   0.060610 0.500000 0.652240 -0.579521
O26   O     O_R   0.939390 0.500000 0.347760 -0.580149
O27   O     O_R   0.560610 0.000000 0.652240 -0.579950
O28   O     O_R   0.439390 0.000000 0.347760 -0.579590
O29   O     O_R   0.939430 0.500000 0.531050 -0.628973
O30   O     O_R   0.060570 0.500000 0.468950 -0.628767
O31   O     O_R   0.439430 0.000000 0.531050 -0.629015
O32   O     O_R   0.560570 0.000000 0.468950 -0.628911
C61   C     C_R   0.001332 0.501506 0.621871 0.919510
C62   C     C_R   0.998665 0.498700 0.378147 0.919976
C63   C     C_R   0.501338 0.001366 0.621869 0.920079
C64   C     C_R   0.498667 0.998495 0.378129 0.919537
Zn5   Zn    Zn3+2 0.080920 0.500000 0.580940 1.035977
Zn6   Zn    Zn3+2 0.919080 0.500000 0.419060 1.035396
Zn7   Zn    Zn3+2 0.580920 0.000000 0.580940 1.035778
Zn8   Zn    Zn3+2 0.419080 1.000000 0.419060 1.034870
O33   O     O_R   0.500010 0.607330 0.448300 -0.608834
O34   O     O_R   0.499990 0.392670 0.551700 -0.610599
O35   O     O_R   0.499990 0.607330 0.551700 -0.608376
O36   O     O_R   0.500010 0.392670 0.448300 -0.607966
O37   O     O_R   0.000010 0.107330 0.448300 -0.609158
O38   O     O_R   0.999990 0.892670 0.551700 -0.608993
O39   O     O_R   0.999990 0.107330 0.551700 -0.608340
O40   O     O_R   0.000010 0.892670 0.448300 -0.608062
C65   C     C_R   0.499992 0.640934 0.500283 0.912876
C66   C     C_R   0.500008 0.359066 0.499717 0.912599
C67   C     C_R   0.999992 0.140934 0.500283 0.912153
C68   C     C_R   0.000008 0.859066 0.499717 0.912337
O41   O     O_R   0.607330 0.500000 0.555630 -0.602831
O42   O     O_R   0.392670 0.500000 0.444370 -0.605163
O43   O     O_R   0.107330 0.000000 0.555630 -0.602817
O44   O     O_R   0.892670 0.000000 0.444370 -0.602998
O45   O     O_R   0.607340 0.500000 0.659080 -0.606587
O46   O     O_R   0.392660 0.500000 0.340920 -0.605791
O47   O     O_R   0.107340 0.000000 0.659080 -0.606318
O48   O     O_R   0.892660 0.000000 0.340920 -0.606348
C69   C     C_R   0.640968 0.499933 0.641863 0.914046
C70   C     C_R   0.359034 0.500062 0.358147 0.913699
C71   C     C_R   0.140966 0.999933 0.641858 0.913385
C72   C     C_R   0.859032 0.000067 0.358137 0.913544
Zn9   Zn    Zn3+2 0.500000 0.500000 0.430940 1.055733
Zn10  Zn    Zn3+2 0.500000 0.500000 0.569060 1.051787
Zn11  Zn    Zn3+2 1.000000 0.000000 0.430940 1.056208
Zn12  Zn    Zn3+2 0.000000 0.000000 0.569060 1.055616
C73   C     C_1   0.000183 0.717796 0.499563 -0.156460
C74   C     C_1   0.999818 0.282204 0.500433 -0.157490
C75   C     C_1   0.500183 0.217796 0.499566 -0.156806
C76   C     C_1   0.499817 0.782204 0.500436 -0.156691
C77   C     C_1   0.500122 0.282562 0.499347 -0.148016
C78   C     C_1   0.499877 0.717438 0.500654 -0.146960
C79   C     C_1   0.000123 0.782562 0.499346 -0.146623
C80   C     C_1   0.999878 0.217438 0.500653 -0.147244
Br1   Br    Br    0.135366 0.423035 0.967029 -0.392222
Br2   Br    Br    0.865939 0.579489 0.034576 -0.391179
Br3   Br    Br    0.634869 0.921861 0.966405 -0.391866
Br4   Br    Br    0.364648 0.076993 0.032989 -0.392462
C81   C     C_3   0.833931 0.508290 0.689980 -0.815536
H5    H     H_    0.779348 0.485009 0.622139 0.265789
H6    H     H_    0.866275 0.460749 0.737941 0.223092
H7    H     H_    0.827067 0.548940 0.720417 0.256906
C82   C     C_3   0.165569 0.487172 0.309067 -0.815158
H8    H     H_    0.220900 0.508868 0.377339 0.265248
H9    H     H_    0.171002 0.446267 0.277162 0.258995
H10   H     H_    0.134519 0.535630 0.262547 0.221094
C83   C     C_3   0.334011 0.008586 0.689553 -0.814422
H11   H     H_    0.279716 0.985015 0.621504 0.266641
H12   H     H_    0.366417 0.961107 0.737610 0.222605
H13   H     H_    0.326583 0.048862 0.719628 0.256287
C84   C     C_3   0.666066 0.991678 0.310018 -0.815649
H14   H     H_    0.720653 0.014950 0.377863 0.265800
H15   H     H_    0.672922 0.951027 0.279572 0.256869
H16   H     H_    0.633730 0.039226 0.262066 0.223065
Br5   Br    Br    0.723532 0.620433 0.524053 -0.552500
Br6   Br    Br    0.272837 0.371775 0.471654 -0.559383
Br7   Br    Br    0.223398 0.119402 0.523480 -0.552175
Br8   Br    Br    0.776442 0.879512 0.475919 -0.552453
C85   C     C_3   0.790239 0.672796 0.466379 -0.750531
H17   H     H_    0.815491 0.690380 0.448344 0.237458
H18   H     H_    0.737099 0.645732 0.401146 0.259448
H19   H     H_    0.780114 0.722134 0.484622 0.281732
C86   C     C_3   0.206704 0.324014 0.531177 -0.745625
H20   H     H_    0.181115 0.306910 0.548868 0.235864
H21   H     H_    0.216569 0.274492 0.512877 0.284357
H22   H     H_    0.260038 0.350704 0.596595 0.259610
C87   C     C_3   0.295092 0.176331 0.469891 -0.752423
H23   H     H_    0.248707 0.199589 0.448713 0.282149
H24   H     H_    0.330297 0.222577 0.491317 0.262016
H25   H     H_    0.272953 0.148456 0.405475 0.239551
C88   C     C_3   0.709722 0.827158 0.533579 -0.750368
H26   H     H_    0.719829 0.777816 0.515317 0.281695
H27   H     H_    0.762871 0.854205 0.598818 0.259524
H28   H     H_    0.684469 0.809583 0.551614 0.237459
Br9   Br    Br    0.129276 0.405340 0.810305 -0.365367
Br10  Br    Br    0.872633 0.597075 0.191937 -0.365940
Br11  Br    Br    0.628430 0.904124 0.809277 -0.365330
Br12  Br    Br    0.370744 0.094686 0.189720 -0.365305

loop_
_geom_bond_atom_site_label_1
_geom_bond_atom_site_label_2
_geom_bond_distance
_ccdc_geom_bond_type
O45   Zn10  2.005594 S    
C34   C38   1.407258 A    
O31   C63   1.275530 A    
O4    C1    1.271026 A    
C83   H11   1.110283 S    
C56   C72   1.396701 S    
C31   C35   1.421345 A    
C75   C77   1.184778 T    
C85   H17   1.110961 S    
C19   C87   1.506042 S    
O32   C64   1.275547 A    
O36   Zn9   2.003512 S    
C66   C77   1.399360 S    
O34   C66   1.280567 A    
C84   H14   1.110414 S    
O21   C59   1.268378 A    
O33   C65   1.280571 A    
O40   Zn11  2.003512 S    
C88   H26   1.106415 S    
C7    C35   1.438976 S    
O31   Zn8   2.015285 S    
C10   C30   1.430171 A    
C10   C14   1.414246 A    
O12   C5    1.275305 A    
O30   Zn5   2.015285 S    
C27   C47   1.412173 A    
C17   C21   1.394104 A    
O14   C8    1.268361 A    
C12   C16   1.414204 A    
O11   C6    1.275119 A    
C76   C78   1.184779 T    
C18   C22   1.393362 A    
O23   C59   1.267746 A    
C81   H6    1.103301 S    
O6    C4    1.269229 A    
C25   C29   1.400272 A    
C86   H22   1.110231 S    
O37   Zn11  1.994925 S    
O39   Zn12  2.003509 S    
O46   C70   1.280829 A    
C9    C13   1.414205 A    
C16   Br8   1.935327 S    
O7    Zn3   1.992032 S    
O44   C72   1.280916 A    
C22   H2    1.082611 S    
C39   Br3   1.938914 S    
C37   Br1   1.939027 S    
O42   Zn10  1.982707 S    
C58   C74   1.399151 S    
O37   C67   1.280565 A    
C10   C82   1.502322 S    
O6    Zn4   1.994194 S    
O23   Zn8   1.997327 S    
O24   C60   1.267746 A    
O46   Zn9   2.005597 S    
O27   C63   1.267496 A    
C87   H24   1.110164 S    
C15   Br7   1.936143 S    
C82   H9    1.104528 S    
O15   Zn3   2.021785 S    
C27   C31   1.399100 A    
C8    C36   1.438726 S    
O17   C57   1.268378 A    
C24   C28   1.410835 A    
C86   H21   1.105827 S    
C73   C79   1.184779 T    
C83   H12   1.103217 S    
C25   C45   1.412740 A    
C40   Br4   1.939020 S    
O1    Zn1   1.994196 S    
C67   C80   1.399362 S    
C85   H18   1.110192 S    
O9    Zn1   2.030252 S    
C68   C79   1.399360 S    
O20   C58   1.267742 A    
O48   C72   1.280686 A    
C21   C25   1.410837 A    
C84   H15   1.104118 S    
C43   Br11  1.937757 S    
O17   Zn5   1.999480 S    
C88   H27   1.110190 S    
O12   Zn2   2.021785 S    
O7    C4    1.271025 A    
O19   C57   1.267746 A    
C41   Br9   1.937938 S    
O44   Zn12  1.982707 S    
O33   Zn9   1.994925 S    
O13   Zn3   2.030252 S    
C16   C20   1.401796 A    
O1    C1    1.269239 A    
O47   Zn12  2.005594 S    
O48   Zn11  2.005597 S    
O25   C61   1.267717 A    
O24   Zn7   1.997329 S    
C38   C42   1.388343 A    
C18   C86   1.503423 S    
C19   C23   1.393292 A    
O16   Zn4   2.021785 S    
O30   C62   1.275329 A    
C9    C81   1.502214 S    
C13   C17   1.401791 A    
O40   C68   1.281950 A    
O43   Zn11  1.982706 S    
C15   C19   1.406365 A    
C39   C43   1.388585 A    
C5    C33   1.438717 S    
C28   C48   1.412731 A    
O45   C69   1.280688 A    
O36   C66   1.281958 A    
O29   C61   1.275551 A    
O16   C7    1.275315 A    
O3    Zn1   1.992032 S    
C44   C48   1.409130 A    
C87   H25   1.110370 S    
C55   C71   1.396661 S    
C12   C84   1.502215 S    
O20   Zn5   1.997329 S    
O14   Zn4   2.030252 S    
O2    Zn2   1.994194 S    
O13   C7    1.268433 A    
C21   H1    1.082639 S    
O10   Zn2   2.030252 S    
C82   H10   1.103570 S    
C33   C37   1.406724 A    
C24   H4    1.082642 S    
C44   Br12  1.937933 S    
C11   C83   1.503395 S    
O27   Zn7   2.037039 S    
C22   C26   1.410739 A    
C13   Br5   1.935330 S    
C59   C75   1.399155 S    
O29   Zn6   2.015285 S    
C83   H13   1.104261 S    
O39   C67   1.281960 A    
O28   C64   1.267711 A    
C50   C54   1.183115 T    
O8    Zn4   1.992034 S    
C85   H19   1.106413 S    
C11   C15   1.416679 A    
C81   H7    1.104115 S    
O2    C2    1.269166 A    
C40   C44   1.388481 A    
C26   C30   1.400677 A    
C84   H16   1.103304 S    
O21   Zn7   1.999480 S    
C20   C88   1.503759 S    
C30   C34   1.421939 A    
C88   H28   1.110962 S    
C47   C63   1.446290 S    
O26   Zn6   2.037037 S    
O32   Zn7   2.015285 S    
C29   C33   1.421194 A    
O43   C71   1.280850 A    
C14   C18   1.401288 A    
C35   C39   1.407037 A    
C1    C49   1.397727 S    
O22   Zn8   1.999482 S    
C52   C56   1.183152 T    
O41   C69   1.280919 A    
C23   H3    1.083366 S    
C6    C34   1.439222 S    
O4    Zn2   1.992034 S    
C53   C69   1.396707 S    
C46   C62   1.445810 S    
O35   Zn10  2.003509 S    
O5    C3    1.269184 A    
C45   C61   1.446671 S    
C48   C64   1.446661 S    
C57   C73   1.399154 S    
O18   C58   1.268381 A    
O19   Zn6   1.997327 S    
C36   C40   1.406728 A    
O35   C65   1.281954 A    
O41   Zn9   1.982706 S    
O10   C6    1.268770 A    
C4    C52   1.397726 S    
O15   C8    1.275307 A    
C54   C70   1.396657 S    
O25   Zn5   2.037039 S    
C42   Br10  1.937955 S    
C3    C51   1.397654 S    
C81   H5    1.110410 S    
O9    C5    1.268358 A    
C17   C85   1.503763 S    
C2    C50   1.397562 S    
O5    Zn3   1.994196 S    
C23   C27   1.409459 A    
O38   Zn12  1.994926 S    
C42   C46   1.408387 A    
C9    C29   1.429758 A    
C74   C80   1.184780 T    
O8    C3    1.270938 A    
C41   C45   1.409140 A    
O42   C70   1.280749 A    
C65   C78   1.399360 S    
C43   C47   1.408780 A    
O18   Zn6   1.999482 S    
C37   C41   1.388479 A    
C26   C46   1.412213 A    
O47   C71   1.280732 A    
O34   Zn10  1.994926 S    
C86   H20   1.110980 S    
C32   C36   1.421196 A    
C20   C24   1.394102 A    
O26   C62   1.267386 A    
O11   Zn1   2.021785 S    
C87   H23   1.105819 S    
C38   Br2   1.939172 S    
O3    C2    1.270955 A    
C49   C53   1.183154 T    
O28   Zn8   2.037037 S    
O22   C60   1.268378 A    
C11   C31   1.429534 A    
C82   H8    1.110491 S    
C14   Br6   1.934596 S    
C51   C55   1.183126 T    
C12   C32   1.429753 A    
O38   C68   1.280575 A    
C28   C32   1.400272 A    
C60   C76   1.399153 S    
