data_mof_unit_54538.cif
_audit_creation_date              2012-12-11T14:15:16-0500
_audit_creation_method            fapswitch 2.2
_symmetry_space_group_name_H-M    P1
_symmetry_Int_Tables_number       1
_space_group_crystal_system       triclinic
_cell_length_a                    11.174798
_cell_length_b                    12.698323
_cell_length_c                    23.583898
_cell_angle_alpha                 90.321965
_cell_angle_beta                  96.106723
_cell_angle_gamma                 68.70065
_cell_volume                      3098.33264811

loop_
_atom_site_label
_atom_site_type_symbol
_atom_type_description
_atom_site_fract_x
_atom_site_fract_y
_atom_site_fract_z
_atom_type_partial_charge
C1    C     C_R   0.149075 0.615981 0.428633 0.554030
C2    C     C_2   0.178477 0.229029 0.226938 -0.115606
C3    C     C_R   0.439707 0.319099 0.188375 -0.105921
C4    C     C_R   0.325601 0.391181 0.157970 -0.114044
C5    C     C_R   0.249024 0.489704 0.182350 -0.095412
C6    C     C_2   0.158484 0.159873 0.264482 -0.124057
C7    C     C_R   0.751066 0.603849 0.403828 0.545890
C8    C     C_1   0.135028 0.195233 0.321880 -0.049155
C9    C     C_1   0.208598 0.193115 0.170255 -0.047594
C10   C     C_1   0.117985 0.230158 0.369220 -0.003519
C11   C     C_1   0.168210 0.758960 0.124986 -0.004546
C12   C     C_2   0.142672 0.724958 0.232672 -0.121461
C13   C     C_2   0.210472 0.627663 0.262684 0.001146
C14   C     C_1   0.200524 0.626818 0.323225 -0.063453
C15   C     C_R   0.654292 0.563563 0.311921 -0.125196
C16   C     C_1   0.154696 0.742090 0.173584 -0.051249
C17   C     C_1   0.184045 0.624627 0.372751 -0.014912
C18   C     C_1   0.629588 0.756844 0.865153 -0.020612
C19   C     C_R   0.101580 0.282198 0.423551 0.544988
C20   C     C_2   0.703831 0.712428 0.761969 -0.133258
C21   C     C_2   0.620502 0.696464 0.720719 -0.132427
C22   C     C_1   0.658729 0.664096 0.664785 -0.065143
C23   C     C_1   0.666734 0.737789 0.818647 -0.061652
C24   C     C_1   0.695278 0.636284 0.618753 -0.022459
C25   C     C_R   0.217520 0.171062 0.850791 -0.003047
C26   C     C_R   0.727643 0.722317 0.317060 -0.125344
C27   C     C_R   0.109619 0.217364 0.638656 0.001675
C28   C     C_R   0.996552 0.209469 0.719403 -0.145759
C29   C     C_R   0.995224 0.227009 0.661470 -0.138496
C30   C     C_R   0.228989 0.176427 0.673133 -0.021237
C31   C     C_R   0.115275 0.598901 0.595843 0.555483
C32   C     C_R   0.227561 0.178397 0.732888 0.029641
C33   C     C_R   0.109641 0.191406 0.755662 0.026246
C34   C     C_R   0.107383 0.182272 0.814517 -0.138698
C35   C     C_R   0.323153 0.185258 0.828534 -0.119306
C36   C     C_R   0.335409 0.176132 0.770931 -0.035391
C37   C     C_R   0.715255 0.730639 0.257567 0.032510
C38   C     C_R   0.107240 0.743697 0.857507 -0.012896
C39   C     C_R   0.145526 0.611919 0.656759 0.002677
C40   C     C_R   0.215594 0.521173 0.750864 -0.148977
C41   C     C_R   0.204991 0.513992 0.691870 -0.161827
C42   C     C_R   0.094155 0.718679 0.681330 -0.019922
C43   C     C_R   0.750913 0.601499 0.566489 0.538667
C44   C     C_R   0.088990 0.722326 0.740262 0.009425
C45   C     C_R   0.160454 0.625678 0.775892 0.025321
C46   C     C_R   0.175626 0.637813 0.835488 -0.036073
C47   C     C_R   0.004337 0.824377 0.822170 -0.024629
C48   C     C_R   0.677588 0.651322 0.226091 0.039781
C49   C     C_R   0.007378 0.818843 0.763996 -0.153179
C50   C     C_R   0.265677 0.109340 0.069586 0.536501
C51   C     C_R   0.601307 0.774166 0.080896 0.532706
C52   C     C_R   0.188939 0.788465 0.069537 0.536857
C53   C     C_R   0.243243 0.115069 0.907296 0.543075
C54   C     C_R   0.573942 0.776601 0.918125 0.536231
C55   C     C_R   0.100096 0.276655 0.584436 0.533088
C56   C     C_R   0.160020 0.784538 0.909318 0.538755
C57   C     C_R   0.673444 0.750109 0.138368 -0.006813
C58   C     C_R   0.701175 0.636125 0.344333 0.011741
C59   C     C_R   0.667620 0.656422 0.167552 -0.130618
C60   C     C_R   0.644765 0.569831 0.253157 -0.133775
C61   C     C_R   0.465915 0.153246 0.754311 0.026328
C62   C     C_R   0.508509 0.241366 0.742780 -0.111921
C63   C     C_R   0.627459 0.217268 0.721576 -0.129029
C64   C     C_R   0.704624 0.105329 0.712630 -0.114653
C65   C     C_R   0.665713 0.017071 0.727400 -0.084727
C66   C     C_R   0.548309 0.040740 0.749501 -0.057329
C67   C     C_R   0.347226 0.112325 0.645591 0.043370
C68   C     C_R   0.379010 0.995936 0.639171 -0.118239
C69   C     C_R   0.476671 0.935611 0.606188 -0.118282
C70   C     C_R   0.720014 0.826943 0.168838 -0.016649
C71   C     C_R   0.547125 0.990084 0.581105 -0.108773
C72   C     C_R   0.520859 0.104885 0.589701 -0.101963
C73   C     C_R   0.423193 0.165267 0.622636 -0.024132
C74   C     C_R   0.264535 0.543720 0.874155 0.039989
C75   C     C_R   0.216159 0.498877 0.916768 -0.095421
C76   C     C_R   0.300011 0.411366 0.953796 -0.106017
C77   C     C_R   0.432550 0.369095 0.948894 -0.108520
C78   C     C_R   0.481412 0.413959 0.906797 -0.118444
C79   C     C_R   0.397829 0.500713 0.869388 -0.069803
C80   C     C_R   0.746793 0.918523 0.139618 0.054563
C81   C     C_R   0.742772 0.814375 0.228885 -0.133078
C82   C     C_R   0.715773 0.026469 0.162806 -0.095432
C83   C     C_R   0.742611 0.111608 0.135511 -0.120110
C84   C     C_R   0.797841 0.090986 0.084293 -0.100310
C85   C     C_R   0.828914 0.984486 0.060904 -0.095025
C86   C     C_R   0.806453 0.897893 0.088908 -0.065509
C87   C     C_R   0.901388 0.921695 0.844510 0.070960
C88   C     C_R   0.882423 0.032943 0.827590 -0.063239
C89   C     C_R   0.792255 0.124737 0.851551 -0.098741
C90   C     C_R   0.720835 0.106055 0.892800 -0.113082
C91   C     C_R   0.740314 0.995943 0.910528 -0.116606
C92   C     C_1   0.234944 0.159577 0.123468 -0.016680
C93   C     C_R   0.830234 0.903824 0.886640 -0.073099
C94   C     C_R   0.055325 0.825938 0.646306 0.059606
C95   C     C_R   0.150760 0.854192 0.623039 -0.070675
C96   C     C_R   0.115793 0.946036 0.584156 -0.102858
C97   C     C_R   0.985808 0.011266 0.568903 -0.100262
C98   C     C_R   0.890352 0.982865 0.591166 -0.118336
C99   C     C_R   0.924377 0.889559 0.628921 -0.075839
C100  C     C_R   0.289413 0.520829 0.236467 0.056354
C101  C     C_R   0.403890 0.446333 0.266956 -0.097189
C102  C     C_R   0.478565 0.346157 0.242962 -0.130392
Cr1   Cr    Cr6+3 0.189770 0.415650 0.511620 1.013135
Cr2   Cr    Cr6+3 0.930400 0.667320 0.496770 1.015713
Cr3   Cr    Cr6+3 0.879870 0.417010 0.491650 1.005710
Cr4   Cr    Cr6+3 0.149500 0.973980 0.985330 1.011447
Cr5   Cr    Cr6+3 0.457000 0.976510 0.994660 1.003474
Cr6   Cr    Cr6+3 0.411170 0.724270 0.995270 1.032250
H1    H     H_    0.639868 0.592636 0.145026 0.139205
H2    H     H_    0.942510 0.889496 0.737624 0.102829
H3    H     H_    0.240790 0.431288 0.673657 0.133580
H4    H     H_    0.613448 0.509954 0.228861 0.118295
H5    H     H_    0.779027 0.871101 0.253391 0.098892
H6    H     H_    0.634222 0.496219 0.331958 0.130397
H7    H     H_    0.764138 0.778668 0.341799 0.124808
H8    H     H_    0.162635 0.075870 0.252721 0.137255
H9    H     H_    0.174986 0.312657 0.239088 0.150591
H10   H     H_    0.448658 0.328258 0.748056 0.099365
H11   H     H_    0.658719 0.285410 0.711186 0.104800
H12   H     H_    0.083128 0.798152 0.254227 0.121337
H13   H     H_    0.795558 0.087018 0.695362 0.105585
H14   H     H_    0.724916 0.930257 0.721151 0.102320
H15   H     H_    0.518095 0.971823 0.759793 0.120571
H16   H     H_    0.326421 0.952662 0.659123 0.105300
H17   H     H_    0.495640 0.847268 0.599124 0.117466
H18   H     H_    0.621996 0.943278 0.555164 0.112375
H19   H     H_    0.574912 0.147895 0.570499 0.090647
H20   H     H_    0.405025 0.253962 0.629094 0.128364
H21   H     H_    0.113690 0.531475 0.921117 0.092821
H22   H     H_    0.262359 0.376617 0.986436 0.106056
H23   H     H_    0.523739 0.704983 0.729164 0.131379
H24   H     H_    0.497336 0.301862 0.977849 0.106514
H25   H     H_    0.584126 0.382008 0.903256 0.097711
H26   H     H_    0.436842 0.535234 0.837146 0.111487
H27   H     H_    0.669859 0.045386 0.201733 0.096077
H28   H     H_    0.719860 0.193971 0.153863 0.103373
H29   H     H_    0.816944 0.157383 0.062812 0.104888
H30   H     H_    0.871451 0.968757 0.021184 0.132093
H31   H     H_    0.834540 0.815089 0.070680 0.087930
H32   H     H_    0.938260 0.048110 0.796051 0.094690
H33   H     H_    0.777992 0.210265 0.838211 0.096594
H34   H     H_    0.800879 0.703458 0.753781 0.140459
H35   H     H_    0.651640 0.176631 0.911670 0.096638
H36   H     H_    0.687972 0.982583 0.943946 0.136980
H37   H     H_    0.846936 0.818868 0.901891 0.091637
H38   H     H_    0.251896 0.802428 0.633522 0.093209
H39   H     H_    0.189130 0.965901 0.565045 0.114971
H40   H     H_    0.959027 0.082646 0.539062 0.112874
H41   H     H_    0.790124 0.031935 0.578129 0.093682
H42   H     H_    0.849295 0.864851 0.643327 0.098492
H43   H     H_    0.435721 0.465842 0.309284 0.109069
H44   H     H_    0.566626 0.289578 0.266693 0.106149
H45   H     H_    0.022590 0.180333 0.832002 0.109467
H46   H     H_    0.496216 0.241280 0.169936 0.120801
H47   H     H_    0.294638 0.369250 0.115986 0.109150
H48   H     H_    0.157217 0.539950 0.159103 0.110839
H49   H     H_    0.406901 0.185158 0.856485 0.153509
H50   H     H_    0.906942 0.219248 0.736360 0.097746
H51   H     H_    0.903157 0.254272 0.635066 0.135385
H52   H     H_    0.260852 0.444159 0.776774 0.124770
O1    O     O_R   0.196340 0.303200 0.448500 -0.505014
O2    O     O_R   0.555390 0.700940 0.062700 -0.524954
O3    O     O_R   0.295020 0.731920 0.049950 -0.492280
O4    O     O_R   0.199310 0.519670 0.454880 -0.488303
O5    O     O_R   0.094290 0.884230 0.921550 -0.512527
O6    O     O_R   0.168980 0.069410 0.926940 -0.493687
O7    O     O_R   0.358400 0.089990 0.927950 -0.530884
O8    O     O_R   0.544850 0.873850 0.939920 -0.511710
O9    O     O_R   0.536020 0.701900 0.936430 -0.505865
O10   O     O_R   0.277070 0.732810 0.932890 -0.483958
O11   O     O_3   0.339220 0.891590 0.991750 -0.239846
O12   O     O_R   0.811960 0.658090 0.547150 -0.512473
O13   O     O_R   0.045660 0.691380 0.441680 -0.507375
O14   O     O_R   0.811930 0.659460 0.430950 -0.506061
O15   O     O_R   0.757900 0.507620 0.421760 -0.518237
O16   O     O_R   0.988630 0.322990 0.439840 -0.497886
O17   O     O_R   0.196380 0.301720 0.573850 -0.532821
O18   O     O_R   0.199350 0.518300 0.571080 -0.506846
O19   O     O_R   0.045700 0.689900 0.567030 -0.499503
O20   O     O_R   0.757930 0.506140 0.547110 -0.508864
O21   O     O_R   0.988670 0.321620 0.556040 -0.511494
O22   O     O_3   0.000020 0.499990 0.500010 -0.258412
O23   O     O_R   0.113660 0.883270 0.047820 -0.524536
O24   O     O_R   0.186930 0.068530 0.043990 -0.495610
O25   O     O_R   0.377770 0.089040 0.054220 -0.512607
O26   O     O_R   0.562800 0.872960 0.056970 -0.490971

loop_
_geom_bond_atom_site_label_1
_geom_bond_atom_site_label_2
_ccdc_geom_bond_type
C44   C49   A    
Cr2   O22   S    
C87   C88   A    
C101  C102  A    
Cr6   O10   S    
C27   C29   A    
Cr1   O22   S    
Cr4   O11   S    
C35   C36   A    
C54   O9    A    
C52   O23   A    
C68   H16   S    
C97   C98   A    
C47   C49   A    
Cr5   O11   S    
C45   C46   A    
C12   C13   D    
Cr5   O26   S    
C1    O13   A    
Cr1   O4    S    
Cr4   O6    S    
C28   C29   A    
C25   C53   S    
C85   C86   A    
C27   C55   S    
C57   C59   A    
Cr2   O19   S    
C64   H13   S    
C7    O14   A    
C51   O2    A    
C19   O1    A    
C82   H27   S    
C69   C71   A    
C70   C81   A    
C19   O16   A    
C21   H23   S    
C80   C86   A    
C11   C52   S    
C12   H12   S    
C76   H22   S    
C61   C66   A    
C53   O7    A    
C88   H32   S    
C12   C16   S    
C1    O4    A    
C68   C69   A    
Cr3   O16   S    
C7    O15   A    
C56   O5    A    
C5    C100  A    
C71   H18   S    
C93   H37   S    
C67   C73   A    
C13   C14   S    
Cr3   O22   S    
C7    C58   S    
C90   H35   S    
C25   C34   A    
Cr2   O12   S    
C61   C62   A    
C69   H17   S    
Cr6   O9    S    
C27   C30   A    
C55   O17   A    
C14   C17   T    
C37   C81   A    
C2    C6    D    
C95   H38   S    
C42   C44   A    
C9    C92   T    
C99   H42   S    
C2    H9    S    
C48   C60   A    
C39   C42   A    
C40   C45   A    
Cr6   O3    S    
Cr5   O7    S    
C43   O20   A    
Cr1   O1    S    
C38   C46   A    
C74   C75   A    
C72   H19   S    
C70   C80   S    
C18   C23   T    
Cr4   O5    S    
C20   H34   S    
C26   H7    S    
C76   C77   A    
C29   H51   S    
C78   C79   A    
C4    C5    A    
Cr2   O14   S    
C31   O18   A    
C77   C78   A    
Cr6   O2    S    
C101  H43   S    
C3    H46   S    
C67   C68   A    
C31   O19   A    
Cr1   O17   S    
C77   H24   S    
C47   C87   S    
C75   C76   A    
C35   H49   S    
C62   C63   A    
C60   H4    S    
C15   C58   A    
C91   C93   A    
C63   H11   S    
C11   C16   T    
C83   C84   A    
C20   C23   S    
C10   C19   S    
Cr4   O24   S    
C96   C97   A    
C20   C21   D    
C28   H50   S    
C33   C34   A    
C55   O21   A    
C15   H6    S    
C65   H14   S    
C84   C85   A    
C37   C48   A    
C26   C58   A    
C6    H8    S    
C83   H28   S    
C86   H31   S    
C25   C35   A    
C51   C57   S    
C3    C102  A    
C50   C92   S    
C40   C41   A    
C28   C33   A    
C98   C99   A    
C74   C79   A    
C41   H3    S    
C57   C70   A    
C97   H40   S    
C22   C24   T    
Cr3   O20   S    
C3    C4    A    
C5    H48   S    
C32   C36   A    
C46   C74   S    
C44   C45   A    
C48   C59   A    
C91   H36   S    
C34   H45   S    
C79   H26   S    
Cr5   O8    S    
C56   O10   A    
C42   C94   S    
C40   H52   S    
C50   O24   A    
C30   C67   S    
C54   O8    A    
C72   C73   A    
C84   H29   S    
C6    C8    S    
C43   O12   A    
C96   H39   S    
C26   C37   A    
Cr2   O13   S    
C73   H20   S    
Cr5   O25   S    
C1    C17   S    
C38   C47   A    
Cr1   O18   S    
C32   C33   A    
C13   C100  S    
C71   C72   A    
C51   O26   A    
C64   C65   A    
C30   C32   A    
C2    C9    S    
C90   C91   A    
C94   C99   A    
C89   H33   S    
C87   C93   A    
C100  C101  A    
C59   H1    S    
C80   C82   A    
C31   C39   S    
C65   C66   A    
C94   C95   A    
C78   H25   S    
Cr4   O23   S    
C62   H10   S    
C18   C54   S    
C52   O3    A    
C63   C64   A    
C75   H21   S    
C53   O6    A    
C4    H47   S    
C38   C56   S    
C88   C89   A    
C39   C41   A    
C8    C10   T    
C82   C83   A    
Cr3   O15   S    
Cr6   O11   S    
C81   H5    S    
C95   C96   A    
C24   C43   S    
C66   H15   S    
Cr3   O21   S    
C89   C90   A    
C21   C22   S    
C50   O25   A    
C85   H30   S    
C15   C60   A    
C36   C61   S    
C102  H44   S    
C49   H2    S    
C98   H41   S    
