data_mof_unit_44444.cif
_audit_creation_date              2012-10-26T20:03:21-0400
_audit_creation_method            fapswitch 2.2
_symmetry_space_group_name_H-M    P1
_symmetry_Int_Tables_number       1
_space_group_crystal_system       triclinic
_cell_length_a                    10.591978
_cell_length_b                    12.401351
_cell_length_c                    13.267314
_cell_angle_alpha                 117.324069
_cell_angle_beta                  76.335873
_cell_angle_gamma                 100.979417
_cell_volume                      1497.65377256

loop_
_atom_site_label
_atom_site_type_symbol
_atom_type_description
_atom_site_fract_x
_atom_site_fract_y
_atom_site_fract_z
_atom_type_partial_charge
C1    C     C_R   0.512394 0.854910 0.286785 0.528918
C2    C     C_R   0.503589 0.565503 0.009829 0.049037
C3    C     C_R   0.461832 0.651365 0.124094 0.032170
C4    C     C_R   0.740222 0.999264 0.499416 0.550247
C5    C     C_R   0.459286 0.440333 0.977236 0.047204
C6    C     C_R   0.364131 0.404727 0.054434 0.056901
C7    C     C_R   0.313233 0.492646 0.161480 -0.119247
C8    C     C_R   0.360023 0.614297 0.195354 -0.109612
C9    C     C_R   0.507036 0.349096 0.870040 -0.104054
C10   C     C_R   0.362039 0.193656 0.912609 -0.129063
C11   C     C_R   0.522196 0.772505 0.163446 0.007046
C12   C     C_3   0.014805 0.014389 0.602998 -0.125122
C13   C     C_R   0.712622 0.342343 0.326832 -0.129630
C14   C     C_R   0.305852 0.749669 0.625073 0.059442
C15   C     C_R   0.242700 0.638310 0.618459 -0.143509
C16   C     C_R   0.481266 0.145016 0.713346 0.555701
C17   C     C_R   0.308473 0.533881 0.554893 -0.097533
C18   C     C_R   0.442419 0.541414 0.509330 -0.003761
C19   C     C_R   0.493882 0.651542 0.500302 0.133525
C20   C     C_R   0.521778 0.440715 0.460833 -0.039871
C21   C     C_R   0.637612 0.442631 0.381446 0.030438
C22   C     C_R   0.677202 0.545670 0.359262 0.188346
C23   C     C_3   0.932544 0.906935 0.521197 -0.102252
C24   C     C_R   0.608081 0.648355 0.419930 -0.070051
C25   C     C_R   0.496942 0.342512 0.493581 0.224814
C26   C     C_R   0.678084 0.244309 0.354811 0.008696
C27   C     C_R   0.259852 0.000328 0.500033 0.557299
C28   C     C_3   0.985331 0.984491 0.395736 -0.123283
C29   C     C_3   0.043050 0.893087 0.417584 -0.108006
C30   C     C_3   0.122952 0.000486 0.499416 0.038549
C31   C     C_3   0.067598 0.091950 0.477521 -0.107877
C32   C     C_3   0.957165 0.105804 0.581155 -0.114452
C33   C     C_3   0.877205 0.998482 0.499369 0.041524
C34   C     C_R   0.318273 0.281531 0.022328 -0.120904
C35   C     C_R   0.454065 0.228264 0.835354 0.009623
C36   C     C_R   0.605228 0.811518 0.084670 -0.124156
C37   C     C_R   0.634190 0.730663 0.969574 -0.130852
C38   C     C_R   0.586477 0.608594 0.932384 -0.100544
Cl1   Cl    Cl    0.817466 0.553649 0.258916 -0.665892
Cu1   Cu    Cu3+1 0.529830 0.098270 0.475420 0.967460
Cu2   Cu    Cu3+1 0.470170 0.901730 0.524580 0.921198
H1    H     H_    0.081488 0.806176 0.350733 0.142487
H2    H     H_    0.969885 0.972158 0.311034 0.118072
H3    H     H_    0.251834 0.447081 0.537522 0.138747
H4    H     H_    0.141339 0.631973 0.657775 0.109379
H5    H     H_    0.643656 0.721589 0.396768 0.209659
H6    H     H_    0.125506 0.167805 0.459698 0.137668
H7    H     H_    0.918785 0.192708 0.648038 0.126450
H8    H     H_    0.030273 0.026702 0.687690 0.115331
H9    H     H_    0.874565 0.830990 0.538835 0.142059
H10   H     H_    0.319764 0.100095 0.886562 0.122969
H11   H     H_    0.236777 0.467346 0.219414 0.122189
H12   H     H_    0.583726 0.369540 0.809987 0.125167
H13   H     H_    0.245262 0.253842 0.080655 0.109275
H14   H     H_    0.650892 0.904171 0.112573 0.126776
H15   H     H_    0.613798 0.551219 0.841937 0.119537
H16   H     H_    0.697551 0.761950 0.909297 0.119203
H17   H     H_    0.312609 0.678954 0.276997 0.147576
H18   H     H_    0.735875 0.167256 0.311767 0.121847
H19   H     H_    0.798980 0.339066 0.263141 0.168255
H20   H     H_    0.252893 0.829869 0.670009 0.124373
I1    I     I_    0.357185 0.359429 0.647025 -0.391097
N1    N     N_R   0.575030 0.246270 0.438190 -0.222527
N2    N     N_R   0.425760 0.754330 0.561190 -0.238869
O1    O     O_R   0.537510 0.972500 0.318130 -0.507535
O2    O     O_R   0.487140 0.806530 0.359650 -0.522562
O3    O     O_R   0.708330 0.082950 0.479220 -0.506257
O4    O     O_R   0.657960 0.916980 0.520740 -0.523642
O5    O     O_R   0.512860 0.193470 0.640350 -0.468786
O6    O     O_R   0.462490 0.027500 0.681870 -0.506541
O7    O     O_R   0.342040 0.083020 0.479260 -0.474567
O8    O     O_R   0.291670 0.917050 0.520780 -0.523106

loop_
_geom_bond_atom_site_label_1
_geom_bond_atom_site_label_2
_ccdc_geom_bond_type
Cu1   O7    S    
C29   H1    S    
C1    C11   S    
C12   H8    S    
C7    C8    A    
C13   H19   S    
C12   C23   S    
C37   C38   A    
Cu1   N1    S    
C23   C29   S    
C36   C37   A    
C7    H11   S    
C16   C35   S    
C5    C6    A    
C20   C25   A    
C18   C19   A    
C25   N1    A    
C8    H17   S    
C23   C33   S    
Cu1   O3    S    
C1    O1    A    
C10   C35   A    
C26   H18   S    
C31   H6    S    
C21   C22   A    
C12   C32   S    
C27   C30   S    
C32   H7    S    
C10   H10   S    
C17   C18   A    
Cu2   O4    S    
Cu1   O5    S    
C16   O6    A    
C3    C8    A    
C4    O4    A    
C23   H9    S    
C14   H20   S    
C6    C34   A    
C11   C36   A    
C26   N1    A    
C5    C9    A    
C29   C30   S    
C2    C38   A    
C31   C32   S    
C19   N2    A    
C14   N2    A    
C1    O2    A    
C13   C21   A    
C10   C34   A    
C6    C7    A    
Cu2   O8    S    
Cu1   Cu2   S    
C28   C33   S    
C34   H13   S    
Cu1   O1    S    
C22   C24   A    
C13   C26   A    
C2    C5    A    
C9    H12   S    
C15   H4    S    
C27   O7    A    
C15   C17   A    
C4    C33   S    
C28   C29   S    
C12   C30   S    
C28   C31   S    
C16   O5    A    
C4    O3    A    
Cu2   O2    S    
C28   H2    S    
C24   H5    S    
C32   C33   S    
C19   C24   A    
C17   H3    S    
C36   H14   S    
C30   C31   S    
C22   Cl1   S    
C2    C3    A    
C18   C20   A    
C25   I1    S    
C3    C11   A    
C38   H15   S    
C20   C21   A    
C9    C35   A    
C14   C15   A    
Cu2   N2    S    
C37   H16   S    
C27   O8    A    
Cu2   O6    S    
