data_mof_unit_66068.cif
_audit_creation_date              2012-12-10T17:20:02-0500
_audit_creation_method            fapswitch 2.2
_symmetry_space_group_name_H-M    P1
_symmetry_Int_Tables_number       1
_space_group_crystal_system       triclinic
_cell_length_a                    38.69235
_cell_length_b                    21.73922
_cell_length_c                    21.712874
_cell_angle_alpha                 90.00008
_cell_angle_beta                  124.043379
_cell_angle_gamma                 89.999196
_cell_volume                      15133.473705

loop_
_atom_site_label
_atom_site_type_symbol
_atom_type_description
_atom_site_fract_x
_atom_site_fract_y
_atom_site_fract_z
_atom_type_partial_charge
C1    C     C_R   0.000746 0.999936 0.119551 0.793232
C2    C     C_R   0.999252 0.999936 0.880448 0.793194
C3    C     C_R   0.500745 0.499936 0.119550 0.793061
C4    C     C_R   0.499255 0.499936 0.880450 0.793063
C5    C     C_3   0.275064 0.984258 0.209974 -0.476444
C6    C     C_3   0.724955 0.979220 0.788620 -0.476559
C7    C     C_3   0.775072 0.486503 0.209481 -0.476398
C8    C     C_3   0.224928 0.486672 0.790552 -0.476404
C9    C     C_3   0.225877 0.982578 0.158445 0.329727
C10   C     C_3   0.774142 0.977359 0.839982 0.329817
C11   C     C_3   0.725885 0.484905 0.157884 0.329669
C12   C     C_3   0.274114 0.485081 0.842154 0.329679
C13   C     C_1   0.337675 0.998330 0.338485 0.074968
C14   C     C_1   0.662327 0.998398 0.661424 0.074916
C15   C     C_1   0.837675 0.498304 0.338443 0.074999
C16   C     C_1   0.162325 0.498303 0.661559 0.074996
C17   C     C_1   0.162293 0.998217 0.162615 0.014341
C18   C     C_1   0.837708 0.998234 0.837191 0.014328
C19   C     C_1   0.662293 0.498213 0.162532 0.014355
C20   C     C_1   0.337706 0.498217 0.837476 0.014356
C21   C     C_1   0.124669 0.999611 0.124885 -0.179080
C22   C     C_1   0.875332 0.999617 0.875036 -0.179063
C23   C     C_1   0.624670 0.499610 0.124852 -0.179084
C24   C     C_1   0.375330 0.499613 0.875152 -0.179089
C25   C     C_R   0.972447 0.036751 0.189298 -0.254200
C26   C     C_R   0.027575 0.036711 0.810728 -0.254327
C27   C     C_R   0.472451 0.536761 0.189302 -0.254309
C28   C     C_R   0.527549 0.536760 0.810697 -0.254307
C29   C     C_R   0.971445 0.037436 0.252474 0.156060
C30   C     C_R   0.028578 0.037395 0.747552 0.156079
C31   C     C_R   0.471449 0.537446 0.252479 0.156034
C32   C     C_R   0.528550 0.537446 0.747521 0.156045
C33   C     C_R   0.000215 0.001452 0.314204 -0.073183
C34   C     C_R   0.999785 0.001451 0.685798 -0.073251
C35   C     C_R   0.500214 0.501453 0.314204 -0.073152
C36   C     C_R   0.499786 0.501453 0.685796 -0.073151
C37   C     C_R   0.029848 0.965869 0.312585 -0.202559
C38   C     C_R   0.970129 0.965911 0.687395 -0.202548
C39   C     C_R   0.529840 0.465859 0.312579 -0.202592
C40   C     C_R   0.470160 0.465859 0.687422 -0.202595
C41   C     C_R   0.030457 0.964272 0.249202 0.154353
C42   C     C_R   0.969517 0.964317 0.750775 0.154711
C43   C     C_R   0.530448 0.464259 0.249195 0.154217
C44   C     C_R   0.469552 0.464259 0.750806 0.154206
C45   C     C_R   0.079894 0.999970 0.079973 0.817000
C46   C     C_R   0.920106 0.999971 0.920026 0.817164
C47   C     C_R   0.579894 0.499970 0.079973 0.816958
C48   C     C_R   0.420106 0.499970 0.920027 0.816948
C49   C     C_R   0.001322 0.999885 0.186956 -0.078638
C50   C     C_R   0.998676 0.999886 0.813044 -0.078629
C51   C     C_R   0.501320 0.499884 0.186954 -0.078803
C52   C     C_R   0.498680 0.499884 0.813046 -0.078804
C53   C     C_R   0.500000 0.186435 0.500001 -0.115245
C54   C     C_R   0.000000 0.686435 0.500000 -0.115279
C55   C     C_R   0.499999 0.881378 0.499999 0.821512
C56   C     C_R   1.000000 0.381379 0.500000 0.821759
C57   C     C_R   0.420079 0.000097 0.420163 0.811046
C58   C     C_R   0.579921 0.000097 0.579835 0.810860
C59   C     C_R   0.920079 0.500097 0.420163 0.811150
C60   C     C_R   0.079921 0.500097 0.579837 0.811157
C61   C     C_R   0.500000 0.119293 0.500000 0.812830
C62   C     C_R   0.000000 0.619293 0.500000 0.812839
C63   C     C_R   0.000000 0.881088 0.500000 0.818995
C64   C     C_R   0.500000 0.381088 0.500000 0.818980
C65   C     C_R   0.000037 0.000748 0.380953 0.822280
C66   C     C_R   0.999963 0.000747 0.619047 0.822266
C67   C     C_R   0.500037 0.500748 0.380953 0.822245
C68   C     C_R   0.499963 0.500748 0.619047 0.822245
C69   C     C_R   1.000000 0.118935 0.500000 0.843606
C70   C     C_R   0.499999 0.618934 0.500001 0.843614
C71   C     C_R   0.528491 0.782297 0.490379 0.123584
C72   C     C_R   0.471503 0.782299 0.509607 0.123605
C73   C     C_R   0.028508 0.282300 0.490425 0.123610
C74   C     C_R   0.971490 0.282302 0.509572 0.123605
C75   C     C_R   0.025479 0.217939 0.482993 0.126261
C76   C     C_R   0.974519 0.217940 0.517003 0.126206
C77   C     C_R   0.525460 0.717935 0.482950 0.126220
C78   C     C_R   0.474534 0.717938 0.517038 0.126216
C79   C     C_3   0.225176 0.946972 0.276119 0.262506
C80   C     C_3   0.774817 0.951100 0.719857 0.262320
C81   C     C_3   0.725173 0.445260 0.274254 0.262591
C82   C     C_3   0.274829 0.445140 0.725889 0.262593
C83   C     C_R   0.999999 0.185987 0.499998 -0.114109
C84   C     C_R   0.499998 0.685985 0.499997 -0.114116
C85   C     C_R   0.499997 0.814305 0.499995 -0.113254
C86   C     C_R   0.999999 0.314307 0.499999 -0.113154
C87   C     C_R   0.508237 0.218565 0.453640 -0.166338
C88   C     C_R   0.491765 0.218566 0.546361 -0.166062
C89   C     C_R   0.008241 0.718565 0.453646 -0.166142
C90   C     C_R   0.991760 0.718566 0.546356 -0.166185
C91   C     C_R   0.008480 0.782672 0.453358 0.133476
C92   C     C_R   0.991522 0.782672 0.546644 0.133509
C93   C     C_R   0.508475 0.282672 0.453352 0.133510
C94   C     C_R   0.491526 0.282672 0.546650 0.133482
C95   C     C_R   0.000001 0.814570 0.500001 -0.017451
C96   C     C_R   0.500001 0.314570 0.500001 -0.017432
C97   C     C_3   0.225101 0.060688 0.243978 -0.508981
C98   C     C_3   0.774893 0.061965 0.760797 -0.508873
C99   C     C_3   0.725098 0.560009 0.246041 -0.509046
C100  C     C_3   0.274900 0.559959 0.753807 -0.509048
C101  C     C_3   0.273598 0.060404 0.296971 -0.060882
C102  C     C_3   0.726395 0.062037 0.707823 -0.060938
C103  C     C_3   0.773594 0.559569 0.299032 -0.060863
C104  C     C_3   0.226404 0.559507 0.700815 -0.060851
C105  C     C_1   0.375301 0.999334 0.375608 -0.160778
C106  C     C_1   0.624700 0.999362 0.624372 -0.160723
C107  C     C_1   0.875301 0.499323 0.375599 -0.160794
C108  C     C_1   0.124699 0.499323 0.624401 -0.160805
C109  C     C_3   0.208510 0.995410 0.208913 0.214504
C110  C     C_3   0.791492 0.995444 0.790697 0.214477
C111  C     C_3   0.708511 0.495403 0.208742 0.214510
C112  C     C_3   0.291489 0.495407 0.791271 0.214513
C113  C     C_3   0.275730 0.943511 0.322376 0.270487
C114  C     C_3   0.724264 0.947316 0.673348 0.270660
C115  C     C_3   0.775728 0.441947 0.320407 0.270415
C116  C     C_3   0.224274 0.441837 0.679742 0.270409
C117  C     C_3   0.291485 0.996564 0.293237 0.190548
C118  C     C_3   0.708517 0.996706 0.706516 0.190510
C119  C     C_3   0.791485 0.496508 0.293124 0.190559
C120  C     C_3   0.208515 0.496506 0.706883 0.190565
Cu1   Cu    Cu3+1 0.000000 0.938160 0.000000 0.940111
Cu2   Cu    Cu3+1 0.500000 0.438160 0.000000 0.939922
Cu3   Cu    Cu3+1 0.000000 0.061840 0.000000 0.955078
Cu4   Cu    Cu3+1 0.500000 0.561840 0.000000 0.955264
Cu5   Cu    Cu3+1 0.500000 0.000210 0.561820 0.954208
Cu6   Cu    Cu3+1 0.500000 0.000210 0.438180 0.954418
Cu7   Cu    Cu3+1 0.000000 0.500210 0.561820 0.954123
Cu8   Cu    Cu3+1 0.000000 0.500210 0.438180 0.954124
Cu9   Cu    Cu3+1 0.958680 0.999890 0.458710 0.956889
Cu10  Cu    Cu3+1 0.041320 0.999890 0.541290 0.956984
Cu11  Cu    Cu3+1 0.458680 0.499890 0.458710 0.957027
Cu12  Cu    Cu3+1 0.541320 0.499890 0.541290 0.957029
H1    H     H_    0.287485 0.020096 0.190873 0.172310
H2    H     H_    0.712540 0.012489 0.810441 0.172363
H3    H     H_    0.787494 0.523400 0.191636 0.172314
H4    H     H_    0.212503 0.523645 0.808301 0.172290
H5    H     H_    0.950313 0.064507 0.141650 0.151041
H6    H     H_    0.049726 0.064434 0.858394 0.151206
H7    H     H_    0.450321 0.564524 0.141659 0.151309
H8    H     H_    0.549677 0.564524 0.858340 0.151303
H9    H     H_    0.052228 0.938500 0.360411 0.167105
H10   H     H_    0.947731 0.938573 0.639552 0.167089
H11   H     H_    0.552216 0.438482 0.360401 0.167108
H12   H     H_    0.447784 0.438482 0.639600 0.167113
H13   H     H_    0.514763 0.193705 0.417981 0.162599
H14   H     H_    0.485239 0.193706 0.582021 0.162617
H15   H     H_    0.014770 0.693705 0.417991 0.162624
H16   H     H_    0.985231 0.693706 0.582011 0.162610
H17   H     H_    0.214078 0.096549 0.200548 0.194828
H18   H     H_    0.785923 0.095187 0.806934 0.194686
H19   H     H_    0.714078 0.596961 0.203863 0.194886
H20   H     H_    0.285919 0.596990 0.795890 0.194890
H21   H     H_    0.211272 0.077009 0.274071 0.172651
H22   H     H_    0.788709 0.081663 0.732094 0.172783
H23   H     H_    0.711264 0.574815 0.276660 0.172604
H24   H     H_    0.288735 0.574653 0.723150 0.172596
H25   H     H_    0.281833 0.068245 0.354034 0.152521
H26   H     H_    0.718146 0.073665 0.651515 0.152454
H27   H     H_    0.781824 0.565731 0.356333 0.152556
H28   H     H_    0.218175 0.565544 0.643499 0.152555
H29   H     H_    0.289194 0.941961 0.204611 0.167931
H30   H     H_    0.710832 0.935532 0.790628 0.167785
H31   H     H_    0.789205 0.444899 0.202681 0.167984
H32   H     H_    0.210796 0.445121 0.797457 0.167995
O1    O     O_R   0.999990 0.947780 0.090170 -0.591956
O2    O     O_R   0.000010 0.947780 0.909830 -0.592175
O3    O     O_R   0.499990 0.447780 0.090170 -0.592140
O4    O     O_R   0.500010 0.447780 0.909830 -0.592127
O5    O     O_R   0.965120 0.999890 0.374970 -0.556556
O6    O     O_R   0.034880 0.999890 0.625030 -0.556513
O7    O     O_R   0.465120 0.499890 0.374970 -0.556534
O8    O     O_R   0.534880 0.499890 0.625030 -0.556532
O9    O     O_R   0.034900 0.999930 0.444740 -0.602745
O10   O     O_R   0.965100 0.999930 0.555260 -0.602753
O11   O     O_R   0.534900 0.499930 0.444740 -0.602736
O12   O     O_R   0.465100 0.499930 0.555260 -0.602742
O13   O     O_R   0.965090 0.090120 0.465150 -0.580146
O14   O     O_R   0.034910 0.090120 0.534850 -0.580128
O15   O     O_R   0.465090 0.590120 0.465150 -0.580124
O16   O     O_R   0.534910 0.590120 0.534850 -0.580137
O17   O     O_R   0.999990 0.052220 0.090220 -0.582890
O18   O     O_R   0.000010 0.052220 0.909780 -0.582697
O19   O     O_R   0.499990 0.552220 0.090220 -0.582750
O20   O     O_R   0.500010 0.552220 0.909780 -0.582764
O21   O     O_R   0.060280 0.947780 0.060280 -0.583708
O22   O     O_R   0.939720 0.947780 0.939720 -0.583660
O23   O     O_R   0.560280 0.447780 0.060280 -0.583692
O24   O     O_R   0.439720 0.447780 0.939720 -0.583692
O25   O     O_R   0.060280 0.052220 0.060320 -0.577694
O26   O     O_R   0.939720 0.052220 0.939680 -0.577834
O27   O     O_R   0.560280 0.552220 0.060320 -0.577614
O28   O     O_R   0.439720 0.552220 0.939680 -0.577609
O29   O     O_R   0.500000 0.909980 0.552210 -0.581913
O30   O     O_R   0.500000 0.909980 0.447790 -0.581732
O31   O     O_R   0.000000 0.409980 0.552210 -0.581767
O32   O     O_R   0.000000 0.409980 0.447790 -0.581787
O33   O     O_R   0.439710 0.000200 0.491930 -0.577806
O34   O     O_R   0.560290 0.000200 0.508070 -0.577470
O35   O     O_R   0.939710 0.500200 0.491930 -0.577939
O36   O     O_R   0.060290 0.500200 0.508070 -0.577947
O37   O     O_R   0.439720 0.000170 0.387560 -0.579903
O38   O     O_R   0.560280 0.000170 0.612440 -0.579849
O39   O     O_R   0.939720 0.500170 0.387560 -0.579896
O40   O     O_R   0.060280 0.500170 0.612440 -0.579904
O41   O     O_R   0.500000 0.090430 0.552220 -0.590535
O42   O     O_R   0.500000 0.090430 0.447780 -0.590653
O43   O     O_R   0.000000 0.590430 0.552220 -0.590647
O44   O     O_R   0.000000 0.590430 0.447780 -0.590628
O45   O     O_R   0.965130 0.909670 0.465120 -0.589153
O46   O     O_R   0.034870 0.909670 0.534880 -0.589135
O47   O     O_R   0.465130 0.409670 0.465120 -0.589134
O48   O     O_R   0.534870 0.409670 0.534880 -0.589141
N1    N     N_3   0.296005 0.950074 0.403546 -0.584446
H33   H     H_    0.285727 0.915636 0.423283 0.214723
H34   H     H_    0.291717 0.992320 0.420711 0.188474
N2    N     N_3   0.703973 0.958611 0.592872 -0.583960
H35   H     H_    0.714250 0.926625 0.570524 0.214821
H36   H     H_    0.708248 0.002404 0.579065 0.188357
N3    N     N_3   0.795997 0.446418 0.401766 -0.584667
H37   H     H_    0.785719 0.410970 0.420298 0.214687
H38   H     H_    0.791703 0.487903 0.420365 0.188533
N4    N     N_3   0.204006 0.446153 0.598373 -0.584692
H39   H     H_    0.214286 0.410631 0.579932 0.214676
H40   H     H_    0.208299 0.487579 0.579667 0.188530
C121  C     C_3   0.204092 0.882523 0.248095 -0.869765
H41   H     H_    0.210783 0.857817 0.211883 0.209851
H42   H     H_    0.214346 0.851555 0.296100 0.221655
H43   H     H_    0.169669 0.886410 0.217760 0.250794
C122  C     C_3   0.795908 0.886306 0.742811 -0.869551
H44   H     H_    0.789232 0.858328 0.776980 0.209825
H45   H     H_    0.785644 0.858378 0.692497 0.221836
H46   H     H_    0.830330 0.890499 0.773437 0.250487
C123  C     C_3   0.704093 0.381088 0.244016 -0.869873
H47   H     H_    0.710790 0.357867 0.206987 0.209856
H48   H     H_    0.714344 0.348843 0.290932 0.221579
H49   H     H_    0.669669 0.384832 0.213801 0.250920
C124  C     C_3   0.295911 0.380991 0.756292 -0.869873
H50   H     H_    0.289213 0.357881 0.793379 0.209859
H51   H     H_    0.285661 0.348653 0.709458 0.221577
H52   H     H_    0.330334 0.384725 0.786498 0.250930
N5    N     N_3   0.290878 0.883836 0.313546 -0.575981
H53   H     H_    0.276814 0.870426 0.258719 0.199680
H54   H     H_    0.285577 0.848779 0.340292 0.226428
N6    N     N_3   0.709127 0.885954 0.677457 -0.576067
H55   H     H_    0.723204 0.869402 0.731114 0.199549
H56   H     H_    0.714421 0.853504 0.648056 0.226462
N7    N     N_3   0.790880 0.383130 0.309547 -0.575930
H57   H     H_    0.776821 0.371126 0.254284 0.199715
H58   H     H_    0.785577 0.346994 0.335067 0.226425
N8    N     N_3   0.209123 0.383085 0.690752 -0.575915
H59   H     H_    0.223182 0.371186 0.746045 0.199727
H60   H     H_    0.214428 0.346872 0.665326 0.226426
N9    N     N_3   0.942032 0.075854 0.254591 -0.577688
H61   H     H_    0.947067 0.121292 0.245674 0.213217
H62   H     H_    0.912071 0.063126 0.210584 0.223111
N10   N     N_3   0.058014 0.075773 0.745462 -0.577575
H63   H     H_    0.053007 0.121217 0.754407 0.213293
H64   H     H_    0.087967 0.063003 0.789461 0.223212
N11   N     N_3   0.442043 0.575873 0.254603 -0.577629
H65   H     H_    0.447084 0.621309 0.245694 0.213299
H66   H     H_    0.412080 0.563156 0.210594 0.223290
N12   N     N_3   0.557956 0.575873 0.745396 -0.577651
H67   H     H_    0.552914 0.621309 0.754305 0.213262
H68   H     H_    0.587919 0.563155 0.789405 0.223298
N13   N     N_3   0.061660 0.927731 0.250378 -0.590348
H69   H     H_    0.078137 0.955635 0.236040 0.216254
H70   H     H_    0.046920 0.892710 0.210952 0.240486
N14   N     N_3   0.938288 0.927828 0.749576 -0.590820
H71   H     H_    0.921825 0.955762 0.763917 0.216060
H72   H     H_    0.953004 0.892794 0.788993 0.240299
N15   N     N_3   0.561644 0.427704 0.250364 -0.590180
H73   H     H_    0.578125 0.455599 0.236025 0.216341
H74   H     H_    0.546897 0.392686 0.210935 0.240515
N16   N     N_3   0.438358 0.427704 0.749637 -0.590159
H75   H     H_    0.421876 0.455599 0.763976 0.216338
H76   H     H_    0.453105 0.392686 0.789066 0.240528
C125  C     C_3   0.562736 0.816361 0.490280 -0.798444
H77   H     H_    0.591053 0.787431 0.513411 0.230595
H78   H     H_    0.551390 0.830415 0.432757 0.238835
H79   H     H_    0.573293 0.857586 0.526629 0.222171
C126  C     C_3   0.437252 0.816362 0.509693 -0.797983
H80   H     H_    0.408927 0.787443 0.486504 0.230628
H81   H     H_    0.448582 0.830376 0.567221 0.238584
H82   H     H_    0.426715 0.857613 0.473386 0.222494
C127  C     C_3   0.062770 0.316363 0.490377 -0.797863
H83   H     H_    0.091097 0.287442 0.513584 0.230650
H84   H     H_    0.051455 0.330382 0.432857 0.238521
H85   H     H_    0.073300 0.357611 0.526686 0.222582
C128  C     C_3   0.937227 0.316366 0.509619 -0.797855
H86   H     H_    0.908898 0.287450 0.486397 0.230649
H87   H     H_    0.948540 0.330373 0.567141 0.238540
H88   H     H_    0.926703 0.357622 0.473322 0.222569
C129  C     C_3   0.048559 0.183437 0.455614 -0.814147
H89   H     H_    0.055171 0.213098 0.421807 0.229681
H90   H     H_    0.078358 0.164951 0.503632 0.242198
H91   H     H_    0.029263 0.145074 0.418216 0.221086
C130  C     C_3   0.951437 0.183439 0.544378 -0.814029
H92   H     H_    0.944818 0.213102 0.578176 0.229714
H93   H     H_    0.921642 0.164947 0.496360 0.242187
H94   H     H_    0.970735 0.145080 0.581785 0.221078
C131  C     C_3   0.548518 0.683432 0.455528 -0.814082
H95   H     H_    0.555097 0.713088 0.421672 0.229728
H96   H     H_    0.578332 0.664966 0.503527 0.242175
H97   H     H_    0.529221 0.645054 0.418163 0.221075
C132  C     C_3   0.451471 0.683435 0.544450 -0.814186
H98   H     H_    0.444866 0.713096 0.578268 0.229692
H99   H     H_    0.421670 0.664941 0.496448 0.242211
H100  H     H_    0.470776 0.645076 0.581848 0.221068
N17   N     N_3   0.211081 0.968311 0.323595 -0.586257
H101  H     H_    0.216270 0.934854 0.362539 0.224447
H102  H     H_    0.226234 0.007802 0.353895 0.195435
N18   N     N_3   0.788894 0.977180 0.674213 -0.586455
H103  H     H_    0.783702 0.946457 0.632755 0.224443
H104  H     H_    0.773731 0.017729 0.647046 0.195409
N19   N     N_3   0.711071 0.464474 0.322417 -0.586145
H105  H     H_    0.716260 0.429879 0.360191 0.224434
H106  H     H_    0.726220 0.503423 0.354064 0.195464
N20   N     N_3   0.288931 0.464196 0.677678 -0.586142
H107  H     H_    0.283744 0.429519 0.639993 0.224431
H108  H     H_    0.273781 0.503103 0.645930 0.195457
C133  C     C_3   0.017341 0.816376 0.402848 -0.871727
H109  H     H_    0.022514 0.784166 0.369039 0.233571
H110  H     H_    0.990556 0.846512 0.364234 0.227260
H111  H     H_    0.045783 0.845017 0.436491 0.237270
C134  C     C_3   0.982661 0.816377 0.597156 -0.871834
H112  H     H_    0.977488 0.784168 0.630965 0.233537
H113  H     H_    0.009448 0.846511 0.635771 0.227253
H114  H     H_    0.954221 0.845022 0.563515 0.237277
C135  C     C_3   0.517333 0.316376 0.402837 -0.871895
H115  H     H_    0.522503 0.284166 0.369024 0.233547
H116  H     H_    0.490546 0.346511 0.364225 0.227275
H117  H     H_    0.545774 0.345018 0.436475 0.237261
C136  C     C_3   0.482669 0.316377 0.597166 -0.871785
H118  H     H_    0.477499 0.284168 0.630979 0.233562
H119  H     H_    0.509456 0.346511 0.635777 0.227266
H120  H     H_    0.454228 0.345020 0.563528 0.237265
N21   N     N_3   0.292286 0.112037 0.281681 -0.585189
H121  H     H_    0.280736 0.114313 0.225342 0.222641
H122  H     H_    0.283532 0.153035 0.294624 0.223781
N22   N     N_3   0.707713 0.110862 0.727065 -0.585035
H123  H     H_    0.719275 0.109635 0.783451 0.222625
H124  H     H_    0.716459 0.153427 0.717383 0.223812
N23   N     N_3   0.792285 0.612336 0.285545 -0.585225
H125  H     H_    0.780739 0.616148 0.229312 0.222678
H126  H     H_    0.783528 0.652567 0.299881 0.223751
N24   N     N_3   0.207711 0.612356 0.714165 -0.585243
H127  H     H_    0.219256 0.616280 0.770388 0.222656
H128  H     H_    0.216468 0.652528 0.699728 0.223760
N25   N     N_3   0.210975 0.923683 0.117856 -0.599745
H129  H     H_    0.231495 0.886876 0.142684 0.199717
H130  H     H_    0.181008 0.912168 0.102889 0.233738
N26   N     N_3   0.789055 0.916638 0.875887 -0.599540
H131  H     H_    0.768536 0.880281 0.848205 0.199639
H132  H     H_    0.819019 0.906328 0.889981 0.234065
N27   N     N_3   0.710987 0.426926 0.115286 -0.599829
H133  H     H_    0.731508 0.389992 0.138852 0.199739
H134  H     H_    0.681019 0.414906 0.099905 0.233596
N28   N     N_3   0.289014 0.427173 0.884901 -0.599841
H135  H     H_    0.268494 0.390231 0.861430 0.199749
H136  H     H_    0.318982 0.415116 0.900313 0.233581
N29   N     N_3   0.210510 0.030442 0.100360 -0.571835
H137  H     H_    0.214925 0.015594 0.059367 0.239507
H138  H     H_    0.227526 0.071159 0.120458 0.191495
N30   N     N_3   0.789518 0.021743 0.901681 -0.571955
H139  H     H_    0.785115 0.003397 0.941388 0.239696
H140  H     H_    0.772500 0.062577 0.884784 0.191343
N31   N     N_3   0.710521 0.534208 0.101469 -0.571726
H141  H     H_    0.714940 0.520924 0.059997 0.239471
H142  H     H_    0.727536 0.574794 0.122968 0.191592
N32   N     N_3   0.289476 0.534488 0.898443 -0.571733
H143  H     H_    0.285056 0.521321 0.939947 0.239443
H144  H     H_    0.272460 0.575062 0.876839 0.191574

loop_
_geom_bond_atom_site_label_1
_geom_bond_atom_site_label_2
_ccdc_geom_bond_type
C44   N16   S    
C135  H116  S    
C41   N13   S    
N21   H121  S    
C68   O12   A    
C131  H95   S    
C126  H82   S    
Cu1   O2    S    
Cu11  O7    S    
C94   C136  S    
C48   O24   A    
C26   C50   A    
C131  H97   S    
N8    H60   S    
N15   H73   S    
C29   C33   A    
C100  C104  S    
C121  H43   S    
N6    H55   S    
N16   H75   S    
Cu7   O43   S    
C29   N9    S    
C70   C84   S    
C43   N15   S    
C61   O42   A    
C6    H30   S    
C73   C75   A    
C76   C83   A    
C62   O44   A    
N1    H34   S    
C25   C29   A    
Cu5   O38   S    
C79   C109  S    
C27   C31   A    
C7    C119  S    
C28   C32   A    
N22   H123  S    
C1    O17   A    
C136  H118  S    
C7    H31   S    
C17   C21   T    
C4    O4    A    
Cu12  O11   S    
C5    H29   S    
C19   C23   T    
C122  H44   S    
Cu7   O31   S    
C69   O14   A    
C56   O31   A    
C56   C86   S    
N27   H133  S    
Cu5   O29   S    
N26   H131  S    
C46   O22   A    
C94   C96   A    
Cu4   O19   S    
N14   H72   S    
C122  H45   S    
C81   C123  S    
C63   O46   A    
Cu9   O45   S    
C98   H18   S    
C136  H120  S    
Cu2   O3    S    
C57   O33   A    
N11   H66   S    
C17   C109  S    
N12   H68   S    
C36   C68   S    
Cu2   O24   S    
C19   C111  S    
C127  H84   S    
C45   O21   A    
Cu5   O41   S    
C27   H7    S    
Cu1   Cu3   S    
C60   O36   A    
C58   O38   A    
Cu3   O17   S    
C133  H109  S    
C64   O48   A    
Cu8   O44   S    
C58   C106  S    
Cu4   O27   S    
N7    H58   S    
C114  N6    S    
C98   H22   S    
N25   H129  S    
C10   N26   S    
C70   O16   A    
C34   C66   S    
N32   H143  S    
C3    O3    A    
C82   N20   S    
C5    H1    S    
Cu12  O48   S    
C74   C76   A    
C32   C36   A    
N2    H36   S    
Cu4   O20   S    
C122  H46   S    
C16   C120  S    
C76   C130  S    
C70   O15   A    
C9    N25   S    
Cu11  O12   S    
N30   H139  S    
N5    H53   S    
C134  H113  S    
C72   C78   A    
C2    C50   S    
C43   C51   A    
C53   C61   S    
C60   O40   A    
N18   H104  S    
C132  H99   S    
N10   H64   S    
C89   C91   A    
Cu7   O40   S    
Cu6   O34   S    
C20   C112  S    
C124  H50   S    
C130  H93   S    
C27   C51   A    
C21   C45   S    
N17   H102  S    
C88   C94   A    
C23   C47   S    
C30   C34   A    
C24   C48   S    
C64   C96   S    
C99   C103  S    
C8    H32   S    
C77   C84   A    
C59   C107  S    
C116  C120  S    
C99   H23   S    
C11   N31   S    
C74   C128  S    
C25   H5    S    
C5    C9    S    
C129  H89   S    
C73   C127  S    
C97   C109  S    
N24   H128  S    
C35   C67   S    
C8    C12   S    
C133  H111  S    
C99   C111  S    
C128  H86   S    
C53   C87   A    
Cu3   O26   S    
N28   H136  S    
N13   H70   S    
C42   C50   A    
C113  C117  S    
N27   H134  S    
Cu12  O16   S    
C26   C30   A    
C115  C119  S    
N23   H126  S    
Cu11  O47   S    
C30   N10   S    
Cu2   Cu4   S    
C12   C112  S    
Cu9   Cu10  S    
C89   H15   S    
N4    H40   S    
C18   C22   T    
C66   O10   A    
C79   N17   S    
C80   C114  S    
Cu7   O35   S    
N12   H67   S    
C126  H81   S    
C78   C132  S    
Cu1   O1    S    
C79   C113  S    
C104  N24   S    
C87   C93   A    
C121  H42   S    
C15   C119  S    
N16   H76   S    
C116  N4    S    
C123  H49   S    
Cu10  O46   S    
C91   C95   A    
C92   C134  S    
C40   C44   A    
C55   O30   A    
C124  H52   S    
C57   O37   A    
C97   H17   S    
C72   C126  S    
C47   O23   A    
C61   O41   A    
C12   N28   S    
C98   C110  S    
C8    H4    S    
C71   C77   A    
N1    H33   S    
N29   H138  S    
C71   C125  S    
C37   H9    S    
C81   C111  S    
N22   H124  S    
C129  H91   S    
C82   C124  S    
C63   C95   S    
C128  H88   S    
C135  H115  S    
C15   C107  T    
Cu10  O14   S    
C69   O13   A    
Cu1   O22   S    
C56   O32   A    
C67   O11   A    
N26   H132  S    
C97   H21   S    
C2    O2    A    
C60   C108  S    
C65   O9    A    
C100  H24   S    
C136  H119  S    
C101  H25   S    
N19   H105  S    
Cu6   O37   S    
C102  H26   S    
C63   O45   A    
N21   H122  S    
C72   C85   A    
C115  N7    S    
C131  H96   S    
Cu10  O9    S    
C9    C109  S    
Cu2   O4    S    
C11   C111  S    
C13   C105  T    
N3    H37   S    
C3    C51   S    
C54   C62   S    
N8    H59   S    
Cu9   O13   S    
C100  H20   S    
C65   O5    A    
C82   C112  S    
C55   C85   S    
C35   C39   A    
Cu8   O36   S    
C127  H83   S    
C114  N2    S    
C93   C135  S    
Cu6   O30   S    
C10   N30   S    
N31   H142  S    
C22   C46   S    
C100  C112  S    
Cu5   Cu6   S    
C31   C35   A    
Cu9   O10   S    
C9    N29   S    
Cu11  Cu12  S    
C62   O43   A    
Cu4   O28   S    
C11   N27   S    
C87   H13   S    
C18   C110  S    
C26   H6    S    
C6    C10   S    
N32   H144  S    
C54   C90   A    
C127  H85   S    
C41   C49   A    
C101  C117  S    
C80   N18   S    
C82   C116  S    
C75   C129  S    
C98   C102  S    
C68   O8    A    
C75   C83   A    
Cu2   O23   S    
N9    H61   S    
C116  N8    S    
Cu10  O6    S    
N30   H140  S    
C10   C110  S    
C47   O27   A    
C134  H112  S    
C91   C133  S    
C25   C49   A    
C48   O28   A    
C59   O39   A    
C14   C106  T    
N14   H71   S    
C6    H2    S    
C132  H98   S    
C31   N11   S    
Cu8   O39   S    
C4    O20   A    
C104  C120  S    
C57   C105  S    
N23   H125  S    
C130  H92   S    
N31   H141  S    
C28   H8    S    
C113  N1    S    
C80   C122  S    
C103  H27   S    
C33   C65   S    
N17   H101  S    
N18   H103  S    
C7    C11   S    
C4    C52   S    
Cu9   O5    S    
C38   C42   A    
Cu3   O18   S    
C124  H51   S    
C2    O18   A    
C90   H16   S    
C71   C85   A    
C90   C92   A    
C81   N19   S    
C20   C24   T    
C59   O35   A    
C133  H110  S    
N20   H108  S    
C64   O47   A    
Cu3   O25   S    
N13   H69   S    
C102  C118  S    
Cu5   O33   S    
N25   H130  S    
C37   C41   A    
C38   H10   S    
C115  N3    S    
N28   H135  S    
C46   O26   A    
C39   C43   A    
N19   H106  S    
C103  N23   S    
C36   C40   A    
N2    H35   S    
C54   C89   A    
N9    H62   S    
Cu11  O15   S    
C77   C131  S    
C130  H94   S    
C67   O7    A    
C126  H80   S    
C99   H19   S    
C92   C95   A    
C5    C117  S    
N5    H54   S    
C134  H114  S    
C7    H3    S    
N20   H107  S    
C69   C83   S    
N3    H38   S    
C1    O1    A    
C132  H100  S    
N10   H63   S    
C81   C115  S    
C121  H41   S    
C104  H28   S    
C74   C86   A    
C32   N12   S    
C123  H48   S    
C102  N22   S    
C114  C118  S    
C45   O25   A    
C55   O29   A    
C39   H11   S    
C93   C96   A    
C113  N5    S    
C125  H78   S    
C135  H117  S    
C125  H79   S    
C42   N14   S    
N11   H65   S    
C8    C120  S    
C14   C118  S    
C123  H47   S    
N15   H74   S    
N6    H56   S    
C58   O34   A    
C101  N21   S    
C34   C38   A    
C66   O6    A    
C103  C119  S    
Cu8   O32   S    
N7    H57   S    
N29   H137  S    
C40   H12   S    
C129  H90   S    
Cu6   O42   S    
C28   C52   A    
C44   C52   A    
N24   H127  S    
C3    O19   A    
C128  H87   S    
C6    C118  S    
C33   C37   A    
C53   C88   A    
C12   N32   S    
N4    H39   S    
C73   C86   A    
C16   C108  T    
Cu12  O8    S    
Cu1   O21   S    
C78   C84   A    
C80   C110  S    
C13   C117  S    
C88   H14   S    
C125  H77   S    
C1    C49   S    
C79   C121  S    
C97   C101  S    
Cu7   Cu8   S    
