data_mof_unit_19698.cif
_audit_creation_date              2012-12-10T17:44:30-0500
_audit_creation_method            fapswitch 2.2
_symmetry_space_group_name_H-M    P1
_symmetry_Int_Tables_number       1
_space_group_crystal_system       triclinic
_cell_length_a                    9.892929
_cell_length_b                    10.681439
_cell_length_c                    15.415451
_cell_angle_alpha                 91.279752
_cell_angle_beta                  66.889565
_cell_angle_gamma                 88.620439
_cell_volume                      1496.9082426

loop_
_atom_site_label
_atom_site_type_symbol
_atom_type_description
_atom_site_fract_x
_atom_site_fract_y
_atom_site_fract_z
_atom_type_partial_charge
C1    C     C_R   0.504219 0.739039 0.488814 0.909441
C2    C     C_R   0.384927 0.468193 0.922832 0.053768
C3    C     C_R   0.248344 0.531569 0.975917 0.145270
C4    C     C_R   0.476522 0.422858 0.967127 -0.039693
C5    C     C_R   0.453605 0.473922 0.057373 0.078919
C6    C     C_R   0.319467 0.540752 0.109437 -0.283716
C7    C     C_R   0.216529 0.569396 0.070610 -0.041195
C8    C     C_R   0.590787 0.329329 0.924206 -0.028567
C9    C     C_R   0.697778 0.310324 0.960960 -0.195760
C10   C     C_R   0.687052 0.373131 0.043548 0.109634
C11   C     C_R   0.564800 0.454671 0.092954 0.104262
C12   C     C_R   0.407130 0.500842 0.676566 0.847655
C13   C     C_R   0.794045 0.349068 0.079937 -0.287819
C14   C     C_R   0.777665 0.398440 0.168374 0.019723
C15   C     C_R   0.557377 0.513167 0.177007 -0.253444
C16   C     C_R   0.242828 0.893964 0.490355 -0.144844
C17   C     C_R   0.107063 0.957960 0.533050 -0.158116
C18   C     C_R   0.096046 0.068886 0.584537 -0.135304
C19   C     C_R   0.223131 0.122098 0.584725 -0.150321
C20   C     C_R   0.363187 0.063977 0.532915 0.088682
C21   C     C_R   0.370670 0.941322 0.498042 0.069852
C22   C     C_R   0.506243 0.872140 0.471938 -0.146371
C23   C     C_R   0.497072 0.260217 0.506885 0.880448
C24   C     C_R   0.639146 0.934816 0.449314 -0.020287
C25   C     C_R   0.632155 0.061720 0.469419 -0.303749
C26   C     C_R   0.496235 0.126174 0.510525 -0.119062
C27   C     C_R   0.782235 0.667315 0.623740 -0.162814
C28   C     C_R   0.813496 0.744761 0.686792 -0.195143
C29   C     C_R   0.952316 0.740395 0.688522 -0.179439
C30   C     C_R   0.061389 0.660019 0.626114 -0.179592
C31   C     C_R   0.033513 0.580412 0.561478 0.143371
C32   C     C_R   0.889212 0.582129 0.560729 0.175244
C33   C     C_R   0.964999 0.419309 0.443900 -0.063204
C34   C     C_R   0.593313 0.497054 0.322998 0.895881
C35   C     C_R   0.108662 0.420423 0.443001 -0.116845
C36   C     C_R   0.345058 0.501896 0.779476 -0.055621
C37   C     C_R   0.652588 0.477012 0.219722 -0.061296
C38   C     C_R   0.151402 0.557114 0.930783 -0.141319
C39   C     C_R   0.199383 0.541047 0.833082 -0.225377
C40   C     C_R   0.435800 0.465475 0.824574 -0.273935
H1    H     H_    0.888020 0.287087 0.040876 0.139579
H2    H     H_    0.989926 0.116002 0.621425 0.179393
H3    H     H_    0.733893 0.111472 0.448340 0.160024
H4    H     H_    0.940299 0.351881 0.399404 0.169725
H5    H     H_    0.672819 0.677207 0.627638 0.202319
H6    H     H_    0.729175 0.808591 0.734693 0.173794
H7    H     H_    0.976399 0.800879 0.737549 0.169071
H8    H     H_    0.166393 0.662841 0.630045 0.208754
H9    H     H_    0.192644 0.355302 0.396507 0.160503
H10   H     H_    0.786644 0.241382 0.927543 0.188535
H11   H     H_    0.039289 0.590466 0.969250 0.200885
H12   H     H_    0.125267 0.565579 0.799349 0.161767
H13   H     H_    0.549594 0.439653 0.782171 0.173143
N1    N     N_R   0.856800 0.501200 0.500850 -0.110394
N2    N     N_R   0.142390 0.501280 0.500880 -0.124145
O1    O     O_R   0.385310 0.683220 0.500000 -0.659106
O2    O     O_R   0.614640 0.683250 0.500010 -0.603894
O3    O     O_R   0.319840 0.499980 0.632240 -0.636815
O4    O     O_R   0.549160 0.500000 0.632250 -0.632965
O5    O     O_R   0.385360 0.316750 0.499990 -0.620066
O6    O     O_R   0.614690 0.316780 0.500000 -0.618927
O7    O     O_R   0.450840 0.500000 0.367750 -0.628421
O8    O     O_R   0.680160 0.500020 0.367760 -0.523904
Zn1   Zn    Zn3+2 0.346880 0.499980 0.499990 0.919706
Zn2   Zn    Zn3+2 0.653120 0.500020 0.500010 0.987858
C41   C     C_2   0.087597 0.651183 0.129769 0.461477
H14   H     H_    0.052205 0.653442 0.205954 0.146431
O9    O     O_2   0.025842 0.722765 0.095404 -0.575381
C42   C     C_2   0.787191 0.874408 0.398294 0.437786
H15   H     H_    0.882816 0.914972 0.404360 0.029848
O10   O     O_2   0.805062 0.783325 0.345160 -0.547339
H16   H     H_    0.246542 0.810343 0.448632 0.169875
H17   H     H_    0.009974 0.919949 0.527828 0.148622
H18   H     H_    0.211088 0.209401 0.624488 0.158504
H19   H     H_    0.472218 0.582446 0.214636 0.152724
C43   C     C_2   0.890134 0.358968 0.204023 0.352379
H20   H     H_    0.939800 0.265122 0.187022 0.063947
O11   O     O_2   0.936597 0.432571 0.246261 -0.590836
H21   H     H_    0.290697 0.571427 0.181754 0.139012
C44   C     C_2   0.588988 0.237936 0.850288 0.374158
H22   H     H_    0.488637 0.224716 0.839005 0.077158
O12   O     O_2   0.698901 0.175214 0.801979 -0.594106

loop_
_geom_bond_atom_site_label_1
_geom_bond_atom_site_label_2
_ccdc_geom_bond_type
C15   H19   S    
O8    Zn2   S    
C16   C21   A    
C34   C37   S    
C41   O9    D    
C19   C20   A    
C16   H16   S    
C4    C8    A    
C25   H3    S    
C13   H1    S    
N1    Zn2   S    
C28   H6    S    
C29   H7    S    
C30   H8    S    
C28   C29   A    
C1    O1    A    
C43   O11   D    
C5    C11   A    
C3    C7    A    
C18   H2    S    
C5    C6    A    
C44   H22   S    
C34   O7    A    
C18   C19   A    
C23   C26   S    
C42   O10   D    
C15   C37   A    
O7    Zn1   S    
C12   O4    A    
C11   C15   A    
C3    C38   A    
C8    C9    A    
C35   H9    S    
O1    Zn1   S    
C2    C40   A    
C12   C36   S    
C9    C10   A    
C12   O3    A    
C27   H5    S    
C39   H12   S    
C1    C22   S    
C21   C22   A    
C17   H17   S    
C32   N1    A    
C24   C42   S    
C19   H18   S    
O3    Zn1   S    
C23   O5    A    
C35   N2    A    
C36   C40   A    
C38   C39   A    
C43   H20   S    
C44   O12   D    
C16   C17   A    
C38   H11   S    
C25   C26   A    
C14   C43   S    
C2    C4    A    
C29   C30   A    
C1    O2    A    
C31   C32   A    
N2    Zn1   S    
C17   C18   A    
C24   C25   A    
C22   C24   A    
C33   N1    A    
C27   C32   A    
C33   H4    S    
C36   C39   A    
C9    H10   S    
O2    Zn2   S    
C4    C5    A    
C10   C13   A    
C6    C7    A    
O5    Zn1   S    
C2    C3    A    
O4    Zn2   S    
C14   C37   A    
C6    H21   S    
C30   C31   A    
C20   C26   A    
C34   O8    A    
C33   C35   A    
C41   H14   S    
C42   H15   S    
C10   C11   A    
O6    Zn2   S    
C23   O6    A    
C20   C21   A    
C40   H13   S    
C27   C28   A    
C8    C44   S    
C31   N2    A    
C13   C14   A    
C7    C41   S    
