data_mof_unit_39951.cif
_audit_creation_date              2012-12-10T18:05:41-0500
_audit_creation_method            fapswitch 2.2
_symmetry_space_group_name_H-M    P1
_symmetry_Int_Tables_number       1
_space_group_crystal_system       triclinic
_cell_length_a                    10.807623
_cell_length_b                    10.802191
_cell_length_c                    9.514539
_cell_angle_alpha                 89.804178
_cell_angle_beta                  90.432615
_cell_angle_gamma                 89.401845
_cell_volume                      1110.68546196

loop_
_atom_site_label
_atom_site_type_symbol
_atom_type_description
_atom_site_fract_x
_atom_site_fract_y
_atom_site_fract_z
_atom_type_partial_charge
C1    C     C_R   0.500419 0.262102 0.500122 0.794362
C2    C     C_R   0.499644 0.737897 0.499877 0.794608
C3    C     C_R   0.871466 0.502142 0.501277 -0.295111
C4    C     C_R   0.128518 0.497793 0.498719 -0.287848
C5    C     C_R   0.937547 0.571835 0.601352 -0.124073
C6    C     C_R   0.062432 0.428138 0.398596 -0.086980
C7    C     C_R   0.531936 0.064029 0.377796 -0.040227
C8    C     C_R   0.468019 0.935973 0.622176 -0.060669
C9    C     C_R   0.531188 0.936006 0.377451 -0.054070
C10   C     C_R   0.468802 0.063995 0.622533 -0.089277
C11   C     C_R   0.499419 0.871713 0.499711 -0.053469
C12   C     C_R   0.500594 0.128288 0.500280 -0.066335
C13   C     C_R   0.574876 0.420583 0.075924 -0.125414
C14   C     C_R   0.425122 0.579415 0.924075 -0.124930
C15   C     C_R   0.575495 0.420472 0.926810 0.255477
C16   C     C_R   0.424499 0.579523 0.073189 0.258661
C17   C     C_R   0.262342 0.498876 0.499463 0.891212
C18   C     C_R   0.737653 0.501095 0.500536 0.900256
C19   C     C_R   0.184178 0.312313 0.050357 0.008021
C20   C     C_R   0.815625 0.687835 0.949608 0.004902
C21   C     C_R   0.130184 0.387778 0.153492 -0.266312
C22   C     C_R   0.869695 0.612242 0.846479 -0.233047
C23   C     C_R   0.124550 0.347823 0.293830 0.113320
C24   C     C_R   0.875497 0.652210 0.706103 0.066170
C25   C     C_R   0.171929 0.230014 0.331825 0.004296
C26   C     C_R   0.828075 0.770382 0.668826 -0.017193
C27   C     C_R   0.224950 0.154224 0.227548 0.487689
C28   C     C_R   0.775128 0.845735 0.772258 0.568753
C29   C     C_R   0.231508 0.195614 0.088411 0.590476
C30   C     C_R   0.768343 0.804610 0.911451 0.551000
C31   C     C_R   0.933930 0.431203 0.400569 0.584484
C32   C     C_R   0.066050 0.568740 0.599406 0.561462
Cu1   Cu    Cu3+1 0.500000 0.500020 0.640660 0.989733
Cu2   Cu    Cu3+1 0.500000 0.499980 0.359340 0.986563
H1    H     H_    0.091542 0.477375 0.124693 0.170633
H2    H     H_    0.908221 0.522617 0.875333 0.173325
H3    H     H_    0.557194 0.112516 0.282554 0.171360
H4    H     H_    0.442718 0.887486 0.717405 0.172473
H5    H     H_    0.556254 0.887553 0.282144 0.187350
H6    H     H_    0.443705 0.112451 0.717827 0.192046
H7    H     H_    0.634866 0.357369 0.133633 0.190408
H8    H     H_    0.365130 0.642624 0.866365 0.189172
N1    N     N_R   0.500030 0.500030 0.852070 -0.177203
N2    N     N_R   0.499970 0.499970 0.147930 -0.176677
O1    O     O_R   0.499990 0.319660 0.618740 -0.563469
O2    O     O_R   0.500010 0.680340 0.381260 -0.565891
O3    O     O_R   0.499990 0.319630 0.381170 -0.596004
O4    O     O_R   0.500010 0.680370 0.618830 -0.595859
O5    O     O_R   0.319650 0.500020 0.618780 -0.549234
O6    O     O_R   0.680350 0.499980 0.381220 -0.553331
O7    O     O_R   0.319640 0.500000 0.381210 -0.570602
O8    O     O_R   0.680360 0.500000 0.618790 -0.563575
F1    F     F_    0.282633 0.121094 0.989504 -0.630438
F2    F     F_    0.717205 0.879305 0.010164 -0.629411
N3    N     N_3   0.655354 0.336609 0.854103 -0.490247
H9    H     H_    0.632526 0.246563 0.884310 0.246089
H10   H     H_    0.746152 0.352687 0.887471 0.212785
N4    N     N_3   0.344618 0.663359 0.145896 -0.496179
H11   H     H_    0.367377 0.753412 0.115684 0.245224
H12   H     H_    0.253823 0.647233 0.112563 0.210150
N5    N     N_3   0.188136 0.351167 0.906024 -0.509784
H13   H     H_    0.281086 0.356233 0.877358 0.252509
H14   H     H_    0.151040 0.440499 0.895011 0.240638
N6    N     N_3   0.811573 0.649047 0.093954 -0.518859
H15   H     H_    0.718608 0.644025 0.122561 0.254763
H16   H     H_    0.848641 0.559713 0.105034 0.237110
N7    N     N_3   0.161729 0.187325 0.474615 -0.512560
H17   H     H_    0.222909 0.238732 0.536061 0.199858
H18   H     H_    0.190173 0.094911 0.483926 0.285754
N8    N     N_3   0.835907 0.816878 0.527950 -0.492086
H19   H     H_    0.787085 0.757823 0.461378 0.205676
H20   H     H_    0.928795 0.815553 0.498071 0.260225
F3    F     F_    0.268395 0.039179 0.259680 -0.650157
F4    F     F_    0.732572 0.960660 0.738291 -0.613766
F5    F     F_    0.869744 0.360848 0.307283 -0.660161
F6    F     F_    0.130230 0.639149 0.692642 -0.668546

loop_
_geom_bond_atom_site_label_1
_geom_bond_atom_site_label_2
_ccdc_geom_bond_type
N3    H9    S    
C27   C29   A    
Cu1   O1    S    
C25   N7    S    
C28   F4    S    
C17   O7    A    
C13   H7    S    
C18   O8    A    
C20   C30   A    
C2    O2    A    
Cu1   O8    S    
C30   F2    S    
Cu2   O7    S    
C19   C21   A    
C24   C26   A    
N4    H12   S    
C9    H5    S    
C3    C18   S    
C10   H6    S    
N5    H14   S    
N8    H19   S    
Cu2   O2    S    
C16   N2    A    
C14   H8    S    
C5    C32   A    
C6    C31   A    
C1    C12   S    
C8    H4    S    
C2    C11   S    
C21   C23   A    
C7    C12   A    
Cu2   O6    S    
N7    H17   S    
Cu1   N1    S    
Cu2   N2    S    
C4    C6    A    
C17   O5    A    
C1    O3    A    
C2    O4    A    
N4    H11   S    
N7    H18   S    
C15   N3    S    
C20   N6    S    
C31   F5    S    
Cu1   Cu2   S    
C7    H3    S    
N3    H10   S    
C16   N4    S    
C3    C31   A    
C9    C11   A    
C4    C32   A    
C10   C12   A    
C4    C17   S    
C20   C22   A    
C13   C15   A    
C26   N8    S    
C22   C24   A    
C19   C29   A    
C18   O6    A    
C7    C9    A    
C3    C5    A    
C32   F6    S    
C21   H1    S    
C25   C27   A    
C22   H2    S    
C26   C28   A    
N6    H15   S    
C28   C30   A    
C15   N1    A    
C1    O1    A    
C5    C24   S    
C29   F1    S    
C19   N5    S    
C8    C11   A    
C6    C23   S    
C14   C16   A    
C23   C25   A    
N5    H13   S    
C8    C10   A    
Cu1   O4    S    
N8    H20   S    
Cu2   O3    S    
C27   F3    S    
Cu1   O5    S    
C13   N2    A    
N6    H16   S    
C14   N1    A    
