data_mof_unit_37005.cif
_audit_creation_date              2012-12-10T21:00:40-0500
_audit_creation_method            fapswitch 2.2
_symmetry_space_group_name_H-M    P1
_symmetry_Int_Tables_number       1
_space_group_crystal_system       triclinic
_cell_length_a                    18.182684
_cell_length_b                    18.172384
_cell_length_c                    18.294618
_cell_angle_alpha                 119.783389
_cell_angle_beta                  90.062948
_cell_angle_gamma                 120.020164
_cell_volume                      4284.73977361

loop_
_atom_site_label
_atom_site_type_symbol
_atom_type_description
_atom_site_fract_x
_atom_site_fract_y
_atom_site_fract_z
_atom_type_partial_charge
C1    C     C_R   0.112138 0.220047 0.609841 0.838958
C2    C     C_3   0.449778 0.895947 0.947347 -0.252099
C3    C     C_3   0.096178 0.973895 0.170980 0.103522
C4    C     C_3   0.102867 0.075791 0.218780 -0.403090
C5    C     C_3   0.200780 0.169950 0.269226 -0.972409
C6    C     C_3   0.993371 0.277395 0.335886 0.073974
C7    C     C_3   0.967612 0.218148 0.379262 -0.333677
C8    C     C_3   0.895302 0.102478 0.311157 -0.992089
C9    C     C_3   0.898508 0.599464 0.648658 0.095522
C10   C     C_3   0.800045 0.514127 0.587363 -0.332659
C11   C     C_3   0.744987 0.461290 0.630053 -1.025039
C12   C     C_3   0.822257 0.533253 0.969684 0.175074
C13   C     C_3   0.474311 0.027523 0.075919 0.514688
C14   C     C_3   0.806825 0.498224 0.872400 -0.433539
C15   C     C_3   0.706411 0.422251 0.819160 -0.955213
C16   C     C_3   0.964752 0.258116 0.812540 0.152058
C17   C     C_3   0.872867 0.164550 0.791489 -0.415155
C18   C     C_3   0.826542 0.082089 0.691014 -0.943181
C19   C     C_3   0.497977 0.136019 0.228834 0.066200
C20   C     C_3   0.579110 0.144614 0.267706 -0.321942
C21   C     C_3   0.638937 0.246969 0.359509 -1.004730
C22   C     C_3   0.599331 0.905287 0.847327 0.087193
C23   C     C_3   0.666741 0.936433 0.800601 -0.346140
C24   C     C_3   0.525716 0.972165 0.932235 0.505564
C25   C     C_3   0.732884 0.909092 0.804521 -0.959244
C26   C     C_3   0.459605 0.411087 0.494948 -0.190935
C27   C     C_3   0.539685 0.587623 0.504434 -0.181018
C28   C     C_3   0.562508 0.492123 0.527765 -0.191072
C29   C     C_3   0.436736 0.506517 0.471556 -0.172496
C30   C     C_3   0.550165 0.498821 0.448847 0.070958
C31   C     C_3   0.449265 0.499994 0.550603 0.065462
C32   C     C_3   0.448014 0.417565 0.415037 -0.137971
C33   C     C_R   0.888511 0.779997 0.390195 0.822166
C34   C     C_3   0.551314 0.581066 0.584269 -0.131108
C35   C     C_R   0.228115 0.205502 0.811168 -0.235629
C36   C     C_R   0.798307 0.805253 0.178991 -0.324916
C37   C     C_R   0.392683 0.780615 0.887710 0.877958
C38   C     C_R   0.607338 0.219477 0.113868 0.849825
C39   C     C_R   0.187542 0.158939 0.721212 0.566429
C40   C     C_R   0.829055 0.851340 0.271785 0.559649
C41   C     C_R   0.092711 0.097454 0.684836 -0.056618
C42   C     C_R   0.921347 0.902405 0.312910 0.006986
C43   C     C_R   0.040675 0.076884 0.737585 -0.311189
C44   C     C_3   0.925545 0.401199 0.441421 -0.372145
C45   C     C_R   0.980844 0.911100 0.264061 -0.376674
C46   C     C_R   0.080722 0.121977 0.827176 0.576286
C47   C     C_R   0.950681 0.872482 0.173579 0.591017
C48   C     C_R   0.175697 0.187018 0.863751 -0.307326
C49   C     C_R   0.858479 0.816118 0.131451 -0.204307
C50   C     C_R   0.988431 0.943189 0.534950 -0.301223
C51   C     C_R   0.014911 0.056803 0.464954 -0.289352
C52   C     C_R   0.944752 0.892346 0.444851 -0.034158
C53   C     C_R   0.057982 0.107764 0.555228 -0.031058
C54   C     C_R   0.958793 0.949755 0.408937 0.100462
C55   C     C_3   0.074196 0.597316 0.557142 -0.276501
C56   C     C_R   0.046337 0.050388 0.590814 0.050987
C57   C     C_R   0.590396 0.507177 0.738558 -0.117202
C58   C     C_R   0.395312 0.496460 0.257762 -0.130693
C59   C     C_R   0.551650 0.483408 0.796231 -0.192436
C60   C     C_R   0.433364 0.519967 0.199707 -0.222396
C61   C     C_R   0.108297 0.498020 0.887302 0.832834
C62   C     C_R   0.886570 0.496867 0.107568 0.831646
C63   C     C_R   0.578091 0.562627 0.886426 0.026902
C64   C     C_R   0.422184 0.441404 0.115724 0.030906
C65   C     C_R   0.641855 0.667843 0.917714 0.490194
C66   C     C_3   0.411417 0.961888 0.978712 -0.373944
C67   C     C_R   0.372608 0.337427 0.090348 0.507061
C68   C     C_R   0.681404 0.689906 0.859260 -0.136256
C69   C     C_R   0.335561 0.315688 0.149876 -0.122489
C70   C     C_R   0.656230 0.610113 0.770402 -0.227106
C71   C     C_R   0.346010 0.394410 0.232606 -0.213519
C72   C     C_R   0.588289 0.534388 0.003113 -0.270704
C73   C     C_R   0.412420 0.470003 0.999705 -0.274092
C74   C     C_R   0.551241 0.502010 0.057044 -0.047177
C75   C     C_R   0.448926 0.500199 0.944453 -0.050355
C76   C     C_R   0.462841 0.470384 0.056245 -0.027996
C77   C     C_3   0.588649 0.038360 0.029353 -0.477022
C78   C     C_R   0.537671 0.533269 0.946021 -0.023628
C79   C     C_R   0.177414 0.831064 0.028245 -0.147503
C80   C     C_R   0.841792 0.193592 0.035941 -0.124862
C81   C     C_R   0.133469 0.744696 0.031815 -0.092348
C82   C     C_R   0.857044 0.251844 0.001838 -0.108059
C83   C     C_R   0.058870 0.648876 0.959195 0.264228
C84   C     C_R   0.939141 0.349183 0.040685 0.250233
C85   C     C_R   0.392360 0.500101 0.607697 0.781014
C86   C     C_R   0.607548 0.499512 0.392214 0.765568
C87   C     C_R   0.028369 0.640767 0.883186 -0.091951
C88   C     C_3   0.488171 0.037708 0.963187 0.426194
C89   C     C_R   0.004510 0.388812 0.115656 -0.118785
C90   C     C_R   0.072130 0.727702 0.880298 -0.103886
C91   C     C_R   0.987407 0.332039 0.151741 -0.156279
C92   C     C_R   0.146449 0.822723 0.952759 -0.107019
C93   C     C_R   0.906422 0.233939 0.111314 -0.130099
C94   C     C_R   0.950787 0.545105 0.005713 0.443825
C95   C     C_R   0.000116 0.406880 0.945002 0.438514
C96   C     C_R   0.931431 0.484869 0.039760 -0.272478
C97   C     C_R   0.041032 0.488015 0.932784 -0.266780
C98   C     C_R   0.955261 0.413587 0.007339 -0.170360
C99   C     C_3   0.511165 0.961195 0.043868 0.385016
C100  C     C_R   0.015151 0.557332 0.963267 -0.187682
C101  C     C_R   0.393619 0.499243 0.888059 0.829372
C102  C     C_R   0.606330 0.501211 0.112270 0.793801
C103  C     C_R   0.109358 0.500246 0.607576 0.814600
C104  C     C_R   0.890814 0.499713 0.392279 0.810038
C105  C     C_3   0.024165 0.438648 0.448072 0.619851
C106  C     C_3   0.976044 0.559984 0.550798 0.616175
C107  C     C_3   0.046303 0.535414 0.453794 -0.291537
C108  C     C_3   0.953891 0.462906 0.545099 -0.384908
C109  C     C_3   0.948447 0.499438 0.448934 -0.072787
C110  C     C_3   0.549788 0.104102 0.059804 -0.278677
C111  C     C_3   0.051988 0.499812 0.550095 -0.072058
C112  C     C_3   0.251582 0.099389 0.619818 0.039673
C113  C     C_3   0.338077 0.125318 0.669344 -0.358079
C114  C     C_3   0.355958 0.044294 0.611332 -0.921727
C115  C     C_3   0.682090 0.793736 0.282672 0.072819
C116  C     C_3   0.659306 0.856833 0.267261 -0.375774
C117  C     C_3   0.559858 0.791958 0.214226 -0.935952
C118  C     C_3   0.052603 0.171740 0.963428 0.100659
C119  C     C_3   0.089140 0.151448 0.021704 -0.354529
C120  C     C_3   0.113136 0.230887 0.120629 -0.982206
H1    H     H_    0.082738 0.563292 0.414694 0.154949
H2    H     H_    0.024493 0.100386 0.437216 0.172452
H3    H     H_    0.552030 0.887001 0.054645 0.340473
H4    H     H_    0.459794 0.141822 0.276419 0.160595
H5    H     H_    0.518895 0.202192 0.225160 0.148646
H6    H     H_    0.554765 0.078947 0.273756 0.256523
H7    H     H_    0.620611 0.141170 0.223341 0.228853
H8    H     H_    0.666011 0.313622 0.354349 0.251536
H9    H     H_    0.696344 0.250752 0.386564 0.268279
H10   H     H_    0.600209 0.253122 0.406565 0.266842
H11   H     H_    0.552097 0.819289 0.806114 0.173295
H12   H     H_    0.637031 0.931350 0.912818 0.131039
H13   H     H_    0.687590 0.628306 0.726090 0.149893
H14   H     H_    0.629652 0.896215 0.729665 0.223075
H15   H     H_    0.705429 0.021479 0.833185 0.232722
H16   H     H_    0.775207 0.954513 0.874787 0.267663
H17   H     H_    0.777680 0.928052 0.766226 0.281194
H18   H     H_    0.696179 0.825101 0.775272 0.257254
H19   H     H_    0.315424 0.376169 0.277143 0.148473
H20   H     H_    0.570030 0.445519 0.669347 0.139812
H21   H     H_    0.403796 0.557375 0.322210 0.137995
H22   H     H_    0.501834 0.403000 0.770989 0.137145
H23   H     H_    0.471470 0.599511 0.220054 0.139693
H24   H     H_    0.731015 0.769651 0.882578 0.152176
H25   H     H_    0.297863 0.236917 0.131464 0.141135
H26   H     H_    0.656245 0.558551 0.003841 0.157563
H27   H     H_    0.917509 0.430913 0.581851 0.153747
H28   H     H_    0.344630 0.446997 0.999646 0.176888
H29   H     H_    0.180206 0.889823 0.950299 0.129556
H30   H     H_    0.893741 0.189008 0.138124 0.116681
H31   H     H_    0.235288 0.904590 0.084139 0.159082
H32   H     H_    0.779591 0.117556 0.004315 0.129719
H33   H     H_    0.158022 0.752061 0.090687 0.116597
H34   H     H_    0.804266 0.222123 0.946744 0.106525
H35   H     H_    0.972476 0.567084 0.825637 0.087987
H36   H     H_    0.067563 0.464605 0.147284 0.116008
H37   H     H_    0.049081 0.721446 0.821679 0.123492
H38   H     H_    0.209932 0.222634 0.932147 0.177529
H39   H     H_    0.037147 0.363882 0.210737 0.149438
H40   H     H_    0.862897 0.322291 0.394414 0.159233
H41   H     H_    0.134779 0.677479 0.605872 0.166945
H42   H     H_    0.339868 0.933041 0.957921 0.188306
H43   H     H_    0.659955 0.068547 0.053860 0.181516
H44   H     H_    0.614598 0.485726 0.549650 0.135443
H45   H     H_    0.384176 0.512524 0.449695 0.136000
H46   H     H_    0.425816 0.338729 0.492089 0.127080
H47   H     H_    0.573534 0.660049 0.507400 0.131760
H48   H     H_    0.407015 0.349478 0.344913 0.147078
H49   H     H_    0.833246 0.782224 0.061143 0.190021
H50   H     H_    0.592161 0.648563 0.654435 0.140486
H51   H     H_    0.257277 0.092806 0.556685 0.170303
H52   H     H_    0.192637 0.021770 0.600044 0.133345
H53   H     H_    0.396029 0.202695 0.688658 0.223928
H54   H     H_    0.332238 0.128251 0.731024 0.224895
H55   H     H_    0.299352 0.966464 0.592287 0.265929
H56   H     H_    0.418749 0.065077 0.649207 0.274427
H57   H     H_    0.364222 0.041375 0.549990 0.255279
H58   H     H_    0.646626 0.777102 0.327552 0.157994
H59   H     H_    0.655538 0.716039 0.221066 0.132953
H60   H     H_    0.300780 0.255364 0.840117 0.165701
H61   H     H_    0.675505 0.925893 0.332875 0.231057
H62   H     H_    0.700193 0.885314 0.230622 0.237190
H63   H     H_    0.541746 0.721372 0.148944 0.263993
H64   H     H_    0.546127 0.838469 0.201677 0.292505
H65   H     H_    0.517343 0.768660 0.252422 0.255512
H66   H     H_    0.992444 0.169112 0.978160 0.188890
H67   H     H_    0.101755 0.251447 0.980827 0.144735
H68   H     H_    0.037555 0.072507 0.004151 0.237041
H69   H     H_    0.149841 0.154258 0.009165 0.228653
H70   H     H_    0.155149 0.311127 0.138074 0.278123
H71   H     H_    0.728593 0.762260 0.142004 0.182104
H72   H     H_    0.151588 0.224144 0.161013 0.273258
H73   H     H_    0.050870 0.215557 0.137566 0.260092
H74   H     H_    0.132274 0.973508 0.122065 0.172883
H75   H     H_    0.132307 0.970142 0.216580 0.128533
H76   H     H_    0.071705 0.078241 0.168545 0.232766
H77   H     H_    0.066334 0.080963 0.267629 0.223014
H78   H     H_    0.232121 0.169185 0.320778 0.269909
H79   H     H_    0.203698 0.242208 0.303053 0.273054
H80   H     H_    0.239599 0.169848 0.222444 0.253549
H81   H     H_    0.622731 0.726202 0.032078 0.333604
H82   H     H_    0.967923 0.025875 0.709090 0.176448
H83   H     H_    0.390275 0.281004 0.974483 0.333632
H84   H     H_    0.021809 0.246693 0.284384 0.160578
H85   H     H_    0.933500 0.263055 0.299555 0.126808
H86   H     H_    0.028331 0.228608 0.408899 0.246742
H87   H     H_    0.941941 0.249389 0.433574 0.216364
H88   H     H_    0.833533 0.090111 0.281327 0.272387
H89   H     H_    0.877896 0.062199 0.344825 0.276976
H90   H     H_    0.920061 0.068184 0.257300 0.266267
H91   H     H_    0.901712 0.667858 0.702832 0.158471
H92   H     H_    0.923849 0.576499 0.683153 0.120363
H93   H     H_    0.050636 0.949925 0.298556 0.154039
H94   H     H_    0.771008 0.549064 0.573865 0.227719
H95   H     H_    0.795423 0.454063 0.522386 0.229265
H96   H     H_    0.769486 0.419357 0.637167 0.270925
H97   H     H_    0.673107 0.404312 0.587237 0.263018
H98   H     H_    0.751051 0.519735 0.696988 0.280888
H99   H     H_    0.791980 0.576476 0.000213 0.166309
H100  H     H_    0.785205 0.463678 0.971420 0.114592
H101  H     H_    0.835880 0.566890 0.869900 0.238871
H102  H     H_    0.839720 0.458353 0.841175 0.212071
H103  H     H_    0.677457 0.350547 0.816775 0.266635
H104  H     H_    0.979766 0.899101 0.561922 0.187170
H105  H     H_    0.695534 0.400571 0.749841 0.278748
H106  H     H_    0.670917 0.458271 0.850654 0.271789
H107  H     H_    0.005065 0.230067 0.779408 0.192086
H108  H     H_    0.955578 0.294482 0.782255 0.090476
H109  H     H_    0.881154 0.130097 0.824103 0.252594
H110  H     H_    0.829311 0.190557 0.817388 0.210377
H111  H     H_    0.814251 0.114108 0.657946 0.263575
H112  H     H_    0.760847 0.014613 0.678147 0.269229
H113  H     H_    0.868574 0.054973 0.661554 0.266411
H114  H     H_    0.447019 0.110871 0.950716 0.347549
O1    O     O_3   0.251620 0.500000 0.748430 -0.490829
O2    O     O_R   0.570330 0.268390 0.136490 -0.650115
O3    O     O_R   0.134680 0.268390 0.572240 -0.662166
O4    O     O_R   0.865320 0.731610 0.427760 -0.644989
O5    O     O_R   0.306670 0.731630 0.863510 -0.623662
O6    O     O_R   0.693330 0.268370 0.136490 -0.628033
O7    O     O_R   0.135450 0.439270 0.865360 -0.617930
O8    O     O_R   0.864550 0.560730 0.134640 -0.612961
O9    O     O_R   0.429670 0.560710 0.692610 -0.646338
O10   O     O_R   0.570330 0.439290 0.307390 -0.646573
O11   O     O_R   0.308540 0.439240 0.865360 -0.640916
O12   O     O_3   0.748380 0.500000 0.251570 -0.492273
O13   O     O_R   0.691460 0.560760 0.134640 -0.667771
O14   O     O_R   0.133580 0.439310 0.571150 -0.621065
O15   O     O_R   0.866420 0.560690 0.428850 -0.613104
O16   O     O_R   0.430770 0.560690 0.864590 -0.636395
O17   O     O_R   0.569230 0.439310 0.135410 -0.623898
O18   O     O_R   0.133580 0.560760 0.692610 -0.652569
O19   O     O_R   0.866420 0.439240 0.307390 -0.643055
O20   O     O_3   0.241200 0.180660 0.671390 -0.666808
O21   O     O_3   0.775373 0.851723 0.326696 -0.666460
O22   O     O_3   0.023818 0.091557 0.872212 -0.655624
O23   O     O_R   0.134680 0.560740 0.864590 -0.648371
O24   O     O_3   0.006245 0.884218 0.121858 -0.635227
O25   O     O_3   0.665617 0.750785 0.003031 -0.811584
O26   O     O_3   0.359957 0.255751 0.009905 -0.802041
O27   O     O_3   0.060859 0.384152 0.399201 -0.639214
O28   O     O_3   0.954168 0.630838 0.601861 -0.630684
O29   O     O_3   0.915155 0.601513 0.020979 -0.606155
O30   O     O_3   0.012700 0.327882 0.905804 -0.634563
O31   O     O_3   0.476423 0.076965 0.918477 -0.726670
O32   O     O_3   0.522414 0.920426 0.087230 -0.760763
O33   O     O_3   0.437756 0.039864 0.146172 -0.633041
O34   O     O_R   0.865320 0.439260 0.135410 -0.638027
O35   O     O_3   0.550244 0.947790 0.854366 -0.612671
O36   O     O_R   0.306670 0.439270 0.571150 -0.635589
O37   O     O_R   0.693330 0.560730 0.428850 -0.647091
O38   O     O_R   0.135450 0.268370 0.694460 -0.649878
O39   O     O_R   0.864550 0.731630 0.305540 -0.639080
O40   O     O_R   0.429670 0.731610 0.863510 -0.666114
Zn1   Zn    Zn3+2 0.207400 0.586780 0.791530 0.970122
Zn2   Zn    Zn3+2 0.792600 0.413220 0.208470 0.968976
Zn3   Zn    Zn3+2 0.208510 0.413230 0.792630 0.981644
Zn4   Zn    Zn3+2 0.791490 0.586770 0.207370 0.974350
Zn5   Zn    Zn3+2 0.383150 0.586740 0.791530 0.979229
Zn6   Zn    Zn3+2 0.616850 0.413260 0.208470 0.972835
Zn7   Zn    Zn3+2 0.207400 0.413250 0.618010 0.968539
Zn8   Zn    Zn3+2 0.792600 0.586750 0.381990 0.970805

loop_
_geom_bond_atom_site_label_1
_geom_bond_atom_site_label_2
_ccdc_geom_bond_type
C77   H43   S    
C83   C87   A    
C63   C65   A    
C16   H107  S    
C26   C32   S    
O38   Zn3   S    
C31   C85   S    
C62   C96   S    
C22   H11   S    
C27   C29   S    
C36   H71   S    
C69   H25   S    
C14   H101  S    
C25   H17   S    
C101  O16   A    
H3    O32   S    
C106  O28   S    
C101  O11   A    
C118  H66   S    
C117  H64   S    
C81   H33   S    
C7    C8    S    
C5    H79   S    
C39   O20   S    
C44   C105  S    
C33   C52   S    
C20   H6    S    
C105  C107  S    
C50   H104  S    
O1    Zn7   S    
C74   C76   A    
C15   H105  S    
C44   C108  S    
C95   O30   S    
C103  O18   A    
O37   Zn8   S    
C113  H53   S    
C65   O25   S    
O12   Zn6   S    
C3    H75   S    
C86   O37   A    
C29   C32   S    
O5    Zn1   S    
C18   H111  S    
C120  H72   S    
C60   H23   S    
C66   C88   S    
C104  C109  S    
C106  C108  S    
C89   C91   A    
C88   O31   S    
C57   C59   A    
C112  H51   S    
C72   C74   A    
C47   O24   S    
C58   C60   A    
C115  C116  S    
O10   Zn6   S    
O1    Zn1   S    
C116  C117  S    
C66   H42   S    
C103  C111  S    
C90   H37   S    
C29   H45   S    
C8    H88   S    
C25   H16   S    
C1    C53   S    
C118  C119  S    
O14   Zn7   S    
C6    H85   S    
C72   C78   A    
C33   O4    A    
C62   O34   A    
C119  H68   S    
C40   O21   S    
C112  O20   S    
C16   H108  S    
C19   C20   S    
C59   H22   S    
C16   C17   S    
O8    Zn4   S    
C96   C98   A    
C12   O29   S    
C70   H13   S    
C50   C52   A    
C68   H24   S    
C61   O23   A    
C57   C70   A    
C38   C110  S    
O3    Zn7   S    
C9    C10   S    
C11   H97   S    
C12   H99   S    
C91   H39   S    
C67   O26   S    
C34   H50   S    
C11   H96   S    
C74   C102  S    
C108  H27   S    
C88   C110  S    
C44   C109  S    
C114  H57   S    
O11   Zn3   S    
C114  H56   S    
C94   O29   S    
C105  C111  S    
C28   C34   S    
C26   C31   S    
C116  H61   S    
C27   C30   S    
C41   C43   A    
C93   H30   S    
C7    H86   S    
C8    H90   S    
C35   C48   A    
C13   O33   S    
C26   C28   S    
C46   O22   S    
C112  C113  S    
C81   C83   A    
C52   C54   A    
C62   O8    A    
C5    H80   S    
C107  C109  S    
C13   C66   S    
C45   C47   A    
C27   C34   S    
C61   O7    A    
C46   C48   A    
C19   H4    S    
C95   C98   A    
C3    H74   S    
C69   C71   A    
O15   Zn8   S    
C55   C106  S    
C55   C111  S    
O40   Zn5   S    
O1    Zn3   S    
C64   C67   A    
O7    Zn3   S    
C36   C40   A    
C55   H41   S    
C20   H7    S    
C7    H87   S    
C10   C11   S    
O9    Zn5   S    
C1    O38   A    
C85   O9    A    
C17   H109  S    
C10   H94   S    
C89   H36   S    
C45   H93   S    
C73   H28   S    
C1    O3    A    
C75   C78   A    
C48   H38   S    
C19   H5    S    
C50   C56   A    
C104  O19   A    
C102  O17   A    
C57   H20   S    
C116  H62   S    
C67   C69   A    
C42   C45   A    
C16   O30   S    
C85   O36   A    
C13   C99   S    
C35   C39   A    
H81   O25   S    
C41   C56   S    
C6    H84   S    
C13   C110  S    
O4    Zn8   S    
C30   C32   S    
C120  H70   S    
C37   O40   A    
C91   C93   A    
O12   Zn8   S    
C24   C77   S    
C90   C92   A    
C94   C100  A    
C118  H67   S    
C65   C68   A    
C9    O28   S    
O34   Zn2   S    
C43   H82   S    
C95   C97   A    
C17   C18   S    
C64   C76   S    
C31   C34   S    
C63   C78   S    
C21   H8    S    
C94   C96   A    
C24   C88   S    
C11   H98   S    
C21   H9    S    
C79   C92   A    
C6    C7    S    
C118  O22   S    
C22   O35   S    
C80   C82   A    
C114  H55   S    
C12   C14   S    
C2    C99   S    
C99   O32   S    
C82   C84   A    
C83   C100  S    
C32   H48   S    
O23   Zn1   S    
C2    C24   S    
C44   H40   S    
C73   C76   A    
C87   H35   S    
C30   C86   S    
C84   C89   A    
C73   C75   A    
C115  H59   S    
C8    H89   S    
C97   C100  A    
H83   O26   S    
C28   H44   S    
C120  H73   S    
C19   O33   S    
C113  C114  S    
C79   H31   S    
C51   H2    S    
C35   H60   S    
C80   H32   S    
C26   H46   S    
C104  O15   A    
C23   H14   S    
C22   H12   S    
O2    Zn6   S    
O39   Zn4   S    
C59   C63   A    
C14   H102  S    
C22   C23   S    
C61   C97   S    
C102  O13   A    
C119  H69   S    
C38   O2    A    
C4    H77   S    
C4    C5    S    
H114  O31   S    
O19   Zn2   S    
C71   H19   S    
C17   H110  S    
C117  H63   S    
C2    C66   S    
C5    H78   S    
C47   C49   A    
C3    O24   S    
O12   Zn4   S    
C79   C81   A    
C103  O14   A    
C108  C111  S    
C23   H15   S    
C24   O35   S    
C60   C64   A    
C51   C54   A    
C84   C98   S    
O16   Zn5   S    
O13   Zn4   S    
C28   C30   S    
C25   H18   S    
O1    Zn5   S    
C29   C31   S    
C18   H112  S    
C42   C54   S    
C49   H49   S    
C2    C37   S    
O18   Zn1   S    
C112  H52   S    
C33   O39   A    
C86   O10   A    
C9    H91   S    
C72   H26   S    
O17   Zn6   S    
C40   C42   A    
C18   H113  S    
C77   C99   S    
C6    O27   S    
C23   C25   S    
O36   Zn7   S    
C15   H103  S    
C77   C110  S    
C10   H95   S    
C43   C46   A    
C53   C56   A    
C21   H10   S    
C115  H58   S    
C37   O5    A    
C4    H76   S    
C38   O6    A    
O12   Zn2   S    
C82   H34   S    
O6    Zn2   S    
C15   H106  S    
C115  O21   S    
C20   C21   S    
C39   C41   A    
C105  O27   S    
C119  C120  S    
C87   C90   A    
C55   C107  S    
C92   H29   S    
C75   C101  S    
C68   C70   A    
C107  H1    S    
C14   C15   S    
C117  H65   S    
C58   C71   A    
C9    H92   S    
C51   C53   A    
C80   C93   A    
C12   H100  S    
C58   H21   S    
C36   C49   A    
C3    C4    S    
C27   H47   S    
C113  H54   S    
C106  C109  S    
