data_mof_unit_25283.cif
_audit_creation_date              2012-10-26T20:01:52-0400
_audit_creation_method            fapswitch 2.2
_symmetry_space_group_name_H-M    P1
_symmetry_Int_Tables_number       1
_space_group_crystal_system       triclinic
_cell_length_a                    11.676645
_cell_length_b                    10.822441
_cell_length_c                    9.634001
_cell_angle_alpha                 91.73945
_cell_angle_beta                  91.331703
_cell_angle_gamma                 90.762279
_cell_volume                      1216.43755217

loop_
_atom_site_label
_atom_site_type_symbol
_atom_type_description
_atom_site_fract_x
_atom_site_fract_y
_atom_site_fract_z
_atom_type_partial_charge
C1    C     C_R   0.506988 0.262908 0.498190 0.536876
C2    C     C_R   0.486254 0.873443 0.512833 -0.009744
C3    C     C_R   0.674445 0.629256 0.146425 -0.063972
C4    C     C_R   0.284232 0.499933 0.498761 0.551529
C5    C     C_R   0.778865 0.650195 0.083476 -0.152049
C6    C     C_R   0.800159 0.590580 0.957035 -0.036568
C7    C     C_R   0.710760 0.526658 0.886173 -0.085825
C8    C     C_R   0.597717 0.532325 0.933448 0.133043
C9    C     C_R   0.588396 0.555827 0.078341 0.155970
C10   C     C_R   0.410127 0.454117 0.069722 0.002316
C11   C     C_R   0.407699 0.460230 0.922068 0.025885
C12   C     C_R   0.656978 0.076153 0.837651 -0.136656
C13   C     C_R   0.494067 0.737995 0.503355 0.544422
C14   C     C_R   0.715753 0.500236 0.501254 0.535474
C15   C     C_1   0.162420 0.500195 0.496949 -0.005511
C16   C     C_1   0.059856 0.500383 0.498480 -0.016346
C17   C     C_1   0.940071 0.500477 0.501603 -0.024050
C18   C     C_1   0.837523 0.500422 0.503125 -0.023723
C19   C     C_R   0.634160 0.128285 0.710385 -0.108318
C20   C     C_1   0.914376 0.589101 0.903748 0.197347
C21   C     C_1   0.607691 0.931605 0.015290 0.191198
C22   C     C_1   0.438648 0.824884 0.823336 0.238103
C23   C     C_R   0.598862 0.968856 0.872977 -0.010071
C24   C     C_R   0.528148 0.904812 0.772918 0.001835
C25   C     C_R   0.524538 0.945310 0.633023 -0.001927
C26   C     C_R   0.559565 0.068171 0.612099 0.014897
C27   C     C_R   0.515906 0.128802 0.495283 0.001220
C28   C     C_R   0.464577 0.060624 0.384700 -0.135011
C29   C     C_R   0.455101 0.933402 0.390957 -0.127949
Cu1   Cu    Cu3+1 0.499990 0.499990 0.640660 0.964966
Cu2   Cu    Cu3+1 0.500010 0.500010 0.359340 0.946492
H1    H     H_    0.735501 0.453274 0.816182 0.140998
H2    H     H_    0.845531 0.703807 0.138549 0.135087
H3    H     H_    0.431778 0.105586 0.293308 0.141644
H4    H     H_    0.332380 0.426671 0.864719 0.135729
H5    H     H_    0.674759 0.216108 0.689529 0.131338
H6    H     H_    0.712763 0.125162 0.912791 0.122750
H7    H     H_    0.421268 0.881766 0.300635 0.162987
H8    H     H_    0.337360 0.414774 0.120905 0.122136
H9    H     H_    0.663286 0.672104 0.246881 0.191159
N1    N     N_R   0.501070 0.501210 0.147910 -0.244281
N2    N     N_R   0.501110 0.501290 0.852040 -0.234400
N3    N     N_1   0.006158 0.587895 0.860945 -0.288710
N4    N     N_1   0.615160 0.903343 0.129866 -0.327326
N5    N     N_1   0.366760 0.762006 0.864291 -0.269959
O1    O     O_R   0.499990 0.319640 0.618810 -0.507385
O2    O     O_R   0.500000 0.319660 0.381240 -0.500068
O3    O     O_R   0.337190 0.500000 0.618790 -0.487271
O4    O     O_R   0.337200 0.500030 0.381210 -0.502318
O5    O     O_R   0.500000 0.680340 0.618760 -0.482015
O6    O     O_R   0.500010 0.680360 0.381190 -0.511953
O7    O     O_R   0.662800 0.499970 0.618790 -0.520618
O8    O     O_R   0.662810 0.500000 0.381210 -0.511373

loop_
_geom_bond_atom_site_label_1
_geom_bond_atom_site_label_2
_ccdc_geom_bond_type
C29   H7    S    
C8    C9    A    
C23   C24   A    
C6    C7    A    
C3    C9    A    
C21   N4    T    
C6    C20   S    
C14   C18   S    
C9    N1    A    
C4    O4    A    
C20   N3    T    
C4    C15   S    
C11   H4    S    
C17   C18   T    
Cu1   O5    S    
C28   H3    S    
C7    C8    A    
Cu2   O2    S    
Cu2   O8    S    
C10   N1    A    
C14   O8    A    
C12   C23   A    
C26   C27   A    
Cu1   Cu2   S    
Cu2   O4    S    
C2    C29   A    
C12   C19   A    
Cu1   O3    S    
C28   C29   A    
C8    N2    A    
C3    H9    S    
C2    C25   A    
Cu1   N2    S    
C19   H5    S    
C21   C23   S    
C13   O6    A    
C5    C6    A    
C22   C24   S    
C1    O1    A    
C16   C17   S    
C10   C11   A    
C15   C16   T    
C12   H6    S    
C22   N5    T    
C24   C25   A    
C11   N2    A    
C4    O3    A    
C27   C28   A    
C1    C27   S    
C19   C26   A    
Cu1   O7    S    
C1    O2    A    
C7    H1    S    
Cu2   N1    S    
C25   C26   A    
C2    C13   S    
Cu1   O1    S    
C14   O7    A    
C13   O5    A    
Cu2   O6    S    
C10   H8    S    
C3    C5    A    
C5    H2    S    
