data_mof_unit_23958.cif
_audit_creation_date              2012-12-10T17:37:16-0500
_audit_creation_method            fapswitch 2.2
_symmetry_space_group_name_H-M    P1
_symmetry_Int_Tables_number       1
_space_group_crystal_system       triclinic
_cell_length_a                    12.328749
_cell_length_b                    13.182483
_cell_length_c                    15.839743
_cell_angle_alpha                 77.918851
_cell_angle_beta                  101.068463
_cell_angle_gamma                 116.569532
_cell_volume                      2237.18092152

loop_
_atom_site_label
_atom_site_type_symbol
_atom_type_description
_atom_site_fract_x
_atom_site_fract_y
_atom_site_fract_z
_atom_type_partial_charge
C1    C     C_R   0.854854 0.286602 0.507397 0.769711
C2    C     C_3   0.998713 0.499481 0.917206 0.193777
C3    C     C_3   0.107413 0.578162 0.030165 -0.159308
C4    C     C_3   0.000150 0.499408 0.082810 0.193582
C5    C     C_3   0.016572 0.603600 0.956522 -0.158009
C6    C     C_3   0.909306 0.524844 0.010707 -0.157701
C7    C     C_1   0.998302 0.499591 0.825336 -0.078779
C8    C     C_1   0.000825 0.499510 0.174683 -0.079775
C9    C     C_R   0.275341 0.021415 0.385616 -0.193282
C10   C     C_R   0.228029 0.834449 0.469820 -0.047049
C11   C     C_R   0.815342 0.085312 0.563356 -0.191166
C12   C     C_R   0.999418 0.499770 0.659961 0.823441
C13   C     C_R   0.736612 0.970470 0.580238 -0.147663
C14   C     C_R   0.613280 0.932749 0.550158 -0.183490
C15   C     C_R   0.566423 0.009430 0.499092 0.078304
C16   C     C_R   0.649807 0.123814 0.473485 0.082009
C17   C     C_R   0.439792 0.976077 0.471732 0.072173
C18   C     C_R   0.399997 0.053314 0.413069 0.167261
C19   C     C_R   0.485126 0.160399 0.380693 -0.242547
C20   C     C_R   0.608227 0.194494 0.409243 -0.200117
C21   C     C_R   0.351077 0.868363 0.501449 -0.254248
C22   C     C_R   0.189665 0.912057 0.413406 -0.197604
C23   C     C_R   0.145086 0.713363 0.487455 0.794456
C24   C     C_R   0.772892 0.163613 0.512080 -0.100930
C25   C     C_R   0.345215 0.327328 0.636858 -0.302289
C26   C     C_R   0.760390 0.646052 0.383880 0.078330
C27   C     C_R   0.664380 0.678191 0.358690 -0.258430
C28   C     C_R   0.560569 0.623089 0.402337 -0.191423
C29   C     C_R   0.551643 0.534708 0.472296 -0.006654
C30   C     C_R   0.652811 0.505091 0.496028 0.286610
C31   C     C_R   0.446924 0.475037 0.519723 -0.038254
C32   C     C_R   0.445809 0.387350 0.589332 0.176286
C33   C     C_R   0.545257 0.360254 0.611567 -0.280458
C34   C     C_R   0.000475 0.500093 0.340042 0.819514
C35   C     C_R   0.646561 0.418188 0.566355 -0.176224
C36   C     C_R   0.342443 0.498142 0.501569 0.021600
C37   C     C_R   0.245763 0.354301 0.615759 0.073819
C38   C     C_3   0.982283 0.395282 0.043499 -0.159456
C39   C     C_3   0.891439 0.420720 0.969843 -0.159682
C40   C     C_1   0.998508 0.499700 0.749676 -0.183085
C41   C     C_1   0.000986 0.499723 0.250342 -0.183563
C42   C     C_3   0.089549 0.474041 0.989313 -0.158149
Cu1   Cu    Cu3+1 0.098270 0.475420 0.519690 0.935032
Cu2   Cu    Cu3+1 0.901730 0.524580 0.480310 0.922764
H1    H     H_    0.802788 0.356142 0.943683 0.127237
H2    H     H_    0.375079 0.807983 0.548779 0.148377
H3    H     H_    0.909318 0.113267 0.592339 0.150893
H4    H     H_    0.557899 0.842527 0.566426 0.129962
H5    H     H_    0.670120 0.275857 0.378195 0.176724
H6    H     H_    0.167694 0.308296 0.652116 0.120583
H7    H     H_    0.545206 0.293664 0.665036 0.150113
H8    H     H_    0.343643 0.260095 0.690085 0.134163
H9    H     H_    0.335226 0.563134 0.449864 0.124184
H10   H     H_    0.840666 0.689357 0.349684 0.123550
H11   H     H_    0.968260 0.309805 0.080588 0.127860
H12   H     H_    0.489089 0.651489 0.380066 0.135660
H13   H     H_    0.670447 0.746052 0.305154 0.141917
H14   H     H_    0.718324 0.391999 0.589457 0.206206
H15   H     H_    0.835339 0.545697 0.020885 0.128434
H16   H     H_    0.196067 0.642750 0.056310 0.128046
H17   H     H_    0.163517 0.453185 0.979142 0.128558
H18   H     H_    0.094522 0.886793 0.388113 0.146905
H19   H     H_    0.456493 0.218223 0.332898 0.145110
H20   H     H_    0.244551 0.079982 0.340709 0.132737
N1    N     N_R   0.246280 0.438200 0.549540 -0.179838
N2    N     N_R   0.754330 0.561180 0.450980 -0.206453
O1    O     O_R   0.972510 0.318130 0.524770 -0.580614
O2    O     O_R   0.806530 0.359650 0.491510 -0.604980
O3    O     O_R   0.082970 0.479240 0.637550 -0.575527
O4    O     O_R   0.916990 0.520750 0.604290 -0.591406
O5    O     O_R   0.193470 0.640350 0.508490 -0.587645
O6    O     O_R   0.027490 0.681870 0.475230 -0.587061
O7    O     O_R   0.083010 0.479250 0.395710 -0.575180
O8    O     O_R   0.917030 0.520760 0.362450 -0.588072
H21   H     H_    0.770705 0.910681 0.619252 0.142083
H22   H     H_    0.030593 0.689079 0.919439 0.128136

loop_
_geom_bond_atom_site_label_1
_geom_bond_atom_site_label_2
_ccdc_geom_bond_type
Cu1   O7    S    
C12   O3    A    
C3    C42   S    
C9    H20   S    
Cu2   N2    S    
C19   C20   A    
C4    C8    S    
C28   H12   S    
C10   C22   A    
C26   C27   A    
C20   H5    S    
C30   C35   A    
C35   H14   S    
C28   C29   A    
C38   C42   S    
C5    C6    S    
C9    C22   A    
C15   C16   A    
C11   C24   A    
C1    O2    A    
C18   C19   A    
C23   O6    A    
C36   H9    S    
C2    C7    S    
C33   C35   A    
C11   H3    S    
C2    C39   S    
C38   H11   S    
C13   H21   S    
C19   H19   S    
C37   N1    A    
C7    C40   T    
Cu2   O4    S    
C16   C20   A    
C39   H1    S    
C25   C37   A    
C3    H16   S    
C25   C32   A    
C16   C24   A    
C13   C14   A    
C34   C41   S    
C26   H10   S    
C10   C21   A    
C26   N2    A    
C23   O5    A    
C8    C41   T    
C4    C6    S    
C27   H13   S    
C36   N1    A    
C14   H4    S    
C17   C21   A    
C12   C40   S    
Cu1   Cu2   S    
C29   C30   A    
C22   H18   S    
C31   C32   A    
C14   C15   A    
Cu1   N1    S    
C17   C18   A    
Cu2   O8    S    
C42   H17   S    
C30   N2    A    
C34   O8    A    
C4    C38   S    
Cu2   O2    S    
C2    C5    S    
C3    C4    S    
C21   H2    S    
C15   C17   A    
C12   O4    A    
Cu1   O5    S    
C31   C36   A    
C6    H15   S    
C3    C5    S    
C10   C23   S    
C33   H7    S    
C32   C33   A    
C5    H22   S    
C25   H8    S    
C29   C31   A    
C37   H6    S    
C11   C13   A    
C38   C39   S    
C2    C42   S    
C1    O1    A    
Cu2   O6    S    
C34   O7    A    
C9    C18   A    
C1    C24   S    
Cu1   O1    S    
C27   C28   A    
C6    C39   S    
Cu1   O3    S    
