data_mof_unit_66705.cif
_audit_creation_date              2012-12-11T17:52:46-0500
_audit_creation_method            fapswitch 2.2
_symmetry_space_group_name_H-M    P1
_symmetry_Int_Tables_number       1
_space_group_crystal_system       triclinic
_cell_length_a                    8.260809
_cell_length_b                    13.056297
_cell_length_c                    16.206986
_cell_angle_alpha                 108.606966
_cell_angle_beta                  97.554401
_cell_angle_gamma                 81.857001
_cell_volume                      1632.99298811

loop_
_atom_site_label
_atom_site_type_symbol
_atom_type_description
_atom_site_fract_x
_atom_site_fract_y
_atom_site_fract_z
_atom_type_partial_charge
Ba1   Ba    Ba6+2 0.363950 0.459210 0.542370 1.843510
Ba2   Ba    Ba6+2 0.825880 0.540700 0.457630 1.843323
C1    C     C_3   0.137702 0.251020 0.889174 -0.246434
C2    C     C_R   0.890619 0.546883 0.754787 0.305184
C3    C     C_2   0.482927 0.376540 0.135037 0.560246
C4    C     C_3   0.713038 0.232678 0.792216 0.497330
C5    C     C_2   0.451568 0.405704 0.219667 -0.090502
C6    C     C_2   0.180477 0.499641 0.189672 0.065267
C7    C     C_3   0.235099 0.501844 0.104669 -0.160597
C8    C     C_3   0.356861 0.402988 0.066174 0.051387
C9    C     C_2   0.099022 0.521621 0.037873 -0.008993
C10   C     C_2   0.129185 0.558775 0.973656 0.070248
C11   C     C_R   0.850959 0.640300 0.932918 0.159451
C12   C     C_3   0.149305 0.288876 0.810525 0.499543
C13   C     C_R   0.998851 0.578060 0.906712 -0.123043
C14   C     C_R   0.725385 0.657697 0.870409 -0.193320
C15   C     C_R   0.744702 0.608707 0.781215 0.003298
C16   C     C_3   0.693587 0.176184 0.859894 1.162956
C17   C     C_R   0.019808 0.535586 0.816481 -0.098152
C18   C     C_R   0.246804 0.815027 0.463490 0.382651
C19   C     C_R   0.938519 0.196705 0.536859 -0.264806
C20   C     C_R   0.918424 0.033779 0.574132 0.131864
C21   C     C_R   0.858039 0.140643 0.576916 -0.008655
C22   C     C_R   0.073067 0.147660 0.488307 0.078242
C23   C     C_3   0.024015 0.760197 0.722835 0.297718
C24   C     C_R   0.132869 0.035545 0.480464 -0.056572
C25   C     C_R   0.054151 0.976951 0.523663 -0.087844
C26   C     C_R   0.116351 0.865107 0.514074 -0.015310
C27   C     C_R   0.333802 0.872982 0.429400 0.023241
C28   C     C_3   0.691971 0.196944 0.360248 0.306225
C29   C     C_R   0.273753 0.981805 0.434894 -0.153247
C30   C     C_3   0.717585 0.074682 0.343708 -0.343007
C31   C     C_3   0.489434 0.799080 0.638706 0.266803
C32   C     C_3   0.423451 0.917292 0.661428 -0.351199
C33   C     C_3   0.185059 0.250385 0.280143 0.289762
C34   C     C_3   0.021823 0.819460 0.820504 0.018752
C35   C     C_3   0.204749 0.191919 0.183679 0.057536
C36   C     C_3   0.499834 0.701008 0.217145 0.329730
C37   C     C_3   0.503286 0.698425 0.122819 0.623758
C38   C     C_3   0.969308 0.770833 0.243717 0.788933
C39   C     C_3   0.996639 0.838248 0.185972 0.608625
C40   C     C_2   0.291576 0.465773 0.246403 -0.348948
F1    F     F_    0.802482 0.209896 0.933099 -0.672009
F2    F     F_    0.411077 0.788669 0.107627 -0.596451
F3    F     F_    0.119161 0.750765 0.287776 -0.776268
F4    F     F_    0.098705 0.777339 0.122977 -0.637010
F5    F     F_    0.623512 0.313844 0.108304 -0.589740
F6    F     F_    0.909308 0.500250 0.668441 -0.718737
F7    F     F_    0.294329 0.707416 0.449402 -0.720246
F8    F     F_    0.536277 0.200395 0.885158 -0.660293
H1    H     H_    0.828116 0.040175 0.308012 0.093617
H2    H     H_    0.087372 0.319567 0.286225 0.035906
H3    H     H_    0.073528 0.176571 0.868704 0.149484
H4    H     H_    0.295098 0.118689 0.176453 0.130605
H5    H     H_    0.248723 0.246056 0.153065 -0.034996
H6    H     H_    0.025333 0.323399 0.790647 -0.071535
H7    H     H_    0.067354 0.314905 0.938115 0.103924
H8    H     H_    0.897843 0.739643 0.696108 -0.003427
H9    H     H_    0.109781 0.684618 0.712921 0.051965
H10   H     H_    0.936969 0.895557 0.831269 0.125148
H11   H     H_    0.978730 0.768025 0.853675 0.005818
H12   H     H_    0.735969 0.055591 0.406289 0.071415
H13   H     H_    0.260410 0.231775 0.920311 0.212680
H14   H     H_    0.588680 0.633148 0.227745 -0.050980
H15   H     H_    0.374771 0.687425 0.225808 0.075410
H16   H     H_    0.630626 0.695413 0.107692 0.033934
H17   H     H_    0.454381 0.623927 0.078049 -0.072298
H18   H     H_    0.883031 0.819007 0.292489 -0.051445
H19   H     H_    0.056359 0.911231 0.226822 0.012696
H20   H     H_    0.613702 0.708168 0.891512 0.159118
H21   H     H_    0.260401 0.475388 0.311611 0.115040
H22   H     H_    0.976347 0.501994 0.039699 0.103791
H23   H     H_    0.608291 0.036507 0.305193 0.167187
H24   H     H_    0.253959 0.570048 0.967502 0.129822
H25   H     H_    0.339380 0.023650 0.404362 0.120869
H26   H     H_    0.838832 0.210336 0.771666 -0.232023
H27   H     H_    0.890958 0.279535 0.540796 0.097365
H28   H     H_    0.716859 0.086986 0.833727 -0.040244
H29   H     H_    0.810280 0.231211 0.384377 -0.022636
H30   H     H_    0.604116 0.231971 0.410598 0.059214
H31   H     H_    0.388263 0.748557 0.607138 0.054183
H32   H     H_    0.585392 0.782323 0.593156 0.091893
H33   H     H_    0.297514 0.927247 0.680244 0.158834
H34   H     H_    0.424923 0.948194 0.605380 0.084598
H35   H     H_    0.496654 0.967168 0.718720 0.204923
H36   H     H_    0.303187 0.280961 0.311712 -0.047126
I1    I     I_    0.226045 0.156636 0.707886 -0.401924
I2    I     I_    0.975944 0.145395 0.114078 -0.113067
I3    I     I_    0.260960 0.858961 0.880274 -0.232684
I4    I     I_    0.675089 0.400748 0.858122 -0.342726
I5    I     I_    0.774654 0.892705 0.121254 -0.263902
I6    I     I_    0.805281 0.986088 0.665041 -0.475851
O1    O     O_2   0.429050 0.611890 0.712090 -0.451535
O2    O     O_2   0.677212 0.863255 0.434041 -0.491815
O3    O     O_3   0.542256 0.801553 0.274910 -0.593293
O4    O     O_3   0.649820 0.584130 0.603850 -0.430538
O5    O     O_3   0.066730 0.358340 0.455880 -0.476642
O6    O     O_2   0.852540 0.775600 0.541830 -0.458886
O7    O     O_3   0.076061 0.829474 0.683499 -0.628785
O8    O     O_2   0.848768 0.480876 0.189079 -0.451975
O9    O     O_3   0.901188 0.674946 0.191441 -0.642997
O10   O     O_3   0.201480 0.401240 0.659120 -0.393995
O11   O     O_2   0.347647 0.531894 0.809122 -0.450753
O12   O     O_3   0.143217 0.176637 0.318136 -0.636846
O13   O     O_3   0.555880 0.779662 0.716335 -0.622577
O14   O     O_3   0.270955 0.359492 0.828552 -0.544274
O15   O     O_2   0.337150 0.224350 0.458110 -0.479873
O16   O     O_3   0.611620 0.334620 0.615460 -0.445593
O17   O     O_2   0.525731 0.141169 0.554569 -0.450023
O18   O     O_3   0.592945 0.203170 0.720886 -0.554668
O19   O     O_2   0.760640 0.388070 0.287860 -0.424817
O20   O     O_3   0.539890 0.415780 0.396140 -0.506515
O21   O     O_3   0.988230 0.598670 0.340870 -0.418820
O22   O     O_3   0.631599 0.218443 0.281951 -0.588008
O23   O     O_3   0.122980 0.641570 0.544110 -0.411523
O24   O     O_3   0.578090 0.665290 0.384530 -0.433401
P1    P     P_3+3 0.593410 0.640600 0.698510 1.074144
P2    P     P_3+3 0.154920 0.233850 0.431950 0.991503
P3    P     P_3+3 0.655878 0.204668 0.620918 1.041371
P4    P     P_3+3 0.596300 0.359310 0.301480 1.070601
P5    P     P_3+3 0.530824 0.801520 0.382267 1.049306
P6    P     P_3+3 0.209233 0.457498 0.775138 1.095099
P7    P     P_3+3 0.043526 0.778363 0.569330 1.052150
P8    P     P_3+3 0.978530 0.562230 0.227194 1.077203

loop_
_geom_bond_atom_site_label_1
_geom_bond_atom_site_label_2
_ccdc_geom_bond_type
C34   I3    S    
C12   H6    S    
C17   P6    S    
C10   H24   S    
C35   I2    S    
O17   P3    D    
C26   P7    S    
O20   P4    S    
C13   C17   A    
C3    F5    S    
Ba2   O20   S    
C24   C25   A    
C32   H34   S    
O7    P7    S    
C33   C35   S    
C6    C40   D    
C12   I1    S    
Ba1   O20   S    
C28   O22   S    
C36   C37   S    
Ba2   O21   S    
C2    F6    S    
Ba1   Ba2   S    
C5    C40   S    
O5    P2    S    
C38   O9    S    
C2    C17   A    
Ba2   O24   S    
C23   O7    S    
Ba2   O5    S    
C6    C7    S    
C27   P5    S    
C36   O3    S    
C39   F4    S    
C10   C13   S    
C31   H32   S    
O15   P2    D    
O12   P2    S    
C15   P1    S    
C28   H30   S    
O3    P5    S    
C24   C29   A    
C4    O18   S    
O16   P3    S    
O13   P1    S    
C38   F3    S    
O1    P1    D    
C36   H14   S    
C18   C27   A    
O6    P7    D    
C4    C16   S    
Ba2   O19   S    
O9    P8    S    
O23   P7    S    
O24   P5    S    
O4    P1    S    
C31   O13   S    
C33   O12   S    
Ba1   O5    S    
C30   H23   S    
C3    C5    D    
Ba2   P4    S    
C9    H22   S    
C6    P8    S    
C18   C26   A    
C4    I4    S    
O19   P4    D    
O8    P8    D    
C32   H35   S    
C30   H1    S    
C18   F7    S    
Ba2   O23   S    
C29   H25   S    
C36   H15   S    
C16   H28   S    
O14   P6    S    
C31   C32   S    
C14   H20   S    
Ba1   P1    S    
C7    C9    S    
C1    C12   S    
Ba1   O15   S    
C2    C15   A    
C1    H7    S    
C38   C39   S    
C39   I5    S    
C20   C25   A    
C19   C21   A    
C37   H16   S    
C32   H33   S    
C19   C22   A    
C23   H8    S    
C28   H29   S    
C34   H11   S    
C33   H2    S    
C16   F8    S    
C39   H19   S    
C7    C8    S    
C23   C34   S    
C37   H17   S    
C5    P4    S    
C22   C24   A    
C34   H10   S    
O18   P3    S    
C9    C10   D    
C4    H26   S    
C37   F2    S    
C1    H13   S    
C35   H4    S    
C22   P2    S    
C11   C13   A    
C30   H12   S    
C3    C8    S    
C27   C29   A    
C16   F1    S    
C28   C30   S    
C1    H3    S    
C14   C15   A    
O21   P8    S    
Ba1   O4    S    
Ba2   O4    S    
C40   H21   S    
C33   H36   S    
Ba1   P2    S    
Ba1   O16   S    
C35   H5    S    
O2    P5    D    
C12   O14   S    
Ba2   O6    S    
Ba1   O1    S    
C38   H18   S    
C11   C14   A    
C19   H27   S    
C25   C26   A    
C20   I6    S    
C20   C21   A    
C21   P3    S    
C23   H9    S    
Ba1   O23   S    
O10   P6    S    
O11   P6    D    
C31   H31   S    
Ba1   O10   S    
O22   P4    S    
