data_mof_unit_67320.cif
_audit_creation_date              2012-12-11T18:51:17-0500
_audit_creation_method            fapswitch 2.2
_symmetry_space_group_name_H-M    P1
_symmetry_Int_Tables_number       1
_space_group_crystal_system       triclinic
_cell_length_a                    8.495108
_cell_length_b                    15.078022
_cell_length_c                    15.242924
_cell_angle_alpha                 99.573489
_cell_angle_beta                  99.130175
_cell_angle_gamma                 99.020709
_cell_volume                      1866.92333065

loop_
_atom_site_label
_atom_site_type_symbol
_atom_type_description
_atom_site_fract_x
_atom_site_fract_y
_atom_site_fract_z
_atom_type_partial_charge
Ba1   Ba    Ba6+2 0.844890 0.542420 0.457460 1.821091
Ba2   Ba    Ba6+2 0.344950 0.457650 0.542550 1.844117
C1    C     C_3   0.673886 0.889696 0.265966 -0.299843
C2    C     C_3   0.624840 0.793855 0.283697 0.322388
C3    C     C_3   0.527481 0.266252 0.242413 0.709758
C4    C     C_3   0.525454 0.192546 0.159656 -0.395492
C5    C     C_3   0.202710 0.262151 0.771447 0.495073
C6    C     C_3   0.241011 0.231134 0.862473 -0.283208
C7    C     C_3   0.625879 0.220414 0.816564 0.975692
C8    C     C_3   0.612010 0.177533 0.900939 -0.251744
C9    C     C_R   0.822909 0.470716 0.833411 0.062073
C10   C     C_R   0.887920 0.487441 0.928504 -0.020286
C11   C     C_R   0.033688 0.482786 0.111678 -0.060607
C12   C     C_3   0.087646 0.738817 0.224830 0.364942
C13   C     C_R   0.870500 0.448605 0.076701 -0.004492
C14   C     C_R   0.794872 0.463402 0.992970 0.068668
C15   C     C_R   0.101934 0.484023 0.205163 0.012374
C16   C     C_R   0.261772 0.534475 0.236676 -0.129668
C17   C     C_R   0.085735 0.539654 0.802860 -0.059288
C18   C     C_R   0.153518 0.551658 0.898005 -0.032851
C19   C     C_R   0.056084 0.521278 0.959710 -0.007603
C20   C     C_R   0.313649 0.595368 0.934655 -0.071310
C21   C     C_R   0.377813 0.607012 0.027266 -0.136627
C22   C     C_R   0.290141 0.567084 0.086553 -0.031531
C23   C     C_3   0.055408 0.767552 0.133632 -0.368060
C24   C     C_R   0.126794 0.524081 0.053091 0.038778
C25   C     C_R   0.359888 0.570643 0.178361 0.054981
C26   C     C_R   0.923729 0.495368 0.773447 -0.207222
C27   C     C_R   0.326751 0.822613 0.451203 0.043462
C28   C     C_R   0.581708 0.791074 0.525804 0.028621
C29   C     C_R   0.757884 0.226114 0.515408 -0.082964
C30   C     C_R   0.862514 0.169480 0.544080 0.161632
C31   C     C_R   0.806029 0.075475 0.531962 -0.112864
C32   C     C_R   0.642415 0.036840 0.492438 0.028665
C33   C     C_R   0.546516 0.092819 0.448956 0.037955
C34   C     C_3   0.176927 0.759487 0.760665 0.649016
C35   C     C_R   0.570119 0.944346 0.493131 0.019367
C36   C     C_R   0.401409 0.914113 0.456540 -0.027024
C37   C     C_R   0.313390 0.973939 0.418660 0.010148
C38   C     C_R   0.395625 0.049862 0.394675 0.123403
C39   C     C_R   0.656838 0.881906 0.530481 -0.114581
C40   C     C_R   0.418197 0.761730 0.484845 -0.216228
C41   C     C_R   0.603924 0.189171 0.462811 -0.026228
C42   C     C_3   0.220590 0.776807 0.865649 -0.263606
C43   C     C_3   0.037713 0.244850 0.258255 0.717182
C44   C     C_3   0.041185 0.183530 0.166240 -0.205895
C45   C     C_3   0.724178 0.669415 0.743088 0.380308
C46   C     C_3   0.660983 0.696064 0.830037 -0.191991
H1    H     H_    0.699090 0.788871 0.348941 0.068979
H2    H     H_    0.350332 0.774151 0.887495 0.100254
H3    H     H_    0.145693 0.721655 0.888345 0.035653
H4    H     H_    0.159640 0.286173 0.287087 0.061386
H5    H     H_    0.026699 0.224410 0.112141 0.145969
H6    H     H_    0.161550 0.163776 0.169314 0.105565
H7    H     H_    0.842184 0.649534 0.761017 -0.125816
H8    H     H_    0.639991 0.607814 0.702436 0.062740
H9    H     H_    0.803920 0.902630 0.260412 0.170081
H10   H     H_    0.642694 0.635157 0.861209 0.065367
H11   H     H_    0.543908 0.718103 0.813026 0.127703
H12   H     H_    0.494267 0.782748 0.288241 -0.098697
H13   H     H_    0.655766 0.941119 0.322364 0.097401
H14   H     H_    0.652800 0.290109 0.280923 -0.001671
H15   H     H_    0.403090 0.172111 0.115923 0.115891
H16   H     H_    0.613273 0.218669 0.119033 0.113917
H17   H     H_    0.562404 0.130934 0.178632 0.074975
H18   H     H_    0.598801 0.897424 0.202045 0.100818
H19   H     H_    0.085604 0.716789 0.080372 0.066095
H20   H     H_    0.311439 0.281102 0.743951 0.086366
H21   H     H_    0.149130 0.324533 0.781389 0.011472
H22   H     H_    0.348504 0.275523 0.907457 0.035022
H23   H     H_    0.145845 0.232547 0.902730 0.178070
H24   H     H_    0.251379 0.158458 0.851234 0.181463
H25   H     H_    0.686299 0.123447 0.905503 0.151246
H26   H     H_    0.488243 0.143196 0.901139 0.068499
H27   H     H_    0.008346 0.671396 0.219567 0.067044
H28   H     H_    0.653232 0.231139 0.963516 0.088419
H29   H     H_    0.798698 0.418228 0.118513 0.177049
H30   H     H_    0.500321 0.644999 0.050843 0.087859
H31   H     H_    0.389498 0.623213 0.892183 0.077441
H32   H     H_    0.314409 0.541003 0.307378 0.063620
H33   H     H_    0.873096 0.481296 0.701660 0.045418
H34   H     H_    0.360312 0.691684 0.481482 0.063518
H35   H     H_    0.187109 0.952753 0.387292 0.125689
H36   H     H_    0.782499 0.901537 0.563372 0.123506
H37   H     H_    0.217116 0.732403 0.240107 -0.105247
H38   H     H_    0.801689 0.299364 0.528807 0.044889
H39   H     H_    0.890054 0.035338 0.558218 0.095546
H40   H     H_    0.925351 0.771841 0.115219 0.139346
H41   H     H_    0.131244 0.835514 0.137071 0.109094
H42   H     H_    0.046787 0.733208 0.735696 -0.014123
O1    O     O_2   0.826410 0.445300 0.275350 -0.406476
O2    O     O_3   0.742563 0.744641 0.699449 -0.621858
O3    O     O_3   0.051661 0.804972 0.291287 -0.616166
O4    O     O_2   0.363300 0.554730 0.724710 -0.465148
O5    O     O_3   0.090820 0.551650 0.611100 -0.468018
O6    O     O_3   0.561090 0.386750 0.661790 -0.438868
O7    O     O_3   0.269665 0.699438 0.721646 -0.650442
O8    O     O_3   0.598940 0.388670 0.448890 -0.461459
O9    O     O_3   0.128820 0.338650 0.613920 -0.488727
O10   O     O_2   0.198103 0.174961 0.553829 -0.364914
O11   O     O_3   0.101166 0.189780 0.708048 -0.523833
O12   O     O_3   0.098900 0.448430 0.388910 -0.472085
O13   O     O_3   0.590780 0.611410 0.551120 -0.515927
O14   O     O_2   0.326530 0.274990 0.446290 -0.362210
O15   O     O_3   0.420175 0.234425 0.295423 -0.691334
O16   O     O_2   0.494111 0.455651 0.807224 -0.518525
O17   O     O_3   0.555308 0.300508 0.825918 -0.692187
O18   O     O_3   0.628630 0.613330 0.338230 -0.451093
O19   O     O_2   0.699581 0.564081 0.186428 -0.449516
O20   O     O_3   0.921076 0.300222 0.247752 -0.674633
O21   O     O_3   0.654140 0.730660 0.212499 -0.614637
O22   O     O_2   0.863180 0.725040 0.553770 -0.424057
O23   O     O_3   0.060890 0.661420 0.386090 -0.506413
O24   O     O_2   0.995811 0.820891 0.455363 -0.432857
P1    P     P_3+3 0.996530 0.418490 0.288400 1.044364
P2    P     P_3+3 0.693090 0.712100 0.580610 1.018816
P3    P     P_3+3 0.110210 0.778711 0.398043 0.998440
P4    P     P_3+3 0.193180 0.581580 0.711620 0.964216
P5    P     P_3+3 0.073719 0.219365 0.601519 1.193961
P6    P     P_3+3 0.581108 0.619602 0.225901 1.014983
P7    P     P_3+3 0.493183 0.271821 0.412405 1.021384
P8    P     P_3+3 0.619125 0.398570 0.779418 1.010910
C47   C     C_3   0.191091 0.867203 0.917106 -0.342249
H43   H     H_    0.196568 0.863685 0.989632 0.092973
H44   H     H_    0.286345 0.925325 0.913812 0.193466
H45   H     H_    0.070768 0.880868 0.889715 0.159296
S1    S     S_3+6 0.989070 0.183590 0.341723 -0.129293
O25   O     O_2   0.106498 0.123107 0.364489 -0.321075
O26   O     O_2   0.999566 0.258423 0.421175 -0.378236
O27   O     O_3   0.802579 0.119557 0.312838 -0.587008
H46   H     H_    0.731004 0.164529 0.318661 0.286777
C48   C     C_3   0.914248 0.095409 0.135360 -0.381302
H47   H     H_    0.925164 0.061794 0.066573 0.117182
H48   H     H_    0.933804 0.046507 0.181166 0.189432
H49   H     H_    0.791002 0.110555 0.131366 0.151541
C49   C     C_3   0.775348 0.772747 0.899189 -0.435736
H50   H     H_    0.720418 0.788062 0.960117 0.121223
H51   H     H_    0.794780 0.835715 0.870539 0.178077
H52   H     H_    0.891977 0.751077 0.920272 0.121378
S2    S     S_3+6 0.456977 0.357582 0.202523 -0.123253
O28   O     O_2   0.276957 0.340387 0.174479 -0.443661
O29   O     O_2   0.511552 0.438344 0.278520 -0.283554
O30   O     O_3   0.531558 0.373111 0.111252 -0.588185
H53   H     H_    0.458847 0.328014 0.060806 0.322932
S3    S     S_3+6 0.833908 0.242093 0.815595 -0.158940
O31   O     O_2   0.892138 0.152570 0.807867 -0.311098
O32   O     O_2   0.861119 0.285848 0.736464 -0.434960
O33   O     O_3   0.928471 0.308852 0.914866 -0.602410
H54   H     H_    0.023996 0.346471 0.901193 0.326380
S4    S     S_3+6 0.523346 0.136947 0.716989 -0.017782
O34   O     O_2   0.350886 0.101134 0.721256 -0.225094
O35   O     O_2   0.524722 0.180873 0.636017 -0.343345
O36   O     O_3   0.613863 0.045376 0.705577 -0.460630
H55   H     H_    0.707786 0.062866 0.677700 0.356590
C50   C     C_3   0.622805 0.475646 0.983292 -0.306431
H56   H     H_    0.609420 0.534084 0.950001 0.086999
H57   H     H_    0.536953 0.411755 0.951790 0.160120
H58   H     H_    0.586968 0.497737 0.046723 0.177454
C51   C     C_3   0.373703 0.040876 0.293322 -0.412357
H59   H     H_    0.325754 0.968886 0.257067 0.091809
H60   H     H_    0.287530 0.081553 0.266692 0.193028
H61   H     H_    0.492459 0.058195 0.274832 0.114286
S5    S     S_3+6 0.223258 0.863335 0.719678 -0.009496
O37   O     O_2   0.213900 0.840835 0.619449 -0.286629
O38   O     O_2   0.104201 0.924588 0.738930 -0.254251
O39   O     O_3   0.412269 0.917777 0.769720 -0.455326
H62   H     H_    0.483668 0.875027 0.750909 0.339373

loop_
_geom_bond_atom_site_label_1
_geom_bond_atom_site_label_2
_ccdc_geom_bond_type
O8    P7    S    
C19   C24   A    
C27   C40   A    
C50   H57   S    
C32   C35   A    
O4    P4    D    
C45   O2    S    
O18   P6    S    
C38   C51   S    
C17   C18   A    
C40   H34   S    
C22   C25   A    
S3    O31   D    
Ba2   P4    S    
C47   H43   S    
C3    O15   S    
C25   P6    S    
C29   C41   A    
C3    S2    S    
C3    C4    S    
C9    C26   A    
Ba2   O5    S    
S5    O38   D    
C22   C24   A    
C20   H31   S    
C32   C33   A    
Ba1   O22   S    
C44   C48   S    
C36   C37   A    
C8    H25   S    
C47   H44   S    
Ba2   O12   S    
C42   H2    S    
O30   H53   S    
Ba1   Ba2   S    
C4    H16   S    
O7    P4    S    
O12   P1    S    
C5    H20   S    
C8    H28   S    
C4    H17   S    
C10   C14   A    
C17   P4    S    
C48   H47   S    
S4    O36   S    
C23   H19   S    
C27   C36   A    
C34   S5    S    
C21   C22   A    
C51   H60   S    
C28   C39   A    
C34   O7    S    
Ba1   P2    S    
C33   C41   A    
C7    C8    S    
C41   P7    S    
C12   O3    S    
C44   H6    S    
Ba1   O1    S    
C29   H38   S    
C50   H58   S    
C51   H59   S    
O16   P8    D    
Ba1   O23   S    
C49   H52   S    
S3    O32   D    
C31   C32   A    
C1    H13   S    
O5    P4    S    
O24   P3    D    
C7    S4    S    
C6    H24   S    
C13   C14   A    
O11   P5    S    
Ba2   O4    S    
S5    O39   S    
O33   H54   S    
C49   H51   S    
C37   C38   A    
C43   O20   S    
C47   H45   S    
C28   P2    S    
O14   P7    D    
C43   H4    S    
C43   C44   S    
C39   H36   S    
C27   P3    S    
C10   C19   A    
C23   H40   S    
O21   P6    S    
C4    H15   S    
S1    O26   D    
C35   C36   A    
O27   H46   S    
C45   C46   S    
Ba2   O14   S    
Ba1   O5    S    
C2    H12   S    
C14   C50   S    
C15   C16   A    
C51   H61   S    
O15   P7    S    
O10   P5    D    
C21   H30   S    
S2    O28   D    
S2    O30   S    
C17   C26   A    
O2    P2    S    
O23   P3    S    
C1    H9    S    
C42   H3    S    
C16   H32   S    
C2    O21   S    
C18   C20   A    
Ba2   O9    S    
C11   C13   A    
O39   H62   S    
S4    O35   D    
C11   C24   A    
C34   C42   S    
C1    H18   S    
C30   P5    S    
C1    C2    S    
O22   P2    D    
S3    O33   S    
C15   P1    S    
C46   H11   S    
C45   H7    S    
C34   H42   S    
Ba1   O13   S    
C6    H23   S    
C26   H33   S    
S4    O34   D    
C6    H22   S    
C46   C49   S    
C29   C30   A    
C16   C25   A    
C12   H37   S    
S2    O29   D    
C49   H50   S    
Ba1   O8    S    
C5    H21   S    
C9    C10   A    
C46   H10   S    
C11   C15   A    
C7    O17   S    
C42   C47   S    
C23   H41   S    
O3    P3    S    
O6    P8    S    
C2    H1    S    
C30   C31   A    
Ba2   O6    S    
C33   C38   A    
C31   H39   S    
S1    O27   S    
C37   H35   S    
C12   H27   S    
C8    H26   S    
C13   H29   S    
Ba2   O13   S    
C43   S1    S    
C48   H49   S    
O20   P1    S    
C44   H5    S    
C7    S3    S    
O1    P1    D    
C3    H14   S    
O13   P2    S    
C12   C23   S    
C35   C39   A    
S5    O37   D    
C5    C6    S    
Ba1   O18   S    
O9    P5    S    
C9    P8    S    
C18   C19   A    
Ba2   O8    S    
C48   H48   S    
C5    O11   S    
C50   H56   S    
C20   C21   A    
C28   C40   A    
Ba1   P1    S    
O17   P8    S    
O36   H55   S    
Ba1   O12   S    
S1    O25   D    
O19   P6    D    
C45   H8    S    
