data_mof_unit_9313.cif
_audit_creation_date              2012-12-10T18:11:43-0500
_audit_creation_method            fapswitch 2.2
_symmetry_space_group_name_H-M    P1
_symmetry_Int_Tables_number       1
_space_group_crystal_system       triclinic
_cell_length_a                    10.499183
_cell_length_b                    12.622975
_cell_length_c                    13.113964
_cell_angle_alpha                 82.405052
_cell_angle_beta                  90.470616
_cell_angle_gamma                 101.986713
_cell_volume                      1684.86354784

loop_
_atom_site_label
_atom_site_type_symbol
_atom_type_description
_atom_site_fract_x
_atom_site_fract_y
_atom_site_fract_z
_atom_type_partial_charge
C1    C     C_R   0.489800 0.438951 0.691194 0.847646
C2    C     C_3   0.066950 0.603004 0.504366 -0.147413
C3    C     C_3   0.968779 0.534702 0.587604 -0.209025
C4    C     C_3   0.876925 0.499066 0.501571 -0.038749
C5    C     C_R   0.691556 0.704185 0.065951 0.222215
C6    C     C_R   0.545123 0.596862 0.200543 -0.084290
C7    C     C_R   0.398393 0.301199 0.837310 -0.197912
C8    C     C_R   0.370940 0.273343 0.941896 -0.154050
C9    C     C_R   0.421175 0.346727 0.009760 -0.189998
C10   C     C_R   0.505669 0.447853 0.973862 0.104531
C11   C     C_R   0.549281 0.466913 0.870713 0.102042
C12   C     C_R   0.741886 0.499761 0.501155 0.849857
C13   C     C_R   0.548217 0.530731 0.036640 0.037712
C14   C     C_R   0.648136 0.622931 0.001385 0.139963
C15   C     C_R   0.704632 0.630023 0.903890 -0.245151
C16   C     C_R   0.655770 0.553158 0.839433 -0.230152
C17   C     C_R   0.491906 0.524765 0.133242 -0.259587
C18   C     C_R   0.642296 0.688374 0.166959 -0.280003
C19   C     C_R   0.484057 0.399642 0.800971 -0.115005
C20   C     C_R   0.323295 0.090202 0.343839 -0.306309
C21   C     C_R   0.654898 0.799413 0.629101 0.035356
C22   C     C_R   0.687319 0.903675 0.657272 -0.258189
C23   C     C_R   0.516300 0.560934 0.308903 0.864372
C24   C     C_R   0.628346 0.985207 0.608625 -0.193835
C25   C     C_R   0.536973 0.962616 0.530433 0.016862
C26   C     C_R   0.507984 0.854965 0.504175 0.235552
C27   C     C_R   0.474065 0.042156 0.477074 -0.015608
C28   C     C_R   0.385739 0.013018 0.397737 0.198166
C29   C     C_R   0.360726 0.907274 0.372621 -0.293136
C30   C     C_R   0.420280 0.829233 0.425637 -0.217916
C31   C     C_R   0.495199 0.150279 0.498652 -0.055025
C32   C     C_R   0.348664 0.195587 0.368870 0.014429
C33   C     C_R   0.257997 0.500124 0.499033 0.865935
C34   C     C_3   0.933392 0.397058 0.495889 -0.169840
C35   C     C_3   0.027647 0.432795 0.582077 -0.160197
C36   C     C_3   0.122810 0.500495 0.498671 -0.010862
C37   C     C_3   0.031446 0.464419 0.412195 -0.220986
C38   C     C_3   0.973506 0.564847 0.420122 0.257768
H1    H     H_    0.055015 0.378411 0.648524 0.136801
H2    H     H_    0.409308 0.461138 0.160411 0.145584
H3    H     H_    0.349432 0.247515 0.784645 0.158297
H4    H     H_    0.394827 0.320975 0.089884 0.129715
H5    H     H_    0.305939 0.196760 0.970030 0.140952
H6    H     H_    0.703036 0.560996 0.765014 0.149530
H7    H     H_    0.301968 0.256807 0.327798 0.124674
H8    H     H_    0.294888 0.884952 0.311363 0.151548
H9    H     H_    0.255945 0.069269 0.283013 0.141134
H10   H     H_    0.560229 0.180247 0.557138 0.125321
H11   H     H_    0.700931 0.735945 0.666148 0.128925
H12   H     H_    0.875347 0.313238 0.493336 0.155029
H13   H     H_    0.657038 0.064710 0.633231 0.135925
H14   H     H_    0.758180 0.921353 0.716393 0.148981
H15   H     H_    0.396490 0.749420 0.402972 0.212572
H16   H     H_    0.061345 0.437244 0.340591 0.136537
H17   H     H_    0.124525 0.687119 0.506224 0.152789
H18   H     H_    0.938577 0.562462 0.658816 0.138662
H19   H     H_    0.682979 0.745056 0.219831 0.168375
H20   H     H_    0.785531 0.695652 0.876242 0.173775
N1    N     N_R   0.432930 0.222190 0.444670 -0.100652
N2    N     N_R   0.566370 0.776980 0.554790 -0.129166
O1    O     O_R   0.467970 0.366730 0.627150 -0.617550
O2    O     O_R   0.510820 0.544830 0.662520 -0.608803
O3    O     O_R   0.664630 0.410960 0.482340 -0.622863
O4    O     O_R   0.707470 0.589060 0.517710 -0.619787
O5    O     O_R   0.489180 0.455170 0.337480 -0.614026
O6    O     O_R   0.532030 0.633270 0.372850 -0.634738
O7    O     O_R   0.292530 0.410940 0.482290 -0.616431
O8    O     O_R   0.335370 0.589040 0.517660 -0.638335
Zn1   Zn    Zn3+2 0.471390 0.381080 0.476380 0.933271
Zn2   Zn    Zn3+2 0.528610 0.618920 0.523620 0.930065
N3    N     N_2   0.936879 0.635015 0.333392 -0.300587
H21   H     H_    0.855624 0.598002 0.296816 0.220811
C39   C     C_3   0.042563 0.688462 0.262762 -0.814999
H22   H     H_    0.008508 0.748523 0.205091 0.238520
H23   H     H_    0.076811 0.627418 0.222074 0.235153
H24   H     H_    0.124603 0.732584 0.304731 0.240195
N4    N     N_2   0.788150 0.799057 0.031456 -0.321147
H25   H     H_    0.847537 0.828299 0.088974 0.223770
C40   C     C_3   0.737340 0.884833 0.970923 -0.813383
H26   H     H_    0.672019 0.917452 0.019289 0.248479
H27   H     H_    0.682362 0.853791 0.904482 0.250870
H28   H     H_    0.819222 0.952297 0.940850 0.237035

loop_
_geom_bond_atom_site_label_1
_geom_bond_atom_site_label_2
_ccdc_geom_bond_type
C34   C37   S    
C39   H22   S    
C35   C36   S    
C8    H5    S    
C1    O2    A    
C21   H11   S    
C7    C8    A    
N4    H25   S    
C11   C19   A    
C9    H4    S    
C37   C38   S    
C23   O6    A    
C36   C37   S    
C2    H17   S    
C12   O4    A    
O1    Zn1   S    
C15   C16   A    
C33   C36   S    
O2    Zn2   S    
C34   C35   S    
C11   C16   A    
C31   N1    A    
O3    Zn1   S    
C8    C9    A    
O4    Zn2   S    
C4    C12   S    
C9    C10   A    
C16   H6    S    
C24   H13   S    
C21   C22   A    
C39   H23   S    
N4    C40   S    
C6    C18   A    
C30   H15   S    
C4    C34   S    
C34   H12   S    
C1    C19   S    
C27   C31   A    
C24   C25   A    
C21   N2    A    
N3    C39   S    
C12   O3    A    
C5    C18   A    
C20   C28   A    
C25   C26   A    
O7    Zn1   S    
C17   H2    S    
C35   H1    S    
C29   C30   A    
C3    H18   S    
C2    C38   S    
C18   H19   S    
N2    Zn2   S    
C32   H7    S    
C5    C14   A    
N1    Zn1   S    
C37   H16   S    
C4    C38   S    
C26   C30   A    
C7    C19   A    
C31   H10   S    
C15   H20   S    
C22   C24   A    
C3    C35   S    
C3    C4    S    
C33   O7    A    
C22   H14   S    
C20   C32   A    
C2    C36   S    
C6    C17   A    
C38   N3    S    
C28   C29   A    
C10   C13   A    
C1    O1    A    
C40   H28   S    
C25   C27   A    
C40   H27   S    
C13   C17   A    
C29   H8    S    
C23   O5    A    
C2    C3    S    
N3    H21   S    
O6    Zn2   S    
C26   N2    A    
O5    Zn1   S    
C6    C23   S    
C39   H24   S    
C7    H3    S    
C20   H9    S    
C10   C11   A    
C40   H26   S    
O8    Zn2   S    
C27   C28   A    
C14   C15   A    
C32   N1    A    
C13   C14   A    
C5    N4    S    
C33   O8    A    
