data_mof_unit_9672.cif
_audit_creation_date              2012-12-10T20:30:08-0500
_audit_creation_method            fapswitch 2.2
_symmetry_space_group_name_H-M    P1
_symmetry_Int_Tables_number       1
_space_group_crystal_system       triclinic
_cell_length_a                    9.884183
_cell_length_b                    10.71209
_cell_length_c                    13.023902
_cell_angle_alpha                 89.792494
_cell_angle_beta                  71.431297
_cell_angle_gamma                 89.894509
_cell_volume                      1307.17923484

loop_
_atom_site_label
_atom_site_type_symbol
_atom_type_description
_atom_site_fract_x
_atom_site_fract_y
_atom_site_fract_z
_atom_type_partial_charge
C1    C     C_R   0.501438 0.739528 0.497179 0.907396
C2    C     C_R   0.443178 0.392937 0.976473 0.086955
C3    C     C_R   0.483591 0.395797 0.862680 0.087670
C4    C     C_R   0.551407 0.408734 0.025040 0.078084
C5    C     C_R   0.696639 0.406978 0.959985 0.167515
C6    C     C_R   0.732668 0.373994 0.851316 -0.263308
C7    C     C_R   0.626437 0.366308 0.803164 -0.203665
C8    C     C_R   0.518620 0.439897 0.133863 -0.267213
C9    C     C_R   0.767902 0.482395 0.110453 0.004921
C10   C     C_R   0.380355 0.431648 0.813467 -0.124564
C11   C     C_R   0.395831 0.936911 0.566120 0.085814
C12   C     C_R   0.423445 0.480436 0.701863 0.868155
C13   C     C_R   0.506329 0.871614 0.493372 -0.149842
C14   C     C_R   0.627226 0.935203 0.425317 -0.083881
C15   C     C_R   0.626866 0.065769 0.424272 -0.066436
C16   C     C_R   0.505654 0.129118 0.491223 -0.150472
C17   C     C_R   0.394011 0.063892 0.563307 0.051866
C18   C     C_3   0.235190 0.069325 0.587144 -0.198178
C19   C     C_3   0.237840 0.927520 0.590894 -0.516644
C20   C     C_R   0.889855 0.522805 0.592988 0.205301
C21   C     C_R   0.965139 0.462323 0.411717 -0.092393
C22   C     C_R   0.109034 0.463388 0.411306 -0.092753
C23   C     C_R   0.501761 0.260755 0.496150 0.872029
C24   C     C_R   0.031890 0.521572 0.593372 0.192875
C25   C     C_3   0.008484 0.635483 0.662023 -0.517467
C26   C     C_3   0.855366 0.637407 0.660665 -0.477102
C27   C     C_R   0.578450 0.498392 0.295215 0.872481
C28   C     C_R   0.803153 0.443865 0.002808 -0.247036
C29   C     C_R   0.624485 0.475857 0.177932 -0.104233
C30   C     C_R   0.235230 0.423574 0.873799 -0.209386
C31   C     C_R   0.194499 0.390861 0.982917 -0.121487
C32   C     C_R   0.296485 0.381735 0.035624 -0.170007
H1    H     H_    0.178605 0.113428 0.666365 0.147958
H2    H     H_    0.185200 0.889605 0.673552 0.193886
H3    H     H_    0.208123 0.880786 0.524931 0.214410
H4    H     H_    0.941060 0.431875 0.340574 0.168119
H5    H     H_    0.192684 0.435095 0.339125 0.144947
H6    H     H_    0.017430 0.615853 0.743494 0.199526
H7    H     H_    0.072143 0.715423 0.618630 0.217592
H8    H     H_    0.775936 0.619473 0.741501 0.216557
H9    H     H_    0.843187 0.361911 0.802069 0.145872
H10   H     H_    0.830865 0.718681 0.616197 0.219931
H11   H     H_    0.912619 0.449195 0.950368 0.125114
H12   H     H_    0.409044 0.441946 0.184687 0.160619
H13   H     H_    0.258356 0.362953 0.121558 0.129374
H14   H     H_    0.083364 0.377413 0.028191 0.150651
N1    N     N_R   0.856940 0.500860 0.500710 -0.112534
N2    N     N_R   0.142580 0.500820 0.500710 -0.107136
O1    O     O_R   0.385310 0.683210 0.499990 -0.609706
O2    O     O_R   0.614650 0.683240 0.500000 -0.607197
O3    O     O_R   0.328390 0.499940 0.653610 -0.613706
O4    O     O_R   0.557730 0.499980 0.653620 -0.621727
O5    O     O_R   0.385350 0.316760 0.500000 -0.615936
O6    O     O_R   0.614690 0.316790 0.500010 -0.624999
O7    O     O_R   0.442270 0.500020 0.346380 -0.624211
O8    O     O_R   0.671610 0.500060 0.346390 -0.604644
Zn1   Zn    Zn3+2 0.346870 0.499980 0.499990 0.947579
Zn2   Zn    Zn3+2 0.653130 0.500020 0.500010 0.958567
C33   C     C_1   0.879175 0.535705 0.146094 0.169511
N3    N     N_1   0.969388 0.579125 0.173175 -0.200220
C34   C     C_1   0.744666 0.133360 0.348899 0.212517
N4    N     N_1   0.838362 0.187164 0.288784 -0.213214
C35   C     C_1   0.190046 0.116537 0.496621 0.263763
N5    N     N_1   0.154470 0.153315 0.425568 -0.214107
H15   H     H_    0.153794 0.441760 0.836423 0.145383
H16   H     H_    0.658173 0.339456 0.718945 0.185055
C36   C     C_1   0.746593 0.868132 0.351866 0.201754
N6    N     N_1   0.842132 0.815152 0.293318 -0.174342

loop_
_geom_bond_atom_site_label_1
_geom_bond_atom_site_label_2
_ccdc_geom_bond_type
C8    H12   S    
C2    C4    A    
C14   C36   S    
C6    C7    A    
O3    Zn1   S    
C25   H6    S    
C27   C29   S    
C5    C28   A    
C32   H13   S    
C10   C30   A    
C28   H11   S    
C22   N2    A    
C31   C32   A    
C9    C29   A    
C30   C31   A    
C4    C8    A    
C26   H8    S    
C27   O8    A    
C17   C18   S    
C15   C34   S    
C33   N3    T    
C3    C10   A    
C19   H3    S    
C13   C14   A    
C25   H7    S    
N1    Zn2   S    
C11   C13   A    
C11   C19   S    
C5    C6    A    
C20   C26   S    
C8    C29   A    
C10   C12   S    
C12   O4    A    
O8    Zn2   S    
C23   O5    A    
C16   C23   S    
C2    C3    A    
O7    Zn1   S    
O6    Zn2   S    
C34   N4    T    
O4    Zn2   S    
C18   H1    S    
C27   O7    A    
C18   C35   S    
C30   H15   S    
C1    C13   S    
C36   N6    T    
O2    Zn2   S    
C16   C17   A    
C20   C24   A    
N2    Zn1   S    
C12   O3    A    
O1    Zn1   S    
C24   C25   S    
C26   H10   S    
C23   O6    A    
C2    C32   A    
C18   C19   S    
C1    O2    A    
C21   H4    S    
O5    Zn1   S    
C14   C15   A    
C4    C5    A    
C7    H16   S    
C3    C7    A    
C21   N1    A    
C25   C26   S    
C21   C22   A    
C22   H5    S    
C1    O1    A    
C6    H9    S    
C11   C17   A    
C20   N1    A    
C15   C16   A    
C9    C28   A    
C31   H14   S    
C35   N5    T    
C9    C33   S    
C19   H2    S    
C24   N2    A    
