data_mof_unit_49974.cif
_audit_creation_date              2012-12-10T17:47:45-0500
_audit_creation_method            fapswitch 2.2
_symmetry_space_group_name_H-M    P1
_symmetry_Int_Tables_number       1
_space_group_crystal_system       triclinic
_cell_length_a                    10.709262
_cell_length_b                    10.662985
_cell_length_c                    9.963294
_cell_angle_alpha                 90.774176
_cell_angle_beta                  90.596918
_cell_angle_gamma                 93.453042
_cell_volume                      1135.49430803

loop_
_atom_site_label
_atom_site_type_symbol
_atom_type_description
_atom_site_fract_x
_atom_site_fract_y
_atom_site_fract_z
_atom_type_partial_charge
C1    C     C_R   0.514119 0.261736 0.500280 0.891820
C2    C     C_R   0.595067 0.071461 0.613331 0.105114
C3    C     C_R   0.542021 0.131037 0.500671 -0.121123
C4    C     C_R   0.258194 0.502254 0.499330 0.871756
C5    C     C_R   0.514085 0.063108 0.382736 -0.221528
C6    C     C_R   0.507885 0.935392 0.383766 -0.215032
C7    C     C_R   0.540015 0.873105 0.499942 -0.121138
C8    C     C_R   0.304541 0.352802 0.124485 0.127057
C9    C     C_R   0.203075 0.305755 0.044981 -0.254268
C10   C     C_R   0.212485 0.302422 0.908029 -0.246441
C11   C     C_R   0.318277 0.355765 0.849171 -0.137862
C12   C     C_3   0.878940 0.504456 0.501025 0.141902
C13   C     C_R   0.408211 0.429872 0.923437 0.130916
C14   C     C_R   0.405540 0.429372 0.067747 0.149830
C15   C     C_R   0.588372 0.566835 0.073492 -0.129742
C16   C     C_R   0.512514 0.739741 0.500685 0.864417
C17   C     C_R   0.588331 0.566722 0.930893 -0.119929
C18   C     C_R   0.742193 0.503321 0.500552 0.844263
C19   C     C_3   0.065659 0.385170 0.574695 -0.177707
C20   C     C_3   0.921483 0.379717 0.563975 -0.127063
C21   C     C_3   0.081130 0.622177 0.572634 -0.430741
C22   C     C_3   0.069424 0.503628 0.352370 -0.444513
C23   C     C_3   0.937308 0.619609 0.581714 -0.420857
C24   C     C_3   0.121582 0.501918 0.498493 0.082114
C25   C     C_1   0.113424 0.263860 0.532213 0.070015
C26   C     C_3   0.927610 0.511473 0.352991 -0.065234
C27   C     C_R   0.648938 0.137773 0.726231 -0.180156
C28   C     C_R   0.706255 0.075067 0.829747 -0.158980
C29   C     C_R   0.715525 0.946041 0.821565 -0.144743
C30   C     C_R   0.664308 0.878760 0.711639 -0.177066
C31   C     C_R   0.598796 0.939472 0.609426 0.111024
H1    H     H_    0.094330 0.398318 0.681571 0.153399
H2    H     H_    0.660543 0.621965 0.128292 0.156289
H3    H     H_    0.125512 0.252185 0.090029 0.144834
H4    H     H_    0.141904 0.249765 0.848217 0.158463
H5    H     H_    0.327859 0.334511 0.745528 0.218813
H6    H     H_    0.661099 0.621185 0.879530 0.128607
H7    H     H_    0.887358 0.301244 0.495147 0.141754
H8    H     H_    0.122000 0.629125 0.675853 0.188341
H9    H     H_    0.908970 0.615998 0.688544 0.172337
H10   H     H_    0.115055 0.583478 0.296616 0.189483
H11   H     H_    0.089409 0.417309 0.296660 0.160446
H12   H     H_    0.116132 0.707468 0.518103 0.175945
H13   H     H_    0.885884 0.428263 0.295620 0.147033
H14   H     H_    0.944569 0.704124 0.318416 0.194047
H15   H     H_    0.907822 0.614771 0.181939 0.172639
H16   H     H_    0.324258 0.195824 0.225124 0.160967
H17   H     H_    0.233177 0.292771 0.299935 0.183184
H18   H     H_    0.900958 0.420670 0.767343 0.192424
H19   H     H_    0.894384 0.267088 0.727831 0.186660
H20   H     H_    0.902947 0.708657 0.542904 0.166563
H21   H     H_    0.489474 0.107522 0.290523 0.169838
H22   H     H_    0.653613 0.238342 0.735668 0.198604
H23   H     H_    0.747698 0.127637 0.914422 0.134387
H24   H     H_    0.764609 0.898175 0.899367 0.126699
H25   H     H_    0.681854 0.780281 0.705414 0.144929
H26   H     H_    0.472653 0.885795 0.294174 0.175552
N1    N     N_R   0.498810 0.498800 0.142780 -0.112180
N2    N     N_R   0.498760 0.498720 0.857170 -0.120549
N3    N     N_3   0.890242 0.625059 0.284467 -0.450463
N4    N     N_1   0.150109 0.167876 0.501226 -0.225585
N5    N     N_3   0.316214 0.290812 0.247901 -0.360673
N6    N     N_3   0.866479 0.354310 0.696048 -0.462023
O1    O     O_R   0.500000 0.316780 0.614690 -0.655085
O2    O     O_R   0.499990 0.316750 0.385360 -0.597476
O3    O     O_R   0.314800 0.499990 0.614670 -0.644144
O4    O     O_R   0.314790 0.499970 0.385330 -0.608985
O5    O     O_R   0.500010 0.683250 0.614640 -0.618777
O6    O     O_R   0.500000 0.683220 0.385310 -0.618495
O7    O     O_R   0.685210 0.500030 0.614670 -0.624890
O8    O     O_R   0.685200 0.500010 0.385330 -0.618038
Zn1   Zn    Zn3+2 0.500010 0.500020 0.653130 0.925830
Zn2   Zn    Zn3+2 0.499990 0.499980 0.346870 0.953192

loop_
_geom_bond_atom_site_label_1
_geom_bond_atom_site_label_2
_ccdc_geom_bond_type
C18   O7    A    
C4    O4    A    
C1    O2    A    
C27   H22   S    
H14   N3    S    
O6    Zn2   S    
C6    C7    A    
H18   N6    S    
C17   H6    S    
C20   H7    S    
C9    C10   A    
H17   N5    S    
C19   C20   S    
C12   C23   S    
N2    Zn1   S    
O5    Zn1   S    
C2    C27   A    
C30   H25   S    
C12   C20   S    
C20   N6    S    
O1    Zn1   S    
C19   C24   S    
C8    C9    A    
C26   H13   S    
C5    H21   S    
C25   N4    T    
C13   C14   A    
C4    O3    A    
H19   N6    S    
C11   C13   A    
C6    H26   S    
C29   C30   A    
C26   N3    S    
H16   N5    S    
O4    Zn2   S    
C5    C6    A    
C28   C29   A    
C17   N2    A    
C14   N1    A    
C2    C3    A    
C15   H2    S    
C16   O5    A    
C21   C23   S    
C9    H3    S    
C4    C24   S    
C15   N1    A    
C22   C24   S    
C22   H10   S    
C7    C31   A    
C10   C11   A    
C19   H1    S    
C19   C25   S    
C12   C18   S    
C23   H9    S    
C10   H4    S    
C1    O1    A    
C3    C5    A    
C27   C28   A    
O2    Zn2   S    
O8    Zn2   S    
C22   C26   S    
C21   C24   S    
C22   H11   S    
C18   O8    A    
C15   C17   A    
C28   H23   S    
C30   C31   A    
C7    C16   S    
C8    C14   A    
C8    N5    S    
C29   H24   S    
H15   N3    S    
C13   N2    A    
C21   H12   S    
C23   H20   S    
C21   H8    S    
O7    Zn1   S    
O3    Zn1   S    
C16   O6    A    
N1    Zn2   S    
C12   C26   S    
C2    C31   A    
C1    C3    S    
C11   H5    S    
