data_mof_unit_13277.cif
_audit_creation_date              2012-12-11T17:39:29-0500
_audit_creation_method            fapswitch 2.2
_symmetry_space_group_name_H-M    P1
_symmetry_Int_Tables_number       1
_space_group_crystal_system       triclinic
_cell_length_a                    15.122021
_cell_length_b                    14.967292
_cell_length_c                    14.917214
_cell_angle_alpha                 108.485
_cell_angle_beta                  109.836312
_cell_angle_gamma                 110.403889
_cell_volume                      2588.46202772

loop_
_atom_site_label
_atom_site_type_symbol
_atom_type_description
_atom_site_fract_x
_atom_site_fract_y
_atom_site_fract_z
_atom_type_partial_charge
C1    C     C_R   0.909518 0.975948 0.721568 -0.124311
C2    C     C_R   0.998127 0.325790 0.528650 0.050262
C3    C     C_R   0.365382 0.301739 0.800512 0.131054
C4    C     C_R   0.637310 0.939206 0.438000 0.066848
C5    C     C_R   0.751227 0.686705 0.278890 -0.154538
C6    C     C_R   0.246024 0.027784 0.433719 -0.110646
C7    C     C_R   0.087879 0.791619 0.598611 -0.132624
C8    C     C_R   0.908229 0.001438 0.200453 -0.149727
C9    C     C_R   0.089295 0.093592 0.288485 -0.143464
C10   C     C_R   0.906916 0.705372 0.511218 -0.139236
C11   C     C_R   0.751008 0.779336 0.186938 -0.122691
C12   C     C_R   0.091284 0.316412 0.552401 -0.133650
C13   C     C_R   0.256692 0.942626 0.533225 -0.138252
C14   C     C_R   0.725081 0.676625 0.176595 0.126647
C15   C     C_R   0.284448 0.963484 0.459256 0.045616
C16   C     C_R   0.995161 0.703470 0.576299 0.068305
C17   C     C_R   0.996010 0.060448 0.193200 0.066956
C18   C     C_R   0.487150 0.597231 0.321361 -0.090619
C19   C     C_R   0.470750 0.684034 0.324873 -0.162889
C20   C     C_R   0.457205 0.742190 0.408878 0.043705
C21   C     C_R   0.456723 0.708908 0.487855 0.075030
C22   C     C_R   0.469717 0.619115 0.481049 -0.175654
C23   C     C_R   0.302566 0.207913 0.798550 -0.138801
C24   C     C_R   0.485560 0.564005 0.398444 -0.117122
C25   C     C_R   0.366231 0.852058 0.422368 -0.223386
C26   C     C_R   0.364573 0.948291 0.436437 0.063471
C27   C     C_R   0.444985 0.032881 0.436806 0.017354
C28   C     C_R   0.525610 0.019367 0.424522 -0.239207
C29   C     C_R   0.533867 0.928591 0.420928 0.061445
C30   C     C_R   0.452619 0.841939 0.417147 0.036930
C31   C     C_R   0.442697 0.174960 0.383618 -0.198460
C32   C     C_R   0.457350 0.279208 0.409340 -0.126721
C33   C     C_R   0.488844 0.352194 0.515408 -0.100577
C34   C     C_R   0.698567 0.996359 0.404378 -0.160641
C35   C     C_R   0.506008 0.321116 0.595920 -0.120504
C36   C     C_R   0.491119 0.216827 0.570561 -0.116870
C37   C     C_R   0.458365 0.142723 0.463837 0.115276
C38   C     C_R   0.754671 0.272657 0.190523 -0.128550
C39   C     C_R   0.837102 0.334878 0.300531 -0.118907
C40   C     C_R   0.810947 0.336872 0.382592 0.110127
C41   C     C_R   0.701362 0.274097 0.352924 -0.190941
C42   C     C_R   0.619640 0.208657 0.242317 -0.121123
C43   C     C_R   0.646203 0.209083 0.161314 -0.111743
C44   C     C_R   0.889732 0.515786 0.530924 -0.221110
C45   C     C_R   0.301718 0.300273 0.707821 -0.133071
C46   C     C_R   0.986244 0.616449 0.604401 0.046351
C47   C     C_R   0.078326 0.621169 0.677139 0.027494
C48   C     C_R   0.080273 0.523867 0.654747 -0.242331
C49   C     C_R   0.991509 0.425012 0.560454 0.067355
C50   C     C_R   0.894775 0.421851 0.497875 0.015121
C51   C     C_R   0.275366 0.768876 0.786774 -0.188444
C52   C     C_R   0.355464 0.878494 0.863857 -0.131145
C53   C     C_R   0.334356 0.944227 0.933880 -0.109707
C54   C     C_R   0.231968 0.901231 0.925323 -0.105430
C55   C     C_R   0.149834 0.793368 0.844863 -0.132256
C56   C     C_R   0.698234 0.908359 0.499659 -0.131712
C57   C     C_R   0.170588 0.726852 0.774096 0.117611
C58   C     C_2   0.536853 0.470550 0.879778 -0.139602
C59   C     C_2   0.482049 0.376943 0.877770 -0.195774
C60   C     C_2   0.636869 0.567122 0.978321 -0.107193
C61   C     C_2   0.671946 0.573341 0.076706 -0.187316
C62   C     C_R   0.399114 0.295856 0.119668 -0.144711
C63   C     C_R   0.297736 0.230406 0.105106 -0.185538
C64   C     C_R   0.207017 0.238587 0.050641 0.122237
C65   C     C_R   0.219866 0.314324 0.012566 -0.142595
C66   C     C_R   0.321632 0.379871 0.027717 -0.086945
C67   C     C_R   0.907902 0.221343 0.464771 -0.117557
C68   C     C_R   0.410799 0.370035 0.080589 -0.119037
C69   C     C_R   0.091738 0.161713 0.121212 -0.238667
C70   C     C_R   0.992120 0.091198 0.107522 0.062959
C71   C     C_R   0.894240 0.045385 0.007739 0.021820
C72   C     C_R   0.901517 0.058083 0.922181 -0.232457
C73   C     C_R   0.002425 0.101377 0.927735 0.053247
C74   C     C_R   0.098671 0.166774 0.031927 0.026506
C75   C     C_R   0.732604 0.858553 0.917830 -0.154648
C76   C     C_R   0.628713 0.789569 0.896321 -0.129902
C77   C     C_R   0.576080 0.834035 0.940203 -0.094209
C78   C     C_R   0.092211 0.063553 0.812709 -0.132081
C79   C     C_R   0.625313 0.947768 0.001786 -0.135020
C80   C     C_R   0.726560 0.017108 0.018585 -0.166898
C81   C     C_R   0.783010 0.972727 0.981351 0.110198
C82   C     C_R   0.002600 0.053772 0.824761 0.053937
H1    H     H_    0.825142 0.945185 0.699147 0.095525
H2    H     H_    0.250729 0.056529 0.376872 0.114826
H3    H     H_    0.171998 0.821243 0.653442 0.120732
H4    H     H_    0.824637 0.977007 0.155073 0.128910
H5    H     H_    0.172829 0.153030 0.318738 0.097630
H6    H     H_    0.823265 0.659938 0.491304 0.090026
H7    H     H_    0.740247 0.800836 0.123153 0.106935
H8    H     H_    0.276139 0.896656 0.571851 0.110439
H9    H     H_    0.498370 0.496596 0.395082 0.108631
H10   H     H_    0.503410 0.557344 0.260078 0.121745
H11   H     H_    0.472716 0.708666 0.264328 0.122788
H12   H     H_    0.175798 0.382017 0.600609 0.095024
H13   H     H_    0.470394 0.593491 0.541449 0.110250
H14   H     H_    0.302327 0.786833 0.419490 0.132552
H15   H     H_    0.589653 0.087453 0.430615 0.130820
H16   H     H_    0.418027 0.118871 0.301161 0.111216
H17   H     H_    0.444502 0.303365 0.347108 0.111756
H18   H     H_    0.500469 0.432996 0.535489 0.094330
H19   H     H_    0.531431 0.378062 0.678098 0.115632
H20   H     H_    0.504888 0.193684 0.633663 0.115903
H21   H     H_    0.582855 0.161302 0.075908 0.094056
H22   H     H_    0.332495 0.175909 0.849967 0.101963
H23   H     H_    0.774740 0.275178 0.127964 0.108112
H24   H     H_    0.920479 0.386049 0.322215 0.112037
H25   H     H_    0.679421 0.277498 0.415415 0.128267
H26   H     H_    0.535384 0.160069 0.219428 0.102103
H27   H     H_    0.815631 0.510672 0.479514 0.126462
H28   H     H_    0.151827 0.526092 0.707690 0.125987
H29   H     H_    0.291945 0.720039 0.730995 0.123263
H30   H     H_    0.432317 0.913498 0.866192 0.130372
H31   H     H_    0.396358 0.028967 0.993345 0.093685
H32   H     H_    0.215165 0.952510 0.978638 0.106934
H33   H     H_    0.670878 0.020058 0.343645 0.103509
H34   H     H_    0.069059 0.762642 0.835397 0.110227
H35   H     H_    0.498867 0.485391 0.814442 0.108121
H36   H     H_    0.519146 0.358060 0.939560 0.127464
H37   H     H_    0.666272 0.641062 0.972604 0.118747
H38   H     H_    0.648349 0.501170 0.085631 0.120622
H39   H     H_    0.489585 0.421503 0.093252 0.100377
H40   H     H_    0.468610 0.289105 0.161212 0.117922
H41   H     H_    0.289452 0.171956 0.134324 0.106168
H42   H     H_    0.151066 0.321980 0.970719 0.114323
H43   H     H_    0.331391 0.438047 0.998199 0.115648
H44   H     H_    0.329512 0.351326 0.674432 0.087300
H45   H     H_    0.166242 0.208496 0.199810 0.125899
H46   H     H_    0.826062 0.020286 0.846497 0.129621
H47   H     H_    0.774260 0.823292 0.886229 0.113934
H48   H     H_    0.589739 0.701660 0.847095 0.098686
H49   H     H_    0.497106 0.780403 0.926273 0.113595
H50   H     H_    0.585392 0.982174 0.037149 0.119718
H51   H     H_    0.764617 0.104693 0.066477 0.122278
H52   H     H_    0.671933 0.854649 0.530998 0.109366
H53   H     H_    0.823390 0.196530 0.436669 0.110961
H54   H     H_    0.177484 0.111279 0.873940 0.125265
H55   H     H_    0.741584 0.622517 0.299980 0.101964
N1    N     N_R   0.941940 0.944580 0.650780 -0.042026
N2    N     N_R   0.206190 0.054080 0.497260 -0.042151
N3    N     N_R   0.056380 0.847410 0.553580 -0.041933
N4    N     N_R   0.944890 0.999100 0.292900 -0.041655
N5    N     N_R   0.058060 0.055420 0.349220 -0.039621
N6    N     N_R   0.943200 0.791100 0.497260 -0.038617
N7    N     N_R   0.795540 0.849750 0.292910 -0.044441
N8    N     N_R   0.205730 0.996760 0.553580 -0.041994
N9    N     N_R   0.056800 0.208900 0.502740 -0.039541
N10   N     N_R   0.204460 0.150250 0.707090 -0.043715
N11   N     N_R   0.794270 0.003240 0.446420 -0.038537
N12   N     N_R   0.204920 0.207570 0.650770 -0.042860
N13   N     N_R   0.793810 0.945920 0.502740 -0.040834
N14   N     N_R   0.943620 0.152590 0.446420 -0.042123
N15   N     N_R   0.055110 0.000900 0.707100 -0.041135
N16   N     N_R   0.795080 0.792430 0.349230 -0.039600
Ni1   Ni    Ni4+2 0.869690 0.869690 0.500000 0.213319
Ni2   Ni    Ni4+2 0.130310 0.130310 0.500000 0.215585
Ni3   Ni    Ni4+2 0.129250 0.998840 0.629170 0.215341
Ni4   Ni    Ni4+2 0.870750 0.001160 0.370830 0.215494
C83   C     C_1   0.450065 0.769238 0.580053 0.001090
N17   N     N_1   0.444907 0.817644 0.654036 -0.097323

loop_
_geom_bond_atom_site_label_1
_geom_bond_atom_site_label_2
_ccdc_geom_bond_type
C28   H15   S    
C39   H24   S    
C66   C68   A    
C40   C41   A    
C13   H8    S    
C41   C42   A    
C48   H28   S    
C35   C36   A    
N3    N6    A    
C13   N8    A    
C2    C12   A    
N11   Ni4   S    
C78   N15   A    
C20   C30   S    
C53   C54   A    
C10   H6    S    
C26   C27   A    
C62   C63   A    
C72   H46   S    
C18   C24   A    
N14   Ni4   S    
C36   C37   A    
N10   N12   A    
N11   N13   A    
C34   H33   S    
C77   H49   S    
C7    N3    A    
C11   C14   A    
C5    N16   A    
C31   H16   S    
C55   H34   S    
C52   H30   S    
C58   C60   S    
N7    N16   A    
C60   H37   S    
C36   H20   S    
C18   C19   A    
C21   C83   S    
C65   H42   S    
C12   N9    A    
C6    N2    A    
C3    C23   A    
C78   C82   A    
C44   C50   A    
C6    C15   A    
C54   C55   A    
N8    Ni3   S    
C76   H48   S    
N9    Ni2   S    
N15   Ni3   S    
C53   H31   S    
C70   C71   A    
C51   C57   A    
N5    Ni2   S    
C11   N7    A    
C45   N12   A    
C4    C29   S    
C19   H11   S    
C72   C73   A    
C44   H27   S    
N1    Ni1   S    
C17   C70   S    
N16   Ni1   S    
C21   C22   A    
C4    C56   A    
C61   H38   S    
C12   H12   S    
C34   N11   A    
C44   C46   A    
C77   C79   A    
C73   C74   A    
C38   C39   A    
C4    C34   A    
C6    H2    S    
C67   N14   A    
C51   C52   A    
C47   C48   A    
C76   C77   A    
C2    C67   A    
C16   C46   S    
C39   C40   A    
C75   C81   A    
C15   C26   S    
N1    N15   A    
C1    C82   A    
C63   C64   A    
C14   C61   S    
C23   N10   A    
C3    C45   A    
C58   H35   S    
C80   H51   S    
C31   C37   A    
C60   C61   D    
C67   H53   S    
C75   C76   A    
C29   C30   A    
C2    C49   S    
C47   C57   S    
C11   H7    S    
C63   H41   S    
C31   C32   A    
N2    Ni2   S    
C45   H44   S    
C69   C74   A    
N10   Ni3   S    
C5    C14   A    
C8    N4    A    
N3    Ni3   S    
N6    Ni1   S    
N4    Ni4   S    
C48   C49   A    
C49   C50   A    
C59   H36   S    
C13   C15   A    
C83   N17   T    
C22   C24   A    
C79   C80   A    
C58   C59   D    
C42   C43   A    
C56   N13   A    
C28   C29   A    
C24   H9    S    
C73   C82   S    
C62   H40   S    
C52   C53   A    
C9    C17   A    
C25   C30   A    
C46   C47   A    
N2    N8    A    
C51   H29   S    
C41   H25   S    
C7    C16   A    
C80   C81   A    
C35   H19   S    
C68   H39   S    
C56   H52   S    
C9    N5    A    
C66   H43   S    
C5    H55   S    
C1    H1    S    
C8    C17   A    
C32   H17   S    
C62   C68   A    
C33   H18   S    
C18   H10   S    
C32   C33   A    
C19   C20   A    
C55   C57   A    
C25   C26   A    
C38   C43   A    
C10   C16   A    
N4    N5    A    
C64   C65   A    
C7    H3    S    
C78   H54   S    
C38   H23   S    
C40   C50   S    
C79   H50   S    
C54   H32   S    
C33   C35   A    
C8    H4    S    
C10   N6    A    
C23   H22   S    
N12   Ni2   S    
C69   C70   A    
C43   H21   S    
N9    N14   A    
C22   H13   S    
C75   H47   S    
C71   C72   A    
C20   C21   A    
C69   H45   S    
C25   H14   S    
C65   C66   A    
N13   Ni1   S    
C27   C28   A    
C64   C74   S    
N7    Ni4   S    
C42   H26   S    
C9    H5    S    
C1    N1    A    
C27   C37   S    
C71   C81   S    
C3    C59   S    
