data_mof_unit_19682.cif
_audit_creation_date              2012-12-11T14:30:13-0500
_audit_creation_method            fapswitch 2.2
_symmetry_space_group_name_H-M    P1
_symmetry_Int_Tables_number       1
_space_group_crystal_system       triclinic
_cell_length_a                    13.027431
_cell_length_b                    12.972382
_cell_length_c                    26.732613
_cell_angle_alpha                 89.990114
_cell_angle_beta                  90.007776
_cell_angle_gamma                 120.172279
_cell_volume                      3905.65602188

loop_
_atom_site_label
_atom_site_type_symbol
_atom_type_description
_atom_site_fract_x
_atom_site_fract_y
_atom_site_fract_z
_atom_type_partial_charge
C1    C     C_R   0.564283 0.452999 0.823674 0.535311
C2    C     C_R   0.456421 0.555480 0.179296 0.548588
C3    C     C_R   0.850498 0.284219 0.456801 -0.071517
C4    C     C_R   0.454108 0.163619 0.044330 -0.105618
C5    C     C_R   0.713852 0.563064 0.456393 -0.070552
C6    C     C_R   0.437582 0.165269 0.508233 -0.062131
C7    C     C_R   0.832550 0.273062 0.991459 -0.048476
C8    C     C_R   0.727122 0.562203 0.508001 -0.059769
C9    C     C_R   0.455336 0.179093 0.992729 -0.098160
C10   C     C_R   0.836805 0.271339 0.508429 -0.065250
C11   C     C_R   0.723481 0.541855 0.993523 -0.104837
C12   C     C_R   0.444268 0.900990 0.320705 0.557155
C13   C     C_R   0.099517 0.543495 0.179027 0.551473
C14   C     C_R   0.942178 0.487991 0.980313 0.004046
C15   C     C_R   0.545712 0.059501 0.519312 0.026478
C16   C     C_R   0.512609 0.455769 0.980589 0.020585
C17   C     C_R   0.940734 0.486262 0.519264 0.033044
C18   C     C_R   0.544603 0.056320 0.980187 0.010740
C19   C     C_R   0.513225 0.454058 0.519292 0.016126
C20   C     C_R   0.542305 0.042272 0.467205 0.027988
C21   C     C_R   0.889650 0.436528 0.676464 0.536031
C22   C     C_R   0.958847 0.502022 0.032405 0.023355
C23   C     C_R   0.499176 0.457280 0.467184 0.029167
C24   C     C_R   0.542772 0.039277 0.032175 0.020658
C25   C     C_R   0.957912 0.499938 0.467144 0.036967
C26   C     C_R   0.497536 0.457755 0.032677 0.031744
C27   C     C_R   0.040494 0.703541 0.969352 0.227061
C28   C     C_R   0.655437 0.954101 0.530100 0.158839
C29   C     C_R   0.298998 0.353153 0.968617 0.213874
C30   C     C_R   0.044667 0.702402 0.529789 0.156664
C31   C     C_R   0.655072 0.952960 0.968185 0.228533
C32   C     C_R   0.546323 0.109920 0.823352 0.532846
C33   C     C_R   0.298125 0.344100 0.530249 0.225151
C34   C     C_R   0.634012 0.919977 0.479316 0.249672
C35   C     C_R   0.069191 0.718781 0.021050 0.243349
C36   C     C_R   0.285435 0.366083 0.479565 0.242592
C37   C     C_R   0.639828 0.921666 0.019539 0.251000
C38   C     C_R   0.079189 0.714968 0.479097 0.204895
C39   C     C_R   0.286068 0.375260 0.019137 0.225671
C40   C     C_R   0.981580 0.571169 0.896266 -0.084991
C41   C     C_R   0.595240 0.025664 0.603190 -0.124232
C42   C     C_R   0.431211 0.410338 0.896254 -0.090444
C43   C     C_R   0.563729 0.453277 0.676434 0.535932
C44   C     C_R   0.973491 0.570449 0.603042 -0.115894
C45   C     C_R   0.585796 0.016536 0.895880 -0.080487
C46   C     C_R   0.430149 0.404748 0.603251 -0.101588
C47   C     C_R   0.569358 0.944719 0.395936 -0.079919
C48   C     C_R   0.055818 0.626465 0.103873 -0.067745
C49   C     C_R   0.374429 0.430389 0.396067 -0.074131
C50   C     C_R   0.562512 0.934758 0.102466 -0.073106
C51   C     C_R   0.055208 0.625038 0.395815 -0.086666
C52   C     C_R   0.372750 0.436039 0.102968 -0.072870
C53   C     C_R   0.030728 0.525775 0.132616 0.003503
C54   C     C_R   0.890943 0.437235 0.823258 0.534840
C55   C     C_R   0.495652 0.970783 0.366849 0.008932
C56   C     C_R   0.472971 0.504065 0.132917 0.005171
C57   C     C_R   0.029353 0.524726 0.366815 0.013818
C58   C     C_R   0.494456 0.967135 0.132221 0.001972
C59   C     C_R   0.474384 0.503786 0.366828 0.013519
C60   C     C_R   0.538035 0.082449 0.623214 -0.009639
C61   C     C_R   0.919875 0.456680 0.876418 -0.010783
C62   C     C_R   0.544304 0.462002 0.623182 -0.015736
C63   C     C_R   0.536226 0.080910 0.876468 -0.010370
C64   C     C_R   0.917718 0.456019 0.623196 -0.003506
C65   C     C_R   0.546790 0.110586 0.676475 0.534278
C66   C     C_R   0.545385 0.461451 0.876912 -0.012664
C67   C     C_R   0.990901 0.588658 0.948376 -0.058396
C68   C     C_R   0.599320 0.012637 0.551148 -0.064597
C69   C     C_R   0.413391 0.407089 0.948134 -0.048942
C70   C     C_R   0.986776 0.587359 0.550988 -0.055929
C71   C     C_R   0.593616 0.006194 0.947841 -0.051720
C72   C     C_R   0.412863 0.400498 0.551220 -0.055618
C73   C     C_R   0.585177 0.971042 0.447174 -0.025776
C74   C     C_R   0.026988 0.617034 0.052687 -0.033828
C75   C     C_R   0.385063 0.414581 0.447283 -0.031096
C76   C     C_R   0.456532 0.555456 0.320708 0.557725
C77   C     C_R   0.583700 0.965894 0.051647 -0.038193
C78   C     C_R   0.028628 0.614529 0.447027 -0.028488
C79   C     C_R   0.384107 0.420126 0.051915 -0.031613
C80   C     C_R   0.867932 0.357601 0.908371 -0.084719
C81   C     C_R   0.486442 0.129824 0.591398 -0.083792
C82   C     C_R   0.643231 0.505359 0.909342 -0.083888
C83   C     C_R   0.871384 0.356442 0.591482 -0.097109
C84   C     C_R   0.492272 0.134972 0.908807 -0.086083
C85   C     C_R   0.643187 0.513502 0.591278 -0.083952
C86   C     C_R   0.459754 0.048081 0.385831 -0.081600
C87   C     C_R   0.443865 0.900160 0.179023 0.544462
C88   C     C_R   0.953530 0.412432 0.113528 -0.081772
C89   C     C_R   0.587474 0.539412 0.385670 -0.101028
C90   C     C_R   0.466889 0.051461 0.114253 -0.082090
C91   C     C_R   0.952468 0.411020 0.385865 -0.100374
C92   C     C_R   0.585103 0.532682 0.114951 -0.083445
C93   C     C_R   0.879044 0.372409 0.959989 0.059139
C94   C     C_R   0.491266 0.120039 0.539716 0.050031
C95   C     C_R   0.626942 0.500576 0.961045 0.061140
C96   C     C_R   0.881157 0.370842 0.539792 0.049907
C97   C     C_R   0.497341 0.123942 0.960478 0.059647
C98   C     C_R   0.098920 0.543159 0.320705 0.557835
C99   C     C_R   0.628328 0.508575 0.539594 0.050648
C100  C     C_R   0.484212 0.085534 0.435829 0.066895
C101  C     C_R   0.915867 0.399934 0.063647 0.072108
C102  C     C_R   0.600457 0.515258 0.435699 0.067162
C103  C     C_R   0.491725 0.088642 0.064232 0.071720
C104  C     C_R   0.915305 0.398011 0.435880 0.062754
C105  C     C_R   0.597423 0.507250 0.064963 0.071923
C106  C     C_R   0.848663 0.286179 0.042942 -0.062203
C107  C     C_R   0.436624 0.151262 0.456617 -0.063332
C108  C     C_R   0.709602 0.543977 0.045131 -0.109524
Cr1   Cr    Cr6+3 0.487630 0.241180 0.750000 1.083273
Cr2   Cr    Cr6+3 0.753550 0.512370 0.750000 1.086883
Cr3   Cr    Cr6+3 0.758820 0.246450 0.750000 1.076286
Cr4   Cr    Cr6+3 0.241180 0.487630 0.250000 1.046479
Cr5   Cr    Cr6+3 0.512370 0.753550 0.250000 1.049322
Cr6   Cr    Cr6+3 0.246450 0.758820 0.250000 1.059527
H1    H     H_    0.816256 0.207206 0.066054 0.125451
H2    H     H_    0.411930 0.223434 0.977672 0.134143
H3    H     H_    0.799542 0.184021 0.524201 0.145521
H4    H     H_    0.810587 0.585269 0.978490 0.133302
H5    H     H_    0.105785 0.712600 0.121286 0.215449
H6    H     H_    0.606518 0.895059 0.379189 0.172528
H7    H     H_    0.285534 0.403288 0.118867 0.205432
H8    H     H_    0.104947 0.712358 0.379058 0.179926
H9    H     H_    0.591538 0.877992 0.118870 0.219071
H10   H     H_    0.287513 0.393519 0.379456 0.169916
H11   H     H_    0.633554 0.989913 0.628863 0.182491
H12   H     H_    0.389711 0.182833 0.433508 0.125682
H13   H     H_    0.021762 0.645581 0.870571 0.200999
H14   H     H_    0.356098 0.366506 0.628962 0.201975
H15   H     H_    0.617603 0.974727 0.869996 0.199777
H16   H     H_    0.008281 0.645031 0.628605 0.180458
H17   H     H_    0.357619 0.375245 0.870301 0.200848
H18   H     H_    0.221922 0.027827 0.009193 0.390572
H19   H     H_    0.735157 0.814608 0.393869 0.331216
H20   H     H_    0.163391 0.483561 0.969437 0.351521
H21   H     H_    0.098605 0.887276 0.416231 0.333223
H22   H     H_    0.793256 0.771841 0.005596 0.396993
H23   H     H_    0.787584 0.584190 0.068847 0.115216
H24   H     H_    0.079909 0.263208 0.395445 0.330428
H25   H     H_    0.607953 0.790919 0.601932 0.331341
H26   H     H_    0.934899 0.831139 0.873439 0.391643
H27   H     H_    0.058493 0.248078 0.621686 0.392640
H28   H     H_    0.898640 0.068728 0.876715 0.392282
H29   H     H_    0.206305 0.820003 0.601672 0.331821
H30   H     H_    0.141628 0.100024 0.884001 0.392434
H31   H     H_    0.930510 0.334237 0.136054 0.133416
H32   H     H_    0.405025 0.070950 0.363177 0.133701
H33   H     H_    0.662763 0.581930 0.138410 0.130691
H34   H     H_    0.819359 0.205293 0.433776 0.123509
H35   H     H_    0.929716 0.333047 0.363246 0.112704
H36   H     H_    0.417957 0.080188 0.137652 0.130133
H37   H     H_    0.665129 0.593783 0.362864 0.110289
H38   H     H_    0.445329 0.177628 0.606858 0.162125
H39   H     H_    0.816087 0.268579 0.893014 0.174318
H40   H     H_    0.732168 0.554609 0.606677 0.163079
H41   H     H_    0.457742 0.189157 0.893753 0.161322
H42   H     H_    0.824346 0.267152 0.607021 0.154512
H43   H     H_    0.731720 0.539116 0.894321 0.169815
H44   H     H_    0.413932 0.201417 0.068036 0.110356
H45   H     H_    0.792331 0.609938 0.433204 0.113240
H46   H     H_    0.388226 0.202936 0.523903 0.139503
H47   H     H_    0.791172 0.185335 0.975824 0.149110
H48   H     H_    0.814337 0.611358 0.523574 0.141648
O1    O     O_R   0.460870 0.120930 0.805240 -0.479628
O2    O     O_R   0.120930 0.460870 0.194760 -0.492449
O3    O     O_R   0.539130 0.660060 0.305240 -0.508369
O4    O     O_R   0.339940 0.879070 0.194760 -0.484959
O5    O     O_R   0.498910 0.350470 0.801870 -0.502452
O6    O     O_R   0.851560 0.501090 0.698130 -0.500378
O7    O     O_R   0.649530 0.148440 0.801870 -0.496903
O8    O     O_R   0.498910 0.350470 0.698130 -0.501917
O9    O     O_R   0.851560 0.501090 0.801870 -0.499288
O10   O     O_R   0.649530 0.148440 0.698130 -0.501896
O11   O     O_R   0.350470 0.498910 0.301870 -0.508804
O12   O     O_R   0.660060 0.539130 0.694760 -0.475042
O13   O     O_R   0.501090 0.851560 0.198130 -0.511625
O14   O     O_R   0.148440 0.649530 0.301870 -0.505842
O15   O     O_R   0.350470 0.498910 0.198130 -0.510417
O16   O     O_R   0.501090 0.851560 0.301870 -0.510529
O17   O     O_R   0.148440 0.649530 0.198130 -0.508901
O18   O     O_3   0.666667 0.333333 0.750000 -0.301006
O19   O     O_3   0.333333 0.666667 0.250000 -0.247500
O20   O     O_2   0.118623 0.900681 0.082872 -0.293662
O21   O     O_2   0.271708 0.846859 0.069173 -0.283914
O22   O     O_3   0.238977 0.964038 0.999798 -0.430660
O23   O     O_R   0.879070 0.339940 0.805240 -0.477280
O24   O     O_2   0.620739 0.716326 0.506642 -0.222294
O25   O     O_2   0.523976 0.714168 0.429004 -0.291298
O26   O     O_3   0.756246 0.821145 0.429764 -0.502655
O27   O     O_2   0.073782 0.277470 0.062856 -0.239375
O28   O     O_2   0.199368 0.495779 0.067470 -0.307318
O29   O     O_3   0.103281 0.404475 0.982611 -0.450509
O30   O     O_2   0.281429 0.905987 0.506728 -0.224322
O31   O     O_2   0.284755 0.809968 0.429425 -0.261304
O32   O     O_3   0.180916 0.937385 0.428561 -0.498390
O33   O     O_2   0.761436 0.860656 0.082184 -0.291276
O34   O     O_R   0.460870 0.120930 0.694760 -0.476443
O35   O     O_2   0.554421 0.712816 0.063441 -0.285470
O36   O     O_3   0.711259 0.750885 0.996576 -0.434653
O37   O     O_2   0.099245 0.384034 0.507767 -0.196155
O38   O     O_2   0.191899 0.477831 0.429275 -0.290961
O39   O     O_3   0.062475 0.244847 0.431441 -0.497170
O40   O     O_2   0.843310 0.918375 0.531172 -0.082692
O41   O     O_2   0.836066 0.045703 0.596383 -0.276066
O42   O     O_3   0.693654 0.817691 0.604048 -0.444688
O43   O     O_2   0.028089 0.905020 0.966638 -0.180420
O44   O     O_2   0.154052 0.883552 0.903926 -0.241595
O45   O     O_R   0.660060 0.539130 0.805240 -0.475657
O46   O     O_3   0.924980 0.762075 0.893170 -0.543111
O47   O     O_2   0.071723 0.158192 0.532050 -0.113447
O48   O     O_2   0.207055 0.162050 0.596124 -0.247245
O49   O     O_3   0.130305 0.311217 0.604751 -0.500863
O50   O     O_2   0.868079 0.970608 0.967684 -0.157751
O51   O     O_2   0.725655 0.841579 0.903611 -0.239202
O52   O     O_3   0.831243 0.071324 0.892554 -0.548909
O53   O     O_2   0.080096 0.926936 0.530238 -0.102465
O54   O     O_2   0.951305 0.791496 0.595024 -0.223391
O55   O     O_3   0.178165 0.877951 0.604040 -0.445915
O56   O     O_R   0.879070 0.339940 0.694760 -0.490543
O57   O     O_2   0.073468 0.170750 0.967713 -0.126126
O58   O     O_2   0.138278 0.306922 0.895888 -0.274663
O59   O     O_3   0.213502 0.156238 0.903039 -0.525474
O60   O     O_R   0.120930 0.460870 0.305240 -0.509152
O61   O     O_R   0.539130 0.660060 0.194760 -0.486733
O62   O     O_R   0.339940 0.879070 0.305240 -0.492434
S1    S     S_3+6 0.175818 0.860610 0.044580 0.043037
S2    S     S_3+6 0.771960 0.955667 0.932651 0.049769
S3    S     S_3+6 0.061588 0.827678 0.564792 0.116217
S4    S     S_3+6 0.175279 0.245497 0.933438 0.046268
S5    S     S_3+6 0.631230 0.787902 0.461060 0.039959
S6    S     S_3+6 0.162258 0.387650 0.035333 0.039616
S7    S     S_3+6 0.211366 0.844608 0.460889 0.041540
S8    S     S_3+6 0.668441 0.810096 0.041820 0.044455
S9    S     S_3+6 0.157437 0.370890 0.461859 0.051244
S10   S     S_3+6 0.762062 0.935965 0.565478 0.114825
S11   S     S_3+6 0.040323 0.819136 0.933170 0.037531
S12   S     S_3+6 0.173173 0.238057 0.565804 0.103078

loop_
_geom_bond_atom_site_label_1
_geom_bond_atom_site_label_2
_ccdc_geom_bond_type
C3    C104  A    
O30   S7    D    
C12   O16   A    
C32   O7    A    
C4    C103  A    
C35   C74   A    
C45   H15   S    
C89   C102  A    
C45   C71   A    
C91   C104  A    
C90   H36   S    
C107  H12   S    
C58   C87   S    
O21   S1    D    
C15   C94   A    
C88   C101  A    
C80   H39   S    
C64   C83   A    
O24   S5    D    
C44   C64   A    
C7    H47   S    
O59   S4    S    
C30   C38   A    
C22   C101  A    
C46   C62   A    
Cr3   O56   S    
C18   C24   A    
C84   C97   A    
C46   H14   S    
C76   O11   A    
C28   C68   A    
C8    C99   A    
H25   O42   S    
O37   S9    D    
Cr5   O3    S    
C108  H23   S    
C30   S3    S    
C84   H41   S    
O36   S8    S    
C87   O4    A    
C66   C82   A    
C1    O5    A    
C61   C80   A    
C44   H16   S    
C32   O1    A    
C86   H32   S    
C101  C106  A    
C33   C36   A    
O49   S12   S    
O58   S4    D    
Cr1   O34   S    
Cr3   O10   S    
C59   C89   A    
C12   O62   A    
C21   C64   S    
O42   S10   S    
O51   S2    D    
Cr1   O5    S    
H19   O26   S    
Cr2   O6    S    
C4    H44   S    
O32   S7    S    
C6    C94   A    
C54   O23   A    
C20   C73   A    
C9    C97   A    
C6    C107  A    
C49   C75   A    
C44   C70   A    
Cr2   O45   S    
C51   C57   A    
C18   C97   A    
Cr2   O18   S    
O57   S4    D    
C48   H5    S    
C52   C79   A    
C86   C100  A    
H27   O49   S    
C14   C93   A    
H22   O36   S    
C33   C72   A    
C27   S11   S    
Cr5   O13   S    
C65   O34   A    
O50   S2    D    
Cr2   O9    S    
C31   C71   A    
Cr5   O16   S    
C28   C34   A    
C3    H34   S    
C59   C76   S    
C92   H33   S    
C19   C72   A    
C15   C20   A    
O22   S1    S    
C83   C96   A    
C7    C93   A    
H26   O46   S    
C26   C105  A    
C30   C70   A    
C43   O8    A    
Cr6   O4    S    
C41   C68   A    
C29   C69   A    
Cr2   O12   S    
C16   C26   A    
C48   C53   A    
Cr4   O2    S    
C62   C85   A    
Cr5   O19   S    
Cr3   O23   S    
O54   S3    D    
C50   H9    S    
C65   O10   A    
C25   C78   A    
C50   C58   A    
C48   C74   A    
O43   S11   D    
C42   C66   A    
O38   S9    D    
C47   C73   A    
C39   S6    S    
Cr1   O1    S    
C91   H35   S    
C82   H43   S    
Cr5   O61   S    
C83   H42   S    
C38   C78   A    
C27   C35   A    
C36   S9    S    
C13   O17   A    
C40   H13   S    
C37   C77   A    
C45   C63   A    
C42   C69   A    
C40   C61   A    
C31   C37   A    
O44   S11   D    
O28   S6    D    
C39   C79   A    
H20   O29   S    
C19   C23   A    
C13   C53   S    
C85   C99   A    
C36   C75   A    
C41   H11   S    
O40   S10   D    
C98   O14   A    
C52   H7    S    
C24   C77   A    
O39   S9    S    
C20   C100  A    
C10   C96   A    
C14   C67   A    
C29   C39   A    
C1    C66   S    
C7    C106  A    
C76   O3    A    
C25   C104  A    
C17   C96   A    
C105  C108  A    
C88   H31   S    
C21   O6    A    
O46   S11   S    
H28   O52   S    
H30   O59   S    
C42   H17   S    
C33   S12   S    
O41   S10   D    
C47   H6    S    
C2    O15   A    
O55   S3    S    
C60   C65   S    
O48   S12   D    
C21   O56   A    
Cr3   O18   S    
C16   C95   A    
C31   S2    S    
C34   S5    S    
C22   C74   A    
O26   S5    S    
Cr6   O19   S    
C50   C77   A    
C11   C108  A    
Cr1   O8    S    
C40   C67   A    
C13   O2    A    
C47   C55   A    
O35   S8    D    
C11   C95   A    
C18   C71   A    
C23   C102  A    
C5    C102  A    
C100  C107  A    
C19   C99   A    
C82   C95   A    
C57   C91   A    
C35   S1    S    
C9    H2    S    
Cr4   O60   S    
C54   O9    A    
C1    O45   A    
C16   C69   A    
C41   C60   A    
C23   C75   A    
C37   S8    S    
C6    H46   S    
O20   S1    D    
Cr4   O19   S    
C54   C61   S    
C32   C63   S    
C81   H38   S    
C87   O13   A    
C63   C84   A    
C15   C68   A    
C26   C79   A    
C49   C59   A    
C106  H1    S    
C58   C90   A    
C24   C103  A    
C17   C25   A    
C14   C22   A    
C55   C86   A    
O27   S6    D    
C80   C93   A    
C51   C78   A    
C10   H3    S    
C2    C56   S    
H18   O22   S    
H21   O32   S    
C81   C94   A    
C49   H10   S    
Cr1   O18   S    
C38   S7    S    
O29   S6    S    
C57   C98   S    
C98   O60   A    
Cr6   O14   S    
C2    O61   A    
C43   O12   A    
C60   C81   A    
O33   S8    D    
Cr4   O11   S    
C53   C88   A    
O53   S3    D    
C85   H40   S    
O52   S2    S    
Cr3   O7    S    
C90   C103  A    
O47   S12   D    
C12   C55   S    
C27   C67   A    
C34   C73   A    
C29   S4    S    
O25   S5    D    
C92   C105  A    
C17   C70   A    
C5    H45   S    
Cr6   O17   S    
C89   H37   S    
H24   O39   S    
C3    C10   A    
C51   H8    S    
C5    C8    A    
C8    H48   S    
C46   C72   A    
O31   S7    D    
Cr6   O62   S    
C4    C9    A    
C56   C92   A    
H29   O55   S    
C11   H4    S    
C52   C56   A    
C43   C62   S    
C28   S10   S    
Cr4   O15   S    
