data_mof_unit_42137.cif
_audit_creation_date              2012-12-10T16:58:23-0500
_audit_creation_method            fapswitch 2.2
_symmetry_space_group_name_H-M    P1
_symmetry_Int_Tables_number       1
_space_group_crystal_system       triclinic
_cell_length_a                    7.774441
_cell_length_b                    8.752059
_cell_length_c                    23.139466
_cell_angle_alpha                 92.879662
_cell_angle_beta                  83.55309
_cell_angle_gamma                 95.112599
_cell_volume                      1556.99519291

loop_
_atom_site_label
_atom_site_type_symbol
_atom_type_description
_atom_site_fract_x
_atom_site_fract_y
_atom_site_fract_z
_atom_type_partial_charge
C1    C     C_R   0.546840 0.795241 0.498730 0.948336
C2    C     C_R   0.344076 0.348424 0.313076 0.053313
C3    C     C_R   0.573821 0.553921 0.769652 0.194266
C4    C     C_R   0.306741 0.335034 0.255080 0.168908
C5    C     C_R   0.420664 0.472801 0.795587 0.073707
C6    C     C_R   0.425675 0.403443 0.211339 0.118252
C7    C     C_2   0.570514 0.959197 0.498264 -0.359225
C8    C     C_2   0.429619 0.041041 0.503591 -0.361909
C9    C     C_R   0.497464 0.498259 0.610963 0.976369
C10   C     C_R   0.498966 0.490502 0.389208 1.001152
C11   C     C_R   0.324073 0.289133 0.121237 0.605402
C12   C     C_R   0.453185 0.204871 0.502074 0.960832
C13   C     C_R   0.383094 0.603039 0.891386 0.604230
C14   C     C_R   0.380854 0.559680 0.132322 0.571004
C15   C     C_R   0.355154 0.328997 0.883562 0.553644
C16   C     C_R   0.359378 0.576369 0.073621 -0.115129
C17   C     C_R   0.306308 0.322453 0.943271 -0.114795
C18   C     C_R   0.331273 0.445129 0.038241 -0.139942
C19   C     C_R   0.335822 0.456037 0.977865 -0.154733
C20   C     C_R   0.289753 0.303429 0.063577 -0.154231
C21   C     C_R   0.369682 0.599354 0.952409 -0.146955
C22   C     C_R   0.358554 0.720213 0.049884 0.088654
C23   C     C_R   0.301255 0.395049 0.760095 0.106900
C24   C     C_R   0.222969 0.190053 0.969835 0.222447
C25   C     C_R   0.378810 0.732869 0.989015 0.567976
C26   C     C_R   0.209941 0.184565 0.030601 0.551744
C27   C     C_3   0.132397 0.826304 0.114688 -0.461006
C28   C     C_3   0.957471 0.110496 0.928522 -0.724487
C29   C     C_3   0.098762 0.160290 0.767068 -0.525521
C30   C     C_3   0.770315 0.436244 0.132552 -0.772003
C31   C     C_3   0.726746 0.800074 0.666429 -0.755628
C32   C     C_3   0.294772 0.118409 0.367434 -0.740972
C33   C     C_3   0.817630 0.538607 0.824038 -0.798425
C34   C     C_R   0.586805 0.476783 0.225679 0.138044
C35   C     C_3   0.005629 0.357146 0.244974 -0.701217
C36   C     C_R   0.333777 0.401997 0.699968 0.513583
C37   C     C_R   0.610997 0.506326 0.284457 0.465040
C38   C     C_R   0.482628 0.484893 0.674015 -0.274194
C39   C     C_R   0.487223 0.446974 0.327898 -0.257992
C40   C     C_R   0.604141 0.561318 0.708397 0.051337
F1    F     F_    0.405865 0.874079 0.966377 -0.660637
F2    F     F_    0.094290 0.080124 0.057451 -0.702446
F3    F     F_    0.215278 0.330559 0.666386 -0.652425
F4    F     F_    0.750225 0.598860 0.299366 -0.674994
H1    H     H_    0.702863 0.012228 0.493270 0.182807
H2    H     H_    0.874694 0.114625 0.970902 0.269210
H3    H     H_    0.897991 0.020478 0.899630 0.252467
H4    H     H_    0.961366 0.222855 0.908036 0.218925
H5    H     H_    0.093154 0.352427 0.826059 0.209705
H6    H     H_    0.079021 0.088674 0.805828 0.234899
H7    H     H_    0.203895 0.113626 0.736504 0.253777
H8    H     H_    0.976675 0.150491 0.745986 0.228805
H9    H     H_    0.809800 0.617360 0.194323 0.275601
H10   H     H_    0.734399 0.480529 0.091835 0.249411
H11   H     H_    0.710719 0.316787 0.137671 0.263200
H12   H     H_    0.297282 0.988009 0.508646 0.182129
H13   H     H_    0.913698 0.433283 0.128214 0.232401
H14   H     H_    0.865774 0.641488 0.701157 0.246278
H15   H     H_    0.692535 0.871436 0.706440 0.241197
H16   H     H_    0.621204 0.798024 0.637731 0.235017
H17   H     H_    0.847549 0.853520 0.642746 0.238900
H18   H     H_    0.105080 0.261229 0.354239 0.227662
H19   H     H_    0.285685 0.040237 0.328348 0.251877
H20   H     H_    0.211613 0.066113 0.404688 0.234383
H21   H     H_    0.431382 0.131779 0.377985 0.238056
H22   H     H_    0.747218 0.737518 0.791428 0.248166
H23   H     H_    0.013322 0.380249 0.456848 0.195738
H24   H     H_    0.898348 0.606212 0.854538 0.246204
H25   H     H_    0.902798 0.500763 0.785344 0.252301
H26   H     H_    0.751492 0.436868 0.846608 0.258145
H27   H     H_    0.112189 0.155868 0.260256 0.249202
H28   H     H_    0.890087 0.291911 0.229046 0.247585
H29   H     H_    0.042903 0.458999 0.218180 0.251332
H30   H     H_    0.971601 0.396201 0.290853 0.263924
H31   H     H_    0.986565 0.619408 0.543329 0.201480
H32   H     H_    0.345885 0.950489 0.068843 0.309097
H33   H     H_    0.039525 0.812103 0.081240 0.230904
H34   H     H_    0.102082 0.925731 0.144424 0.292705
H35   H     H_    0.110427 0.723549 0.141489 0.185004
H36   H     H_    0.128392 0.966064 0.952778 0.301441
N1    N     N_R   0.375205 0.416510 0.153845 -0.322808
N2    N     N_2   0.236610 0.266076 0.357198 -0.293251
N3    N     N_2   0.692300 0.632844 0.805852 -0.257311
N4    N     N_2   0.146537 0.259223 0.240830 -0.268095
N5    N     N_R   0.387270 0.468449 0.858114 -0.343248
N6    N     N_2   0.950330 0.457950 0.484560 -0.166136
N7    N     N_2   0.049670 0.542050 0.515440 -0.157240
N8    N     N_2   0.310659 0.846419 0.087028 -0.217139
N9    N     N_2   0.130751 0.074385 0.937047 -0.224023
N10   N     N_2   0.140932 0.319671 0.784454 -0.290518
N11   N     N_2   0.714546 0.537485 0.181413 -0.262930
N12   N     N_2   0.754325 0.646047 0.681269 -0.279674
O1    O     O_R   0.389250 0.738570 0.503790 -0.623348
O2    O     O_2   0.391564 0.738662 0.865534 -0.473481
O3    O     O_2   0.413900 0.684862 0.167196 -0.511166
O4    O     O_2   0.374343 0.197453 0.851471 -0.499968
O5    O     O_R   0.610750 0.261430 0.496210 -0.628406
O6    O     O_R   0.678390 0.711620 0.493890 -0.622945
O7    O     O_R   0.321610 0.288380 0.506110 -0.602675
O8    O     O_R   0.355400 0.513520 0.588790 -0.571097
O9    O     O_R   0.644600 0.486480 0.411210 -0.587974
O10   O     O_R   0.644550 0.486570 0.578900 -0.604760
O11   O     O_R   0.355450 0.513430 0.421100 -0.614060
O12   O     O_2   0.317458 0.149547 0.143279 -0.542130
Zn1   Zn    Zn3+2 0.306930 0.518000 0.506610 0.996749
Zn2   Zn    Zn3+2 0.693070 0.482000 0.493390 0.981425

loop_
_geom_bond_atom_site_label_1
_geom_bond_atom_site_label_2
_ccdc_geom_bond_type
C35   H30   S    
C34   C37   A    
C31   H17   S    
C5    C23   A    
H5    N10   S    
C27   H34   S    
C24   N9    S    
C8    H12   S    
C7    C8    D    
C28   H3    S    
C11   N1    A    
C30   H10   S    
C28   H2    S    
O8    Zn1   S    
C7    H1    S    
C10   O11   A    
C19   C21   A    
C24   C26   A    
C27   H35   S    
C30   H13   S    
C18   C19   A    
C31   H15   S    
H36   N9    S    
C34   N11   S    
C12   O7    A    
O1    Zn1   S    
H22   N3    S    
C2    C39   A    
C35   H29   S    
C9    O10   A    
C22   C25   A    
C4    N4    S    
H9    N11   S    
C28   N9    S    
C22   N8    S    
H32   N8    S    
C33   H25   S    
C15   N5    A    
C5    N5    S    
H18   N2    S    
C6    N1    S    
N6    Zn2   S    
C29   N10   S    
C29   H6    S    
O7    Zn1   S    
C11   C20   A    
C17   C24   A    
C32   H20   S    
C4    C6    A    
C25   F1    S    
C15   O4    S    
N6    N7    D    
C27   H33   S    
C6    C34   A    
C10   C39   S    
C31   H16   S    
C2    C4    A    
N7    Zn1   S    
C8    C12   S    
C23   N10   S    
C13   C21   A    
O11   Zn1   S    
C16   C18   A    
C40   N12   S    
C33   N3    S    
C12   O5    A    
C11   O12   S    
C33   H26   S    
O5    Zn2   S    
H31   N7    S    
C35   H28   S    
C31   N12   S    
C9    O8    A    
C3    N3    S    
C14   C16   A    
C2    N2    S    
C14   O3    S    
C26   F2    S    
H27   N4    S    
C29   H7    S    
O9    Zn2   S    
C15   C17   A    
C21   C25   A    
C28   H4    S    
H23   N6    S    
C16   C22   A    
C1    C7    S    
C10   O9    A    
C32   H19   S    
C30   N11   S    
C3    C5    A    
C1    O6    A    
C3    C40   A    
C35   N4    S    
C32   N2    S    
C30   H11   S    
O6    Zn2   S    
C13   O2    S    
C37   F4    S    
C36   C38   A    
C37   C39   A    
C38   C40   A    
C20   C26   A    
C9    C38   S    
C17   C19   A    
O10   Zn2   S    
C18   C20   A    
C27   N8    S    
C1    O1    A    
C23   C36   A    
C13   N5    A    
C36   F3    S    
C14   N1    A    
H14   N12   S    
C33   H24   S    
C32   H21   S    
C29   H8    S    
