data_mof_unit_9934.cif
_audit_creation_date              2012-12-11T14:13:06-0500
_audit_creation_method            fapswitch 2.2
_symmetry_space_group_name_H-M    P1
_symmetry_Int_Tables_number       1
_space_group_crystal_system       triclinic
_cell_length_a                    11.833906
_cell_length_b                    18.124819
_cell_length_c                    10.194548
_cell_angle_alpha                 90.02218
_cell_angle_beta                  111.727476
_cell_angle_gamma                 90.470425
_cell_volume                      2031.17304256

loop_
_atom_site_label
_atom_site_type_symbol
_atom_type_description
_atom_site_fract_x
_atom_site_fract_y
_atom_site_fract_z
_atom_type_partial_charge
C1    C     C_R   0.117871 0.636069 0.153967 0.544479
C2    C     C_R   0.929634 0.353513 0.863340 0.521701
C3    C     C_R   0.926391 0.146941 0.860124 0.522220
C4    C     C_R   0.074488 0.854490 0.138242 0.558730
C5    C     C_R   0.393683 0.453542 0.464893 -0.058652
C6    C     C_R   0.600337 0.539674 0.502815 -0.084982
C7    C     C_R   0.596476 0.963471 0.503767 -0.058142
C8    C     C_R   0.389501 0.041721 0.490310 -0.069068
C9    C     C_2   0.406074 0.932462 0.938201 0.306128
C10   C     C_2   0.624788 0.056169 0.005473 0.264200
C11   C     C_2   0.592907 0.431762 0.061751 0.292315
C12   C     C_2   0.371359 0.553562 0.009472 0.215544
C13   C     C_2   0.495759 0.945196 0.890441 -0.102590
C14   C     C_2   0.544725 0.020387 0.890224 -0.131260
C15   C     C_2   0.504232 0.446606 0.110311 -0.043999
C16   C     C_2   0.466547 0.524087 0.115118 -0.075994
C17   C     C_2   0.003206 0.921953 0.095348 0.239068
C18   C     C_2   0.990731 0.077700 0.889867 0.258866
C19   C     C_2   0.995599 0.425022 0.905962 0.263138
C20   C     C_2   0.061173 0.562532 0.124530 0.297634
C21   C     C_2   0.991066 0.952257 0.969535 -0.112671
C22   C     C_2   0.931755 0.022011 0.923588 -0.103864
C23   C     C_2   0.077411 0.432900 0.040431 -0.079162
C24   C     C_2   0.127668 0.504899 0.108732 -0.121061
C25   C     C_R   0.467556 0.645936 0.437876 0.521354
C26   C     C_R   0.530192 0.351581 0.555269 0.533959
C27   C     C_R   0.528008 0.148008 0.556463 0.528230
C28   C     C_R   0.469843 0.852828 0.442927 0.545273
C29   C     C_R   0.352481 0.636226 0.010645 0.501306
C30   C     C_R   0.622541 0.355295 0.036847 0.571004
C31   C     C_R   0.645842 0.136185 0.991283 0.563175
C32   C     C_R   0.376892 0.855858 0.964559 0.559065
C33   C     C_R   0.501467 0.420312 0.472694 -0.015324
C34   C     C_R   0.493387 0.572589 0.502185 -0.053646
C35   C     C_R   0.495800 0.925374 0.513756 -0.018506
C36   C     C_R   0.490714 0.078046 0.478019 -0.057790
C37   C     C_R   0.288878 0.410015 0.434274 -0.083839
C38   C     C_R   0.705877 0.582583 0.529672 -0.092354
C39   C     C_R   0.708654 0.928238 0.534380 -0.095922
C40   C     C_R   0.288191 0.082961 0.486939 -0.108699
C41   C     C_R   0.191410 0.435554 0.463470 -0.024696
C42   C     C_R   0.802935 0.556236 0.500020 -0.006464
C43   C     C_R   0.804062 0.963803 0.510694 -0.049552
C44   C     C_R   0.216531 0.058907 0.559666 -0.037917
C45   C     C_R   0.193129 0.507961 0.510166 -0.067640
C46   C     C_R   0.797788 0.484287 0.449404 -0.081782
C47   C     C_R   0.786281 0.034271 0.450687 -0.000216
C48   C     C_R   0.230325 0.987016 0.610861 -0.081575
C49   C     C_R   0.295108 0.554120 0.537885 0.296314
C50   C     C_R   0.697510 0.436912 0.433853 0.295085
C51   C     C_R   0.674511 0.069818 0.415331 0.355091
C52   C     C_R   0.310889 0.937716 0.582854 0.277229
C53   C     C_R   0.394741 0.528097 0.503557 -0.023372
C54   C     C_R   0.599509 0.464761 0.468144 0.001896
C55   C     C_R   0.583934 0.037198 0.459221 -0.027277
C56   C     C_R   0.397566 0.966475 0.527238 0.010179
Cr1   Cr    Cr6+3 0.187610 0.750000 0.979860 0.976087
Cr2   Cr    Cr6+3 0.812390 0.250000 0.020140 0.970325
Cr3   Cr    Cr6+3 0.245810 0.750000 0.341640 1.023749
Cr4   Cr    Cr6+3 0.754190 0.250000 0.658360 1.020539
Cr5   Cr    Cr6+3 0.485760 0.750000 0.219910 0.983698
Cr6   Cr    Cr6+3 0.514240 0.250000 0.780090 0.982946
H1    H     H_    0.114614 0.528163 0.527043 0.092367
H2    H     H_    0.871267 0.466633 0.420351 0.071614
H3    H     H_    0.858136 0.061256 0.426823 0.135202
H4    H     H_    0.177849 0.968710 0.672129 0.153819
H5    H     H_    0.286921 0.353635 0.397413 0.120294
H6    H     H_    0.711718 0.637782 0.573041 0.133592
H7    H     H_    0.722176 0.872895 0.577570 0.133858
H8    H     H_    0.274354 0.138146 0.442824 0.129137
H9    H     H_    0.507317 0.049676 0.791042 0.135972
H10   H     H_    0.539204 0.899494 0.859069 0.086575
H11   H     H_    0.527045 0.558528 0.199169 0.143236
H12   H     H_    0.456860 0.402405 0.141309 0.100103
H13   H     H_    0.843327 0.030281 0.931075 0.112058
H14   H     H_    0.036497 0.929541 0.903747 0.154199
H15   H     H_    0.225853 0.510854 0.148159 0.060750
H16   H     H_    0.111814 0.383954 0.103691 0.073007
O1    O     O_R   0.267710 0.668200 0.902110 -0.546188
O2    O     O_R   0.732290 0.331800 0.097890 -0.533054
O3    O     O_R   0.732290 0.168200 0.097890 -0.466053
O4    O     O_R   0.267710 0.831800 0.902110 -0.517254
O5    O     O_R   0.099480 0.674460 0.038850 -0.499792
O6    O     O_R   0.900520 0.325540 0.961150 -0.533382
O7    O     O_R   0.900520 0.174460 0.961150 -0.542566
O8    O     O_R   0.099480 0.825540 0.038850 -0.540113
O9    O     O_R   0.116720 0.669210 0.267660 -0.489779
O10   O     O_R   0.883280 0.330790 0.732340 -0.530967
O11   O     O_R   0.883280 0.169210 0.732340 -0.521410
O12   O     O_R   0.116720 0.830790 0.267660 -0.518826
O13   O     O_R   0.366710 0.675440 0.427590 -0.458948
O14   O     O_R   0.633290 0.324560 0.572410 -0.453995
O15   O     O_R   0.633290 0.175440 0.572410 -0.454029
O16   O     O_R   0.366710 0.824560 0.427590 -0.455560
O17   O     O_R   0.534870 0.669390 0.371760 -0.533271
O18   O     O_R   0.465130 0.330610 0.628240 -0.524135
O19   O     O_R   0.465130 0.169390 0.628240 -0.531813
O20   O     O_R   0.534870 0.830610 0.371760 -0.529847
O21   O     O_R   0.453080 0.674480 0.075160 -0.505772
O22   O     O_R   0.546920 0.325520 0.924840 -0.513026
O23   O     O_R   0.546920 0.174480 0.924840 -0.538178
O24   O     O_R   0.453080 0.825520 0.075160 -0.530982
O25   O     O_3   0.306390 0.750000 0.180470 -0.300144
O26   O     O_3   0.693610 0.250000 0.819530 -0.280809
C57   C     C_3   0.091868 0.382582 0.455611 -0.428477
H17   H     H_    0.035074 0.372134 0.343213 0.111035
H18   H     H_    0.130973 0.329455 0.505710 0.138712
H19   H     H_    0.037405 0.403852 0.514875 0.119365
C58   C     C_3   0.910351 0.605853 0.521483 -0.382797
H20   H     H_    0.988507 0.585214 0.611322 0.140570
H21   H     H_    0.931831 0.608170 0.424698 0.143472
H22   H     H_    0.893406 0.663246 0.547369 0.125335
C59   C     C_3   0.920819 0.923661 0.540299 -0.422848
H23   H     H_    0.965405 0.913543 0.655160 0.129625
H24   H     H_    0.902476 0.869941 0.483504 0.133265
H25   H     H_    0.983208 0.955770 0.503834 0.129787
C60   C     C_3   0.127639 0.111050 0.582543 -0.388186
H26   H     H_    0.069313 0.136292 0.481150 0.095926
H27   H     H_    0.067738 0.082485 0.628348 0.183254
H28   H     H_    0.178560 0.156172 0.653988 0.149735
O27   O     O_3   0.288909 0.623697 0.593232 -0.570528
C61   C     C_3   0.394380 0.641994 0.711803 -0.067076
H29   H     H_    0.415297 0.599040 0.792907 0.144152
H30   H     H_    0.378456 0.695079 0.755357 0.188686
H31   H     H_    0.476352 0.653356 0.688507 0.092009
O28   O     O_3   0.682235 0.368417 0.366484 -0.584033
C62   C     C_3   0.792798 0.331475 0.391686 -0.061936
H32   H     H_    0.853703 0.332752 0.502435 0.149947
H33   H     H_    0.842597 0.356002 0.330192 0.107027
H34   H     H_    0.772743 0.272907 0.359582 0.185700
O29   O     O_3   0.663990 0.138444 0.349439 -0.536918
C63   C     C_3   0.546347 0.151325 0.247559 -0.058566
H35   H     H_    0.505351 0.101441 0.184071 0.143582
H36   H     H_    0.553457 0.195134 0.175589 0.173617
H37   H     H_    0.484401 0.175057 0.294721 0.077801
O30   O     O_3   0.317661 0.865542 0.631190 -0.577314
C64   C     C_3   0.200187 0.832108 0.584948 -0.060983
H38   H     H_    0.132518 0.858641 0.491533 0.130070
H39   H     H_    0.159831 0.835214 0.666028 0.121606
H40   H     H_    0.207498 0.773121 0.560722 0.184119
O31   O     O_3   0.681930 0.025812 0.139919 -0.557939
C65   C     C_3   0.703936 0.949377 0.142268 -0.081412
H41   H     H_    0.780655 0.936013 0.240335 0.194774
H42   H     H_    0.728846 0.930699 0.052622 0.133940
H43   H     H_    0.626415 0.918173 0.150707 0.138048
O32   O     O_3   0.351014 0.992269 0.975737 -0.564785
C66   C     C_3   0.339588 0.980077 0.107299 -0.085919
H44   H     H_    0.313026 0.032239 0.144300 0.119666
H45   H     H_    0.427388 0.962943 0.189397 0.119367
H46   H     H_    0.267097 0.938876 0.097310 0.140524
O33   O     O_3   0.303099 0.504386 0.903806 -0.611878
C67   C     C_3   0.187900 0.530300 0.820512 -0.094754
H47   H     H_    0.194603 0.570958 0.744533 0.179962
H48   H     H_    0.140331 0.556141 0.883299 0.185611
H49   H     H_    0.133625 0.483121 0.759453 0.169340
O34   O     O_3   0.636101 0.488669 0.001968 -0.607634
C68   C     C_3   0.576968 0.484774 0.853519 -0.117913
H50   H     H_    0.476696 0.478506 0.819352 0.181727
H51   H     H_    0.611626 0.438083 0.809419 0.123338
H52   H     H_    0.596442 0.536329 0.807263 0.107644
O35   O     O_3   0.107754 0.068934 0.890025 -0.575125
C69   C     C_3   0.177334 0.134451 0.935111 -0.113204
H53   H     H_    0.139309 0.180845 0.861055 0.105009
H54   H     H_    0.270469 0.125107 0.937380 0.186036
H55   H     H_    0.184993 0.150000 0.043739 0.085464
O36   O     O_3   0.958090 0.956067 0.185759 -0.603607
C70   C     C_3   0.041050 0.011091 0.259393 -0.119111
H56   H     H_    0.047025 0.056885 0.189929 0.134790
H57   H     H_    0.132388 0.987135 0.314564 0.126150
H58   H     H_    0.007415 0.035139 0.336889 0.146248
O37   O     O_3   0.936857 0.558651 0.089862 -0.554948
C71   C     C_3   0.910616 0.513460 0.187308 -0.103806
H59   H     H_    0.980621 0.517113 0.294980 0.089979
H60   H     H_    0.898463 0.455173 0.151230 0.151473
H61   H     H_    0.824624 0.532558 0.194753 0.195588
O38   O     O_3   0.951538 0.487281 0.825736 -0.606096
C72   C     C_3   0.829960 0.497241 0.811330 -0.063802
H62   H     H_    0.811074 0.478761 0.904698 0.184050
H63   H     H_    0.769818 0.465187 0.720134 0.119821
H64   H     H_    0.808831 0.556787 0.798403 0.166240

loop_
_geom_bond_atom_site_label_1
_geom_bond_atom_site_label_2
_ccdc_geom_bond_type
C1    O9    A    
O37   C71   S    
C68   H50   S    
C5    C37   A    
C12   C29   S    
C3    O7    A    
C14   H9    S    
Cr1   O1    S    
C2    O6    A    
Cr5   O20   S    
C12   O33   S    
C7    C55   A    
C8    C56   A    
O35   C69   S    
Cr4   O10   S    
C70   H57   S    
Cr4   O11   S    
C64   H39   S    
C21   H14   S    
C50   C54   A    
C41   C57   S    
O28   C62   S    
C31   O23   A    
C5    C53   A    
O34   C68   S    
Cr5   O25   S    
C42   C58   S    
O32   C66   S    
Cr6   O18   S    
C17   O36   S    
C60   H27   S    
C42   C46   A    
C18   O35   S    
C4    O8    A    
Cr1   O4    S    
C26   O14   A    
C15   C16   S    
C69   H55   S    
C30   O22   A    
C9    O32   S    
Cr1   O8    S    
C3    C18   S    
C28   O16   A    
C8    C36   A    
C9    C13   D    
C19   O38   S    
C9    C32   S    
C11   C15   D    
C10   C31   S    
C66   H44   S    
C11   C30   S    
C63   H35   S    
C72   H63   S    
C5    C33   A    
C23   C24   S    
C6    C38   A    
C2    O10   A    
C50   O28   S    
Cr3   O16   S    
C40   C44   A    
Cr6   O26   S    
C71   H61   S    
Cr2   O2    S    
C25   C34   S    
Cr6   O23   S    
C30   O2    A    
Cr4   O15   S    
C35   C56   A    
C68   H51   S    
C21   C22   S    
C65   H43   S    
Cr5   O21   S    
C22   H13   S    
C6    C54   A    
C57   H19   S    
C71   H60   S    
C70   H58   S    
C4    O12   A    
Cr4   O14   S    
C26   O18   A    
Cr1   O25   S    
C64   H40   S    
C25   O13   A    
C29   O21   A    
C16   H11   S    
C12   C16   D    
C66   H46   S    
C28   C35   S    
C10   C14   D    
C60   H28   S    
C70   H56   S    
C51   O29   S    
C39   C43   A    
C51   C55   A    
C45   H1    S    
C69   H53   S    
C17   C21   D    
C6    C34   A    
C46   H2    S    
Cr3   O12   S    
C19   C23   D    
C62   H33   S    
Cr2   O6    S    
Cr6   O19   S    
C57   H18   S    
C10   O31   S    
C26   C33   S    
C29   O1    A    
C67   H49   S    
C45   C49   A    
O33   C67   S    
C72   H64   S    
C49   O27   S    
C20   O37   S    
Cr1   O5    S    
C39   H7    S    
Cr3   O13   S    
O27   C61   S    
C40   H8    S    
C11   O34   S    
Cr6   O22   S    
C4    C17   S    
O38   C72   S    
C38   H6    S    
C25   O17   A    
C68   H52   S    
O31   C65   S    
O36   C70   S    
C52   O30   S    
C32   O24   A    
C58   H22   S    
Cr2   O26   S    
C61   H30   S    
O29   C63   S    
Cr2   O7    S    
C71   H59   S    
C59   H23   S    
C64   H38   S    
C28   O20   A    
C33   C54   A    
C27   O19   A    
C1    C20   S    
C7    C39   A    
C66   H45   S    
C2    C19   S    
C18   C22   D    
C7    C35   A    
C67   H48   S    
O30   C64   S    
C47   C51   A    
Cr5   O17   S    
C38   C42   A    
C13   H10   S    
C27   C36   S    
C1    O5    A    
C32   O4    A    
C57   H17   S    
C46   C50   A    
C31   O3    A    
C3    O11   A    
Cr3   O25   S    
C59   H25   S    
C61   H31   S    
C58   H21   S    
Cr5   O24   S    
C62   H34   S    
C69   H54   S    
Cr4   O26   S    
C60   H26   S    
C43   C59   S    
C52   C56   A    
C44   C60   S    
Cr2   O3    S    
C63   H37   S    
C49   C53   A    
C37   H5    S    
C65   H42   S    
C23   H16   S    
C37   C41   A    
C20   C24   D    
Cr3   O9    S    
C27   O15   A    
C44   C48   A    
C24   H15   S    
C48   C52   A    
C15   H12   S    
C67   H47   S    
C34   C53   A    
C63   H36   S    
C72   H62   S    
C58   H20   S    
C36   C55   A    
C41   C45   A    
C65   H41   S    
C8    C40   A    
C48   H4    S    
C61   H29   S    
C13   C14   S    
C43   C47   A    
C47   H3    S    
C62   H32   S    
C59   H24   S    
