data_mof_unit_24132.cif
_audit_creation_date              2012-12-10T16:50:15-0500
_audit_creation_method            fapswitch 2.2
_symmetry_space_group_name_H-M    P1
_symmetry_Int_Tables_number       1
_space_group_crystal_system       triclinic
_cell_length_a                    23.487648
_cell_length_b                    8.669851
_cell_length_c                    7.465252
_cell_angle_alpha                 103.332982
_cell_angle_beta                  93.927488
_cell_angle_gamma                 92.460068
_cell_volume                      1473.03165318

loop_
_atom_site_label
_atom_site_type_symbol
_atom_type_description
_atom_site_fract_x
_atom_site_fract_y
_atom_site_fract_z
_atom_type_partial_charge
C1    C     C_R   0.498278 0.199640 0.452972 0.886257
C2    C     C_R   0.501735 0.800362 0.547027 0.887940
C3    C     C_R   0.244336 0.473732 0.677687 0.200430
C4    C     C_R   0.755505 0.432297 0.325364 0.185956
C5    C     C_R   0.303807 0.476193 0.669320 -0.221499
C6    C     C_R   0.695861 0.428698 0.332121 -0.215895
C7    C     C_R   0.328651 0.497337 0.510131 -0.064774
C8    C     C_R   0.671136 0.506140 0.491490 -0.064585
C9    C     C_R   0.293500 0.517252 0.358610 -0.213877
C10   C     C_R   0.706139 0.590005 0.645096 -0.223051
C11   C     C_R   0.234517 0.517557 0.367010 -0.134621
C12   C     C_R   0.765200 0.594071 0.640983 -0.130679
C13   C     C_R   0.209696 0.495446 0.524623 0.321300
C14   C     C_R   0.790587 0.512954 0.484710 0.294953
C15   C     C_2   0.497469 0.031389 0.426821 -0.363037
C16   C     C_2   0.502560 0.968617 0.573179 -0.363636
C17   C     C_R   0.391054 0.499130 0.502858 0.805503
C18   C     C_R   0.608855 0.501317 0.497303 0.801607
C19   C     C_R   0.884410 0.649923 0.530536 0.612559
C20   C     C_R   0.116848 0.356910 0.473764 0.603445
C21   C     C_R   0.876772 0.368565 0.476661 0.566165
C22   C     C_R   0.124781 0.639215 0.577561 0.592867
C23   C     C_R   0.936095 0.360912 0.461441 -0.101362
C24   C     C_R   0.065002 0.645790 0.584460 -0.105852
C25   C     C_R   0.970507 0.504600 0.515301 -0.095441
C26   C     C_R   0.030700 0.501648 0.521107 -0.100163
C27   C     C_R   0.944387 0.651312 0.562949 -0.106976
C28   C     C_R   0.056506 0.354764 0.462436 -0.105987
C29   C     C_R   0.961463 0.216366 0.391429 0.287999
C30   C     C_R   0.038551 0.790008 0.653158 0.295729
C31   C     C_R   0.021305 0.212831 0.391577 0.288148
C32   C     C_R   0.978556 0.792595 0.641363 0.284139
Cu1   Cu    Cu3+1 0.506340 0.517380 0.684380 0.952675
Cu2   Cu    Cu3+1 0.493660 0.482620 0.315620 0.952712
H1    H     H_    0.330623 0.461358 0.787505 0.155387
H2    H     H_    0.668610 0.363613 0.213409 0.159133
H3    H     H_    0.311648 0.534765 0.234786 0.162319
H4    H     H_    0.687837 0.652493 0.768707 0.166474
H5    H     H_    0.207505 0.535978 0.251602 0.152269
H6    H     H_    0.791679 0.658198 0.761833 0.172915
H7    H     H_    0.492686 0.958934 0.286189 0.179822
H8    H     H_    0.507345 0.041072 0.713812 0.179117
H9    H     H_    0.454774 0.379219 0.949164 0.223172
H10   H     H_    0.545211 0.620818 0.050841 0.226773
N1    N     N_R   0.851988 0.510127 0.493759 -0.488691
N2    N     N_R   0.148750 0.497017 0.527185 -0.492486
N3    N     N_2   0.484110 0.456420 0.038520 -0.218951
N4    N     N_2   0.515890 0.543580 0.961480 -0.217492
O1    O     O_R   0.504120 0.286130 0.619770 -0.582213
O2    O     O_R   0.495880 0.713870 0.380230 -0.581726
O3    O     O_R   0.493410 0.256770 0.308360 -0.583952
O4    O     O_R   0.506590 0.743230 0.691640 -0.583798
O5    O     O_R   0.423230 0.514630 0.655730 -0.591274
O6    O     O_R   0.576770 0.485370 0.344270 -0.589819
O7    O     O_R   0.412530 0.485280 0.344320 -0.582787
O8    O     O_R   0.587470 0.514720 0.655680 -0.581759
O9    O     O_2   0.858325 0.785467 0.531458 -0.436976
O10   O     O_2   0.144308 0.221568 0.433069 -0.459363
O11   O     O_2   0.843770 0.237428 0.476407 -0.462451
O12   O     O_2   0.159395 0.772588 0.617209 -0.463342
Br1   Br    Br    0.915235 0.025349 0.267504 -0.304257
Br2   Br    Br    0.082029 0.986131 0.776662 -0.324119
Br3   Br    Br    0.051892 0.011167 0.280903 -0.306445
Br4   Br    Br    0.944886 0.987941 0.757374 -0.308501
C33   C     C_3   0.219354 0.453022 0.852225 -0.448770
C34   C     C_3   0.225716 0.285080 0.879143 -0.694707
H11   H     H_    0.204653 0.271420 0.003714 0.264270
H12   H     H_    0.271558 0.261464 0.898319 0.228992
H13   H     H_    0.205135 0.196283 0.757842 0.313277
H14   H     H_    0.173367 0.477511 0.852311 0.227097
H15   H     H_    0.241852 0.540560 0.970674 0.197443
C35   C     C_3   0.779794 0.349388 0.147806 -0.345197
C36   C     C_3   0.761533 0.423818 0.988695 -0.821310
H16   H     H_    0.714686 0.405231 0.953248 0.249082
H17   H     H_    0.773657 0.553123 0.026929 0.261589
H18   H     H_    0.783398 0.367797 0.864854 0.279467
H19   H     H_    0.827088 0.355638 0.159588 0.230486
H20   H     H_    0.764960 0.221766 0.112632 0.232351

loop_
_geom_bond_atom_site_label_1
_geom_bond_atom_site_label_2
_ccdc_geom_bond_type
C34   H12   S    
C16   H8    S    
C36   H16   S    
C19   O9    S    
Cu1   O4    S    
Cu2   O3    S    
C23   C29   A    
C24   C26   A    
C21   O11   S    
C22   O12   S    
C13   N2    S    
C34   H13   S    
Cu1   O1    S    
C33   H14   S    
C35   H20   S    
C2    O2    A    
C7    C17   S    
C1    C15   S    
C2    C16   S    
C17   O7    A    
C3    C13   A    
C18   O8    A    
Cu1   O8    S    
C34   H11   S    
Cu2   O7    S    
C36   H17   S    
C3    C33   S    
C10   C12   A    
C14   N1    S    
C21   N1    A    
Cu1   O5    S    
C29   Br1   S    
Cu2   O2    S    
C31   Br3   S    
C32   Br4   S    
C4    C6    A    
C5    C7    A    
C6    C8    A    
C20   C28   A    
C25   C26   A    
C33   H15   S    
C8    C18   S    
C12   H6    S    
C35   H19   S    
C1    O3    A    
N3    N4    D    
C9    H3    S    
Cu1   Cu2   S    
C11   H5    S    
C9    C11   A    
C15   H7    S    
C2    O4    A    
C22   N2    A    
C12   C14   A    
Cu2   O6    S    
C30   Br2   S    
C36   H18   S    
C22   C24   A    
C20   O10   S    
C17   O5    A    
C4    C35   S    
C19   C27   A    
C7    C9    A    
C27   C32   A    
C28   C31   A    
C35   C36   S    
C3    C5    A    
C19   N1    A    
C25   C27   A    
C26   C28   A    
C10   H4    S    
C21   C23   A    
C29   C31   A    
C30   C32   A    
C11   C13   A    
H9    N3    S    
C5    H1    S    
C6    H2    S    
C23   C25   A    
C4    C14   A    
C24   C30   A    
C18   O6    A    
H10   N4    S    
C8    C10   A    
C33   C34   S    
Cu1   N4    S    
Cu2   N3    S    
C1    O1    A    
C20   N2    A    
C15   C16   D    
