data_mof_unit_49858.cif
_audit_creation_date              2012-12-11T15:25:59-0500
_audit_creation_method            fapswitch 2.2
_symmetry_space_group_name_H-M    P1
_symmetry_Int_Tables_number       1
_space_group_crystal_system       triclinic
_cell_length_a                    24.32835
_cell_length_b                    17.078199
_cell_length_c                    15.735511
_cell_angle_alpha                 90.000022
_cell_angle_beta                  50.289653
_cell_angle_gamma                 89.999983
_cell_volume                      5029.47185011

loop_
_atom_site_label
_atom_site_type_symbol
_atom_type_description
_atom_site_fract_x
_atom_site_fract_y
_atom_site_fract_z
_atom_type_partial_charge
C1    C     C_R   0.329161 0.101273 0.804808 0.155592
C2    C     C_2   0.358036 0.739595 0.847291 -0.226112
C3    C     C_3   0.143887 0.879742 0.023526 -0.954951
C4    C     C_3   0.756110 0.580310 0.841691 -0.467700
C5    C     C_3   0.704864 0.649940 0.879616 -0.255631
C6    C     C_3   0.659737 0.641642 0.843589 -0.950746
C7    C     C_3   0.234863 0.366047 0.165653 -0.465025
C8    C     C_3   0.276043 0.369918 0.040449 -0.237895
C9    C     C_3   0.356112 0.379742 0.976473 -0.954950
C10   C     C_3   0.243890 0.580310 0.158309 -0.467701
C11   C     C_3   0.295136 0.649939 0.120384 -0.255630
C12   C     C_3   0.340263 0.641642 0.156411 -0.950747
C13   C     C_2   0.302464 0.150250 0.984179 -0.217170
C14   C     C_3   0.765137 0.366047 0.834347 -0.465025
C15   C     C_3   0.723957 0.369919 0.959551 -0.237896
C16   C     C_3   0.643888 0.379742 0.023526 -0.954949
C17   C     C_2   0.641963 0.739594 0.152709 -0.226113
C18   C     C_2   0.197536 0.650251 0.015821 -0.217170
C19   C     C_2   0.858037 0.239595 0.847291 -0.226113
C20   C     C_2   0.802464 0.650250 0.984179 -0.217170
C21   C     C_2   0.141963 0.239594 0.152710 -0.226113
C22   C     C_2   0.768038 0.137249 0.939778 -0.143784
C23   C     C_2   0.312084 0.693711 0.849830 -0.112156
C24   C     C_2   0.231962 0.137249 0.060222 -0.143785
C25   C     C_R   0.654964 0.862609 0.231419 0.159399
C26   C     C_2   0.687916 0.693711 0.150170 -0.112156
C27   C     C_2   0.268038 0.637249 0.939778 -0.143784
C28   C     C_2   0.812083 0.193711 0.849830 -0.112156
C29   C     C_2   0.731962 0.637249 0.060222 -0.143784
C30   C     C_2   0.187916 0.193711 0.150170 -0.112155
C31   C     C_R   0.585622 0.145476 0.593594 -0.107726
C32   C     C_R   0.385140 0.896454 0.408469 -0.128222
C33   C     C_R   0.414378 0.145476 0.406406 -0.107725
C34   C     C_R   0.614860 0.896454 0.591531 -0.128222
C35   C     C_R   0.085622 0.645477 0.593594 -0.107726
C36   C     C_R   0.670839 0.101273 0.195192 0.155592
C37   C     C_R   0.885140 0.396454 0.408469 -0.128223
C38   C     C_R   0.914378 0.645477 0.406406 -0.107726
C39   C     C_R   0.114860 0.396454 0.591531 -0.128222
C40   C     C_R   0.655824 0.148989 0.410925 -0.162612
C41   C     C_R   0.310078 0.898158 0.590813 -0.143526
C42   C     C_R   0.344176 0.148989 0.589075 -0.162611
C43   C     C_R   0.689922 0.898158 0.409187 -0.143526
C44   C     C_R   0.155824 0.648989 0.410925 -0.162611
C45   C     C_R   0.810078 0.398158 0.590813 -0.143526
C46   C     C_R   0.844176 0.648989 0.589075 -0.162611
C47   C     C_R   0.345036 0.862609 0.768581 0.159400
C48   C     C_R   0.189922 0.398158 0.409187 -0.143526
C49   C     C_R   0.579541 0.104703 0.195256 -0.205325
C50   C     C_R   0.441796 0.857022 0.755895 -0.188927
C51   C     C_R   0.420459 0.104703 0.804743 -0.205325
C52   C     C_R   0.558203 0.857022 0.244105 -0.188927
C53   C     C_R   0.079541 0.604703 0.195256 -0.205325
C54   C     C_R   0.941796 0.357022 0.755895 -0.188926
C55   C     C_R   0.920459 0.604703 0.804743 -0.205325
C56   C     C_R   0.058203 0.357022 0.244105 -0.188927
C57   C     C_R   0.347625 0.119917 0.869923 0.106408
C58   C     C_R   0.829161 0.601273 0.804808 0.155592
C59   C     C_R   0.619120 0.815934 0.208240 0.110310
C60   C     C_R   0.652375 0.119917 0.130077 0.106408
C61   C     C_R   0.380880 0.815935 0.791760 0.110309
C62   C     C_R   0.847625 0.619917 0.869923 0.106408
C63   C     C_R   0.119120 0.315934 0.208241 0.110309
C64   C     C_R   0.152375 0.619918 0.130077 0.106408
C65   C     C_R   0.880880 0.315934 0.791759 0.110309
C66   C     C_R   0.632519 0.192560 0.502814 0.037181
C67   C     C_R   0.315434 0.881434 0.499934 0.047894
C68   C     C_R   0.367481 0.192560 0.497186 0.037180
C69   C     C_R   0.154963 0.362609 0.231419 0.159400
C70   C     C_R   0.684566 0.881434 0.500066 0.047894
C71   C     C_R   0.132519 0.692560 0.502814 0.037180
C72   C     C_R   0.815434 0.381434 0.499934 0.047894
C73   C     C_R   0.867481 0.692560 0.497186 0.037181
C74   C     C_R   0.184565 0.381434 0.500066 0.047894
C75   C     C_R   0.276415 0.297263 0.598137 -0.174617
C76   C     C_R   0.811130 0.843009 0.398854 -0.169789
C77   C     C_R   0.723585 0.297263 0.401863 -0.174617
C78   C     C_R   0.188870 0.843009 0.601146 -0.169789
C79   C     C_R   0.776415 0.797263 0.598137 -0.174616
C80   C     C_R   0.170839 0.601273 0.195192 0.155592
C81   C     C_R   0.311130 0.343009 0.398854 -0.169790
C82   C     C_R   0.223585 0.797263 0.401863 -0.174617
C83   C     C_R   0.688870 0.343010 0.601146 -0.169790
C84   C     C_R   0.728951 0.842678 0.598869 -0.165058
C85   C     C_R   0.358596 0.297690 0.398281 -0.168017
C86   C     C_R   0.271049 0.842677 0.401131 -0.165058
C87   C     C_R   0.641404 0.297689 0.601719 -0.168017
C88   C     C_R   0.228951 0.342678 0.598869 -0.165058
C89   C     C_R   0.858596 0.797690 0.398281 -0.168017
C90   C     C_R   0.771049 0.342678 0.401131 -0.165059
C91   C     C_R   0.845036 0.362609 0.768581 0.159400
C92   C     C_R   0.141404 0.797690 0.601719 -0.168017
C93   C     C_R   0.743049 0.859078 0.499238 0.139707
C94   C     C_R   0.337546 0.267159 0.497852 0.142169
C95   C     C_R   0.256951 0.859077 0.500762 0.139707
C96   C     C_R   0.662454 0.267159 0.502148 0.142168
C97   C     C_R   0.243049 0.359077 0.499238 0.139707
C98   C     C_R   0.837546 0.767159 0.497852 0.142169
C99   C     C_R   0.756951 0.359077 0.500762 0.139708
C100  C     C_R   0.162454 0.767159 0.502148 0.142169
C101  C     C_3   0.256110 0.080310 0.841691 -0.467700
C102  C     C_2   0.697536 0.150251 0.015821 -0.217170
C103  C     C_3   0.204864 0.149940 0.879615 -0.255630
C104  C     C_3   0.159737 0.141642 0.843589 -0.950746
C105  C     C_3   0.734863 0.866047 0.165653 -0.465025
C106  C     C_3   0.776043 0.869919 0.040449 -0.237896
C107  C     C_3   0.856112 0.879742 0.976474 -0.954950
C108  C     C_3   0.743890 0.080310 0.158309 -0.467700
C109  C     C_3   0.795136 0.149940 0.120384 -0.255630
C110  C     C_3   0.840263 0.141642 0.156411 -0.950744
C111  C     C_3   0.265136 0.866047 0.834347 -0.465027
C112  C     C_3   0.223957 0.869919 0.959551 -0.237895
H1    H     H_    0.556841 0.159387 0.679401 0.089224
H2    H     H_    0.260573 0.906700 0.672534 0.085626
H3    H     H_    0.372079 0.586763 0.122372 0.266438
H4    H     H_    0.377529 0.692027 0.124659 0.249859
H5    H     H_    0.333452 0.650758 0.029825 0.198712
H6    H     H_    0.266294 0.706808 0.149396 0.190702
H7    H     H_    0.235786 0.550580 0.228241 0.202610
H8    H     H_    0.269270 0.535518 0.092695 0.174199
H9    H     H_    0.633005 0.434931 0.999248 0.263643
H10   H     H_    0.622765 0.329539 0.007212 0.259608
H11   H     H_    0.615611 0.381984 0.113445 0.256486
H12   H     H_    0.732225 0.316047 0.989220 0.217114
H13   H     H_    0.312371 0.170873 0.671145 0.137490
H14   H     H_    0.743661 0.420052 0.978583 0.191503
H15   H     H_    0.752536 0.420553 0.812841 0.183586
H16   H     H_    0.746179 0.316802 0.813215 0.180617
H17   H     H_    0.739427 0.906700 0.327466 0.085625
H18   H     H_    0.187629 0.670873 0.328855 0.137490
H19   H     H_    0.760573 0.406700 0.672534 0.085626
H20   H     H_    0.812371 0.670873 0.671145 0.137490
H21   H     H_    0.239427 0.406700 0.327466 0.085626
H22   H     H_    0.549873 0.102896 0.165609 0.109130
H23   H     H_    0.480603 0.839088 0.764477 0.116035
H24   H     H_    0.450127 0.102896 0.834390 0.109130
H25   H     H_    0.406358 0.901160 0.323893 0.083000
H26   H     H_    0.519397 0.839088 0.235524 0.116036
H27   H     H_    0.049873 0.602896 0.165609 0.109130
H28   H     H_    0.980603 0.339088 0.764476 0.116035
H29   H     H_    0.950127 0.602896 0.834390 0.109130
H30   H     H_    0.019397 0.339087 0.235524 0.116035
H31   H     H_    0.260572 0.279025 0.676756 0.117086
H32   H     H_    0.825801 0.858385 0.320106 0.109344
H33   H     H_    0.739428 0.279025 0.323244 0.117086
H34   H     H_    0.174199 0.858385 0.679894 0.109344
H35   H     H_    0.760572 0.779025 0.676757 0.117086
H36   H     H_    0.443159 0.159387 0.320599 0.089224
H37   H     H_    0.325801 0.358385 0.320106 0.109344
H38   H     H_    0.239428 0.779025 0.323243 0.117086
H39   H     H_    0.674199 0.358385 0.679894 0.109344
H40   H     H_    0.678712 0.857912 0.677998 0.106994
H41   H     H_    0.407806 0.279827 0.319350 0.108117
H42   H     H_    0.321288 0.857912 0.322002 0.106994
H43   H     H_    0.592194 0.279827 0.680650 0.108118
H44   H     H_    0.178712 0.357912 0.677998 0.106994
H45   H     H_    0.907806 0.779827 0.319350 0.108118
H46   H     H_    0.821287 0.357912 0.322002 0.106994
H47   H     H_    0.593642 0.901160 0.676107 0.083000
H48   H     H_    0.092194 0.779827 0.680650 0.108118
H49   H     H_    0.296794 0.707640 0.800390 0.140819
H50   H     H_    0.794791 0.093257 0.950475 0.145060
H51   H     H_    0.703207 0.707640 0.199609 0.140819
H52   H     H_    0.205209 0.093257 0.049525 0.145061
H53   H     H_    0.796794 0.207640 0.800390 0.140819
H54   H     H_    0.294791 0.593257 0.950475 0.145060
H55   H     H_    0.203207 0.207641 0.199609 0.140819
H56   H     H_    0.705209 0.593257 0.049525 0.145060
H57   H     H_    0.375761 0.724584 0.892900 0.129315
H58   H     H_    0.056841 0.659387 0.679401 0.089224
H59   H     H_    0.672554 0.192056 0.997736 0.146041
H60   H     H_    0.624238 0.724583 0.107102 0.129315
H61   H     H_    0.327445 0.192056 0.002264 0.146041
H62   H     H_    0.875762 0.224584 0.892899 0.129315
H63   H     H_    0.172554 0.692056 0.997736 0.146041
H64   H     H_    0.124237 0.224583 0.107103 0.129315
H65   H     H_    0.827445 0.692056 0.002264 0.146041
H66   H     H_    0.193701 0.140538 0.752326 0.266596
H67   H     H_    0.127920 0.086764 0.877629 0.266437
H68   H     H_    0.122471 0.192028 0.875341 0.249858
H69   H     H_    0.906358 0.401160 0.323893 0.083001
H70   H     H_    0.166549 0.150760 0.970175 0.198712
H71   H     H_    0.233706 0.206808 0.850603 0.190702
H72   H     H_    0.264214 0.050580 0.771759 0.202611
H73   H     H_    0.230730 0.035519 0.907305 0.174199
H74   H     H_    0.866994 0.934931 0.000752 0.263643
H75   H     H_    0.877235 0.829538 0.992788 0.259609
H76   H     H_    0.884388 0.881984 0.886555 0.256486
H77   H     H_    0.767775 0.816047 0.010780 0.217114
H78   H     H_    0.756339 0.920052 0.021417 0.191503
H79   H     H_    0.747464 0.920553 0.187159 0.183586
H80   H     H_    0.943159 0.659387 0.320599 0.089224
H81   H     H_    0.753821 0.816802 0.186785 0.180617
H82   H     H_    0.806299 0.140537 0.247674 0.266596
H83   H     H_    0.872080 0.086763 0.122371 0.266437
H84   H     H_    0.877529 0.192027 0.124659 0.249858
H85   H     H_    0.833451 0.150759 0.029825 0.198712
H86   H     H_    0.766294 0.206808 0.149396 0.190702
H87   H     H_    0.735786 0.050580 0.228241 0.202610
H88   H     H_    0.769270 0.035518 0.092695 0.174199
H89   H     H_    0.133005 0.934932 0.999248 0.263643
H90   H     H_    0.122765 0.829539 0.007212 0.259609
H91   H     H_    0.093642 0.401160 0.676107 0.083000
H92   H     H_    0.115611 0.881985 0.113445 0.256486
H93   H     H_    0.232225 0.816047 0.989220 0.217114
H94   H     H_    0.243661 0.920053 0.978583 0.191503
H95   H     H_    0.252536 0.920554 0.812841 0.183587
H96   H     H_    0.246179 0.816802 0.813215 0.180617
H97   H     H_    0.693701 0.640537 0.752326 0.266597
H98   H     H_    0.627920 0.586763 0.877628 0.266437
H99   H     H_    0.622471 0.692027 0.875340 0.249859
H100  H     H_    0.666548 0.650759 0.970175 0.198712
H101  H     H_    0.733706 0.706808 0.850604 0.190702
H102  H     H_    0.687629 0.170873 0.328855 0.137490
H103  H     H_    0.764214 0.550580 0.771759 0.202610
H104  H     H_    0.730730 0.535518 0.907305 0.174199
H105  H     H_    0.366995 0.434931 0.000752 0.263643
H106  H     H_    0.377235 0.329538 0.992788 0.259609
H107  H     H_    0.384388 0.381984 0.886555 0.256486
H108  H     H_    0.267774 0.316047 0.010780 0.217114
H109  H     H_    0.256339 0.420052 0.021417 0.191503
H110  H     H_    0.247464 0.420553 0.187159 0.183586
H111  H     H_    0.253821 0.316802 0.186785 0.180616
H112  H     H_    0.306298 0.640537 0.247674 0.266596
N1    N     N_R   0.388930 0.078160 0.705470 -0.065688
N2    N     N_R   0.419500 0.922160 0.443350 -0.033942
N3    N     N_R   0.419500 0.077840 0.443350 -0.034757
N4    N     N_R   0.580500 0.922160 0.556650 -0.033942
N5    N     N_R   0.080500 0.577840 0.556650 -0.034757
N6    N     N_R   0.919500 0.422160 0.443350 -0.033942
N7    N     N_R   0.919500 0.577840 0.443350 -0.034757
N8    N     N_R   0.080500 0.422160 0.556650 -0.033942
N9    N     N_R   0.626210 0.077590 0.443410 -0.042015
N10   N     N_R   0.373790 0.922410 0.556590 -0.042010
N11   N     N_R   0.373790 0.077590 0.556590 -0.042015
N12   N     N_R   0.611070 0.921840 0.294530 -0.067668
N13   N     N_R   0.626210 0.922410 0.443410 -0.042010
N14   N     N_R   0.126210 0.577590 0.443410 -0.042015
N15   N     N_R   0.873790 0.422410 0.556590 -0.042010
N16   N     N_R   0.873790 0.577590 0.556590 -0.042015
N17   N     N_R   0.126210 0.422410 0.443410 -0.042010
N18   N     N_R   0.554800 0.077270 0.294580 -0.045978
N19   N     N_R   0.445200 0.922730 0.705420 -0.048412
N20   N     N_R   0.445200 0.077270 0.705420 -0.045978
N21   N     N_R   0.554800 0.922730 0.294580 -0.048412
N22   N     N_R   0.054800 0.577270 0.294580 -0.045978
N23   N     N_R   0.611070 0.078160 0.294530 -0.065688
N24   N     N_R   0.945200 0.422730 0.705420 -0.048412
N25   N     N_R   0.945200 0.577270 0.705420 -0.045978
N26   N     N_R   0.054800 0.422730 0.294580 -0.048412
N27   N     N_R   0.388930 0.921840 0.705470 -0.067668
N28   N     N_R   0.888930 0.578160 0.705470 -0.065688
N29   N     N_R   0.111070 0.421840 0.294530 -0.067668
N30   N     N_R   0.111070 0.578160 0.294530 -0.065688
N31   N     N_R   0.888930 0.421840 0.705470 -0.067668
N32   N     N_R   0.580500 0.077840 0.556650 -0.034757
Ni1   Ni    Ni4+2 0.382710 0.000000 0.629850 0.196608
Ni2   Ni    Ni4+2 0.617290 0.000000 0.370150 0.196608
Ni3   Ni    Ni4+2 0.882710 0.500000 0.629850 0.196608
Ni4   Ni    Ni4+2 0.117290 0.500000 0.370150 0.196608
Ni5   Ni    Ni4+2 0.513020 0.000000 0.629850 0.205234
Ni6   Ni    Ni4+2 0.486980 0.000000 0.370150 0.205234
Ni7   Ni    Ni4+2 0.013020 0.500000 0.629850 0.205234
Ni8   Ni    Ni4+2 0.986980 0.500000 0.370150 0.205234

loop_
_geom_bond_atom_site_label_1
_geom_bond_atom_site_label_2
_ccdc_geom_bond_type
C9    H106  S    
C58   C62   A    
C31   C66   A    
C83   C87   A    
C49   H22   S    
C90   H46   S    
C55   H29   S    
N8    Ni7   S    
C39   H91   S    
N10   Ni1   S    
C103  H70   S    
C105  H79   S    
C79   C98   A    
C58   N28   A    
C111  C112  S    
C41   H2    S    
N7    Ni8   S    
C18   C64   S    
C52   N21   A    
C49   N18   A    
N6    N15   A    
N24   N31   A    
C69   N29   A    
C7    C8    S    
C41   C67   A    
C6    H97   S    
C104  H68   S    
N1    N20   A    
C105  H81   S    
C107  H74   S    
C1    N1    A    
C33   C68   A    
C49   C60   A    
C80   N30   A    
C31   N32   A    
C103  H71   S    
C17   C26   D    
C88   H44   S    
C29   H56   S    
N15   Ni3   S    
N17   Ni4   S    
C16   H11   S    
C112  H93   S    
C50   H23   S    
C46   H20   S    
C5    C6    S    
C22   H50   S    
C53   C64   A    
C60   C102  S    
C110  H83   S    
C104  H67   S    
C36   C108  S    
C41   N10   A    
C44   H18   S    
C15   C16   S    
C55   C62   A    
C107  H75   S    
C26   H51   S    
C14   H16   S    
C108  C109  S    
C44   C71   A    
C65   C91   A    
N19   Ni5   S    
C42   N11   A    
C39   C74   A    
C16   H10   S    
C53   N22   A    
C12   H112  S    
C10   H7    S    
C43   N13   A    
C42   H13   S    
C4    H103  S    
C109  H85   S    
C104  H66   S    
C51   N20   A    
C25   N12   A    
C8    C9    S    
C15   H14   S    
C56   N26   A    
C110  H82   S    
C52   H26   S    
C55   N25   A    
N14   Ni4   S    
C105  C106  S    
C51   C57   A    
C54   N24   A    
N28   Ni3   S    
C34   C70   A    
C47   N27   A    
C88   C97   A    
N9    N32   A    
C2    C61   S    
C76   C89   A    
C111  H95   S    
C12   H3    S    
C56   H30   S    
C34   H47   S    
C9    H107  S    
N26   N29   A    
C5    H101  S    
C101  C103  S    
N6    Ni8   S    
C83   C99   A    
N32   Ni5   S    
C72   C99   S    
C45   C72   A    
C42   C68   A    
C3    H92   S    
C64   C80   A    
C109  H86   S    
C24   H52   S    
N27   Ni1   S    
C101  H73   S    
N21   Ni6   S    
C63   C69   A    
C74   C97   S    
C83   H39   S    
C20   C29   D    
N5    Ni7   S    
C73   C98   S    
N31   Ni3   S    
C77   C90   A    
C17   H60   S    
N19   N27   A    
C15   H12   S    
C13   H61   S    
N9    Ni2   S    
C25   C105  S    
N8    N17   A    
C48   C74   A    
C48   H21   S    
C43   H17   S    
C70   C93   S    
C4    H104  S    
C50   N19   A    
C86   C95   A    
C54   C65   A    
C7    H110  S    
C10   C80   S    
C54   H28   S    
C79   H35   S    
C6    H99   S    
N22   N30   A    
C78   C92   A    
C82   C86   A    
C40   C66   A    
C107  H76   S    
C36   N23   A    
C68   C94   S    
C14   H15   S    
C13   C24   D    
N7    N16   A    
C35   N5    A    
C108  H88   S    
C34   N4    A    
C16   H9    S    
C45   N15   A    
C27   H54   S    
C7    C69   S    
C8    H108  S    
C52   C59   A    
C1    C57   A    
C76   C93   A    
C7    H111  S    
C51   H24   S    
N30   Ni4   S    
C78   C95   A    
N11   Ni1   S    
C21   H64   S    
C37   H69   S    
C87   C96   A    
C38   H80   S    
N18   Ni6   S    
C56   C63   A    
C85   H41   S    
N25   Ni7   S    
C19   C28   D    
N26   Ni8   S    
C82   H38   S    
C101  H72   S    
C75   H31   S    
C28   H53   S    
C17   C59   S    
C32   C67   A    
C84   H40   S    
C32   H25   S    
C67   C95   S    
C32   N2    A    
C45   H19   S    
C3    C112  S    
C23   C27   S    
C110  H84   S    
C46   N16   A    
C3    H89   S    
C87   H43   S    
N13   Ni2   S    
C22   C102  D    
C106  H78   S    
C4    C58   S    
C11   H5    S    
C1    C101  S    
C90   C99   A    
C2    C23   D    
N23   Ni2   S    
N22   Ni8   S    
N4    Ni5   S    
C92   C100  A    
C66   C96   S    
C71   C100  S    
C9    H105  S    
C102  H59   S    
C35   H58   S    
C5    H100  S    
N2    Ni6   S    
N25   N28   A    
N20   Ni5   S    
C53   H27   S    
C33   N3    A    
C82   C100  A    
N12   N21   A    
C18   C27   D    
C40   N9    A    
C76   H32   S    
C44   N14   A    
C47   C61   A    
C38   N7    A    
C11   C12   S    
C89   H45   S    
C20   H65   S    
C6    H98   S    
C43   C70   A    
N3    N11   A    
C21   C30   D    
C77   C96   A    
N12   Ni2   S    
N18   N23   A    
N2    N10   A    
C47   C111  S    
C89   C98   A    
C92   H48   S    
C33   H36   S    
N24   Ni7   S    
C108  H87   S    
C86   H42   S    
C19   H62   S    
C112  H94   S    
C39   N8    A    
C109  C110  S    
C18   H63   S    
N29   Ni4   S    
N4    N13   A    
C79   C84   A    
C77   H33   S    
C91   N31   A    
N1    Ni1   S    
C81   H37   S    
C4    C5    S    
C81   C97   A    
C19   C65   S    
C84   C93   A    
C46   C73   A    
N16   Ni3   S    
C20   C62   S    
C24   C30   S    
C14   C91   S    
C21   C63   S    
C10   H8    S    
C10   C11   S    
C78   H34   S    
C2    H57   S    
C35   C71   A    
C75   C88   A    
C50   C61   A    
C13   C57   S    
N3    Ni6   S    
C26   C29   S    
C106  C107  S    
C37   C72   A    
C40   H102  S    
C103  C104  S    
C48   N17   A    
C3    H90   S    
C36   C60   A    
C14   C15   S    
C22   C28   S    
C85   C94   A    
C25   C59   A    
C106  H77   S    
C23   H49   S    
N5    N14   A    
C11   H6    S    
C111  H96   S    
C31   H1    S    
C37   N6    A    
C81   C85   A    
C8    H109  S    
C75   C94   A    
C12   H4    S    
C38   C73   A    
C30   H55   S    
