data_mof_unit_13517.cif
_audit_creation_date              2012-10-26T17:11:28-0400
_audit_creation_method            fapswitch 2.2
_symmetry_space_group_name_H-M    P1
_symmetry_Int_Tables_number       1
_space_group_crystal_system       triclinic
_cell_length_a                    27.850147
_cell_length_b                    18.849791
_cell_length_c                    16.848062
_cell_angle_alpha                 90.122672
_cell_angle_beta                  62.601496
_cell_angle_gamma                 90.18643
_cell_volume                      7852.5392226

loop_
_atom_site_label
_atom_site_type_symbol
_atom_type_description
_atom_site_fract_x
_atom_site_fract_y
_atom_site_fract_z
_atom_type_partial_charge
C1    C     C_R   0.295279 0.728723 0.329536 0.895286
C2    C     C_R   0.704413 0.270667 0.670664 0.765886
C3    C     C_R   0.704770 0.728657 0.670493 0.872385
C4    C     C_R   0.295078 0.271662 0.329578 0.805590
C5    C     C_R   0.795003 0.228221 0.329645 0.828936
C6    C     C_R   0.205007 0.771822 0.670350 0.832414
C7    C     C_R   0.204807 0.228556 0.670462 0.864142
C8    C     C_R   0.795476 0.770869 0.329305 0.804017
C9    C     C_R   0.415147 0.001110 0.444984 0.049527
C10   C     C_R   0.600285 0.002723 0.501797 0.075293
C11   C     C_R   0.893425 0.500350 0.519555 0.051840
C12   C     C_R   0.094825 0.500229 0.523479 0.012811
C13   C     C_R   0.624602 0.885997 0.433504 -0.051977
C14   C     C_R   0.421477 0.128888 0.430374 -0.053784
C15   C     C_R   0.427762 0.876304 0.405672 -0.058160
C16   C     C_R   0.578063 0.124279 0.557389 -0.049905
C17   C     C_R   0.075975 0.382280 0.591228 -0.048856
C18   C     C_R   0.892596 0.627807 0.531302 -0.050484
C19   C     C_R   0.876918 0.379041 0.570017 -0.047554
C20   C     C_R   0.110643 0.619139 0.458248 -0.045441
C21   C     C_R   0.220952 0.767370 0.953215 -0.025857
C22   C     C_R   0.779097 0.233815 0.046924 -0.105400
C23   C     C_R   0.780615 0.764167 0.045655 -0.036123
C24   C     C_R   0.219008 0.237867 0.954230 -0.050598
C25   C     C_R   0.718325 0.261729 0.954832 -0.113081
C26   C     C_R   0.281040 0.737378 0.045699 -0.052302
C27   C     C_R   0.278957 0.266844 0.047161 -0.029783
C28   C     C_R   0.720356 0.735728 0.953082 -0.056646
C29   C     C_R   0.276400 0.783152 0.914711 -0.248492
C30   C     C_R   0.724445 0.213738 0.083546 -0.202509
C31   C     C_R   0.726001 0.783550 0.082363 -0.230933
C32   C     C_R   0.274212 0.220860 0.916400 -0.316535
C33   C     C_R   0.772895 0.282020 0.918418 -0.178289
C34   C     C_R   0.225570 0.721343 0.083981 -0.314555
C35   C     C_R   0.223764 0.283575 0.085274 -0.247240
C36   C     C_R   0.775162 0.716649 0.916114 -0.316219
C37   C     C_R   0.306591 0.769781 0.960190 0.426426
C38   C     C_R   0.693866 0.226519 0.038526 0.430657
C39   C     C_R   0.695653 0.770616 0.037039 0.428421
C40   C     C_R   0.304562 0.235303 0.962017 0.428249
C41   C     C_R   0.803486 0.269197 0.963337 0.425525
C42   C     C_R   0.195173 0.736279 0.038615 0.423670
C43   C     C_R   0.193633 0.270678 0.039528 0.428656
C44   C     C_R   0.805665 0.730791 0.961642 0.430926
C45   C     C_R   0.144391 0.829184 0.944158 -0.113805
C46   C     C_R   0.855281 0.170625 0.055982 -0.188861
C47   C     C_R   0.856783 0.826801 0.054900 -0.122109
C48   C     C_R   0.143780 0.172569 0.944480 -0.193312
C49   C     C_R   0.643190 0.326868 0.945032 -0.182918
C50   C     C_R   0.356073 0.671912 0.055657 -0.189928
C51   C     C_R   0.355665 0.328608 0.055905 -0.108534
C52   C     C_R   0.644534 0.671467 0.943988 -0.190071
C53   C     C_R   0.117716 0.851742 0.895311 -0.088658
C54   C     C_R   0.882062 0.148057 0.104742 -0.065455
C55   C     C_R   0.882882 0.850656 0.104203 -0.086220
C56   C     C_R   0.117512 0.148780 0.895405 -0.067426
C57   C     C_R   0.617244 0.350925 0.895615 -0.067156
C58   C     C_R   0.382376 0.648462 0.104741 -0.071886
C59   C     C_R   0.382439 0.351335 0.104589 -0.091747
C60   C     C_R   0.617806 0.648421 0.895289 -0.062881
C61   C     C_R   0.136372 0.829623 0.807024 -0.191595
C62   C     C_R   0.863509 0.170285 0.192967 -0.217109
C63   C     C_R   0.864101 0.828922 0.192656 -0.224548
C64   C     C_R   0.136198 0.170510 0.806986 -0.180944
C65   C     C_R   0.635994 0.329085 0.807152 -0.209849
C66   C     C_R   0.363740 0.670458 0.193096 -0.167607
C67   C     C_R   0.363903 0.329216 0.192822 -0.188099
C68   C     C_R   0.636273 0.670538 0.807072 -0.228533
C69   C     C_R   0.182419 0.787495 0.765981 -0.061907
C70   C     C_R   0.817560 0.212583 0.234021 -0.069440
C71   C     C_R   0.818588 0.785548 0.233284 -0.071596
C72   C     C_R   0.181828 0.213648 0.766206 -0.048456
C73   C     C_R   0.681115 0.285248 0.766743 -0.077975
C74   C     C_R   0.318277 0.713663 0.233750 -0.018841
C75   C     C_R   0.317722 0.287084 0.233984 -0.065870
C76   C     C_R   0.682038 0.713423 0.766139 -0.044977
C77   C     C_R   0.209102 0.765229 0.814947 -0.207988
C78   C     C_R   0.790941 0.235111 0.185071 -0.176895
C79   C     C_R   0.792811 0.761366 0.183486 -0.155716
C80   C     C_R   0.207749 0.237795 0.815663 -0.180433
C81   C     C_R   0.706365 0.260410 0.816823 -0.166530
C82   C     C_R   0.292458 0.737602 0.184213 -0.143524
C83   C     C_R   0.290889 0.264671 0.185177 -0.209267
C84   C     C_R   0.708428 0.736799 0.815216 -0.112980
C85   C     C_R   0.201413 0.631186 0.510822 0.860000
C86   C     C_R   0.800106 0.368848 0.484707 0.789753
C87   C     C_R   0.801147 0.631335 0.481496 0.860535
C88   C     C_R   0.197939 0.368708 0.523378 0.865355
C89   C     C_R   0.695928 0.131802 0.528958 0.755128
C90   C     C_R   0.303313 0.868320 0.473768 0.853948
C91   C     C_R   0.302745 0.131647 0.475393 0.791025
C92   C     C_R   0.698845 0.869245 0.519210 0.832432
C93   C     C_R   0.190235 0.785953 0.904176 0.144068
C94   C     C_R   0.809722 0.214409 0.095902 0.075723
C95   C     C_R   0.811480 0.782478 0.094491 0.132769
C96   C     C_R   0.188820 0.217428 0.904913 0.079471
C97   C     C_R   0.687823 0.281514 0.905810 0.064012
C98   C     C_R   0.311183 0.716858 0.095070 0.076230
C99   C     C_R   0.309761 0.285324 0.096029 0.142685
C100  C     C_R   0.689837 0.715866 0.904150 0.065573
C101  C     C_R   0.926637 0.902916 0.066411 0.810792
C102  C     C_R   0.073497 0.096905 0.933470 0.814232
C103  C     C_R   0.073490 0.903149 0.933424 0.817712
C104  C     C_R   0.926417 0.096763 0.066620 0.804437
C105  C     C_R   0.426577 0.403007 0.066469 0.817203
C106  C     C_R   0.573570 0.596827 0.933433 0.804996
C107  C     C_R   0.573473 0.403084 0.933435 0.806704
C108  C     C_R   0.426439 0.596777 0.066650 0.812881
C109  C     C_R   0.055818 0.624075 0.478717 0.014977
C110  C     C_R   0.928332 0.376226 0.570010 0.077565
C111  C     C_R   0.947520 0.627921 0.509875 0.007444
C112  C     C_R   0.028128 0.378172 0.580593 0.023728
C113  C     C_R   0.540359 0.127952 0.522543 0.085162
C114  C     C_R   0.475952 0.875933 0.416242 0.021819
C115  C     C_R   0.460879 0.130208 0.461279 0.096602
C116  C     C_R   0.573988 0.880320 0.432138 0.082911
C117  C     C_R   0.032360 0.688290 0.471337 -0.192590
C118  C     C_R   0.947557 0.315228 0.594465 -0.102495
C119  C     C_R   0.977877 0.690725 0.491241 -0.191082
C120  C     C_R   0.995717 0.316589 0.601437 -0.217602
C121  C     C_R   0.516367 0.192207 0.516672 -0.149256
C122  C     C_R   0.508924 0.815424 0.399201 -0.213512
C123  C     C_R   0.478397 0.193539 0.484002 -0.147829
C124  C     C_R   0.556895 0.817694 0.406692 -0.094442
C125  C     C_R   0.971448 0.563319 0.512919 0.044113
C126  C     C_R   0.011490 0.437968 0.549506 0.045649
C127  C     C_R   0.023619 0.562451 0.506130 0.047551
C128  C     C_R   0.961313 0.437372 0.546327 0.014697
C129  C     C_R   0.483411 0.065693 0.469296 0.014565
C130  C     C_R   0.540045 0.939965 0.454718 0.013886
C131  C     C_R   0.526447 0.065378 0.491895 0.009788
C132  C     C_R   0.492456 0.938591 0.443286 0.046652
C133  C     C_R   0.464018 0.001660 0.451535 -0.033107
C134  C     C_R   0.555222 0.002488 0.483901 -0.036377
C135  C     C_R   0.941907 0.500144 0.527001 -0.043674
C136  C     C_R   0.043580 0.499887 0.525557 -0.038260
C137  C     C_R   0.392342 0.936277 0.436174 0.045547
C138  C     C_R   0.613985 0.065180 0.534163 -0.023131
C139  C     C_R   0.632561 0.941129 0.484555 -0.078195
C140  C     C_R   0.390046 0.066031 0.444560 -0.058734
C141  C     C_R   0.865366 0.436754 0.526488 -0.050366
C142  C     C_R   0.127478 0.561993 0.494640 0.033636
C143  C     C_R   0.113464 0.439140 0.549822 0.041516
C144  C     C_R   0.870743 0.565345 0.512687 0.053022
C145  C     C_R   0.335446 0.935222 0.459822 -0.120859
C146  C     C_R   0.662519 0.065390 0.543745 -0.222510
C147  C     C_R   0.670921 0.937258 0.519663 -0.125699
C148  C     C_R   0.334486 0.065346 0.462769 -0.148229
C149  C     C_R   0.825757 0.435736 0.493578 -0.169667
C150  C     C_R   0.176304 0.563764 0.501682 -0.080060
C151  C     C_R   0.169623 0.436594 0.529130 -0.134268
C152  C     C_R   0.828315 0.565078 0.487061 -0.115809
C153  C     C_R   0.306656 0.999983 0.482300 -0.095529
C154  C     C_R   0.682048 0.999646 0.556099 -0.045806
C155  C     C_R   0.812290 0.500044 0.465572 -0.097982
C156  C     C_R   0.201080 0.499506 0.501471 -0.122851
Cu1   Cu    Cu3+1 0.209920 0.785290 0.495070 0.951315
Cu2   Cu    Cu3+1 0.790080 0.214710 0.504930 0.977593
Cu3   Cu    Cu3+1 0.790080 0.785290 0.504930 0.975335
Cu4   Cu    Cu3+1 0.209920 0.214710 0.495070 0.951505
Cu5   Cu    Cu3+1 0.709920 0.285290 0.495070 0.965298
Cu6   Cu    Cu3+1 0.290080 0.714710 0.504930 0.968144
Cu7   Cu    Cu3+1 0.290080 0.285290 0.504930 0.978521
Cu8   Cu    Cu3+1 0.709920 0.714710 0.495070 0.993531
Cu9   Cu    Cu3+1 0.495240 0.500000 0.924150 0.977445
Cu10  Cu    Cu3+1 0.504760 0.500000 0.075850 0.990311
Cu11  Cu    Cu3+1 0.995240 0.000000 0.924150 0.966146
Cu12  Cu    Cu3+1 0.004760 0.000000 0.075850 0.961610
H1    H     H_    0.579184 0.768775 0.395906 0.188496
H2    H     H_    0.460856 0.244000 0.481062 0.181227
H3    H     H_    0.497974 0.765106 0.381401 0.128652
H4    H     H_    0.528530 0.242341 0.533215 0.187038
H5    H     H_    0.008048 0.267682 0.619834 0.128184
H6    H     H_    0.960183 0.741120 0.488303 0.129217
H7    H     H_    0.926801 0.264947 0.605815 0.192802
H8    H     H_    0.054925 0.737502 0.455077 0.122875
H9    H     H_    0.296142 0.808294 0.849628 0.181316
H10   H     H_    0.705636 0.185966 0.146953 0.181127
H11   H     H_    0.707194 0.811372 0.145584 0.220526
H12   H     H_    0.293464 0.195005 0.851694 0.158931
H13   H     H_    0.791562 0.310337 0.855466 0.211068
H14   H     H_    0.206106 0.695893 0.148900 0.172914
H15   H     H_    0.204238 0.309084 0.150183 0.182705
H16   H     H_    0.793940 0.689561 0.852191 0.179829
H17   H     H_    0.131026 0.847515 0.012061 0.169260
H18   H     H_    0.868624 0.152611 0.987951 0.171266
H19   H     H_    0.870082 0.844983 0.986996 0.167975
H20   H     H_    0.130422 0.154727 0.012533 0.172266
H21   H     H_    0.629958 0.344928 0.013016 0.175396
H22   H     H_    0.369349 0.653839 0.987669 0.174263
H23   H     H_    0.368966 0.346894 0.988046 0.173153
H24   H     H_    0.631324 0.653424 0.011924 0.173669
H25   H     H_    0.116308 0.847718 0.768898 0.180670
H26   H     H_    0.883598 0.152179 0.231050 0.177760
H27   H     H_    0.883584 0.848313 0.231263 0.180945
H28   H     H_    0.116553 0.151329 0.768530 0.174366
H29   H     H_    0.616774 0.348695 0.768392 0.186283
H30   H     H_    0.383331 0.651476 0.231574 0.178586
H31   H     H_    0.384096 0.347385 0.230865 0.192522
H32   H     H_    0.616308 0.651889 0.768884 0.177842
H33   H     H_    0.245232 0.733003 0.783461 0.157010
H34   H     H_    0.754907 0.267529 0.216493 0.160483
H35   H     H_    0.757384 0.727631 0.214190 0.193934
H36   H     H_    0.243435 0.271094 0.784519 0.156189
H37   H     H_    0.741339 0.226110 0.786330 0.193074
H38   H     H_    0.256926 0.770956 0.215310 0.148266
H39   H     H_    0.254624 0.232471 0.216722 0.156943
H40   H     H_    0.744263 0.769830 0.783970 0.163024
O1    O     O_R   0.255040 0.869590 0.478480 -0.604101
O2    O     O_R   0.744960 0.130410 0.521520 -0.594217
O3    O     O_R   0.744960 0.869590 0.521520 -0.555070
O4    O     O_R   0.255040 0.130410 0.478480 -0.594594
O5    O     O_R   0.755040 0.369590 0.478480 -0.602587
O6    O     O_R   0.244960 0.630410 0.521520 -0.593912
O7    O     O_R   0.244960 0.369590 0.521520 -0.608127
O8    O     O_R   0.755040 0.630410 0.478480 -0.591919
O9    O     O_R   0.182050 0.796550 0.624440 -0.584806
O10   O     O_R   0.817950 0.203450 0.375560 -0.582671
O11   O     O_R   0.817950 0.796550 0.375560 -0.603855
O12   O     O_R   0.182050 0.203450 0.624440 -0.588661
O13   O     O_R   0.682050 0.296550 0.624440 -0.589680
O14   O     O_R   0.317950 0.703450 0.375560 -0.585890
O15   O     O_R   0.317950 0.296550 0.375560 -0.581470
O16   O     O_R   0.682050 0.703450 0.624440 -0.602057
O17   O     O_R   0.250530 0.763330 0.367210 -0.599607
O18   O     O_R   0.749470 0.236670 0.632790 -0.576048
O19   O     O_R   0.749470 0.763330 0.632790 -0.563398
O20   O     O_R   0.250530 0.236670 0.367210 -0.595370
O21   O     O_R   0.750530 0.263330 0.367210 -0.583053
O22   O     O_R   0.249470 0.736670 0.632790 -0.593298
O23   O     O_R   0.249470 0.263330 0.632790 -0.592540
O24   O     O_R   0.750530 0.736670 0.367210 -0.565947
O25   O     O_R   0.177260 0.690030 0.513710 -0.599842
O26   O     O_R   0.822740 0.309970 0.486290 -0.575472
O27   O     O_R   0.822740 0.690030 0.486290 -0.594696
O28   O     O_R   0.177260 0.309970 0.513710 -0.593612
O29   O     O_R   0.677260 0.190030 0.513710 -0.582798
O30   O     O_R   0.322740 0.809970 0.486290 -0.595532
O31   O     O_R   0.322740 0.190030 0.486290 -0.595240
O32   O     O_R   0.677260 0.809970 0.513710 -0.592744
O33   O     O_R   0.051640 0.926880 0.885090 -0.582303
O34   O     O_R   0.948360 0.073120 0.114910 -0.588339
O35   O     O_R   0.948360 0.926880 0.114910 -0.587666
O36   O     O_R   0.051640 0.073120 0.885090 -0.585545
O37   O     O_R   0.551640 0.426880 0.885090 -0.584372
O38   O     O_R   0.448360 0.573120 0.114910 -0.582438
O39   O     O_R   0.448360 0.426880 0.114910 -0.575419
O40   O     O_R   0.551640 0.573120 0.885090 -0.589125
O41   O     O_R   0.940620 0.926560 0.986760 -0.590917
O42   O     O_R   0.059380 0.073440 0.013240 -0.589365
O43   O     O_R   0.059380 0.926560 0.013240 -0.590922
O44   O     O_R   0.940620 0.073440 0.986760 -0.590565
O45   O     O_R   0.440620 0.426560 0.986760 -0.587971
O46   O     O_R   0.559380 0.573440 0.013240 -0.590195
O47   O     O_R   0.559380 0.426560 0.013240 -0.586112
O48   O     O_R   0.440620 0.573440 0.986760 -0.590212
C157  C     C_2   0.247054 0.999575 0.539216 0.443976
H41   H     H_    0.220180 0.998671 0.508722 0.085701
O49   O     O_2   0.228116 0.000496 0.620511 -0.552983
C158  C     C_2   0.705409 0.996440 0.619997 0.385455
H42   H     H_    0.726736 0.041068 0.629413 0.094540
O50   O     O_2   0.696999 0.945418 0.669249 -0.538475
C159  C     C_2   0.785166 0.500031 0.407538 0.437104
H43   H     H_    0.742558 0.487056 0.434717 0.093441
O51   O     O_2   0.810398 0.517145 0.329106 -0.529897
C160  C     C_2   0.261202 0.498657 0.459828 0.458928
H44   H     H_    0.281683 0.487094 0.499670 0.085290
O52   O     O_2   0.288006 0.513515 0.380886 -0.532017
C161  C     C_2   0.673474 0.851186 0.362279 0.423402
H45   H     H_    0.713319 0.870098 0.348829 0.032743
O53   O     O_2   0.670485 0.803612 0.315655 -0.592072
C162  C     C_2   0.424482 0.180939 0.361490 0.446226
H46   H     H_    0.399809 0.172982 0.327670 0.057519
O54   O     O_2   0.455697 0.231205 0.338889 -0.550567
C163  C     C_2   0.421075 0.822699 0.346309 0.428072
H47   H     H_    0.434035 0.768337 0.343785 0.054566
O55   O     O_2   0.401303 0.839604 0.297720 -0.564982
C164  C     C_2   0.571649 0.170864 0.633844 0.428024
H48   H     H_    0.597523 0.163564 0.665468 0.064948
O56   O     O_2   0.535602 0.214728 0.666492 -0.558472
C165  C     C_2   0.080900 0.336434 0.659309 0.417717
H49   H     H_    0.063152 0.283981 0.675111 0.058316
O57   O     O_2   0.103872 0.358289 0.701267 -0.558131
C166  C     C_2   0.857431 0.675081 0.606268 0.418603
H50   H     H_    0.872204 0.726061 0.615881 0.043025
O58   O     O_2   0.812278 0.655736 0.660556 -0.577389
C167  C     C_2   0.829789 0.339430 0.638664 0.432466
H51   H     H_    0.789320 0.358210 0.656670 0.048265
O59   O     O_2   0.834708 0.288121 0.678195 -0.590293
C168  C     C_2   0.150959 0.661197 0.381379 0.412564
H52   H     H_    0.140520 0.711769 0.363151 0.036811
O60   O     O_2   0.196071 0.637547 0.334323 -0.552591
O61   O     O_3   0.140862 0.719371 0.075289 -0.725664
H53   H     H_    0.129150 0.698137 0.135208 0.326322
O62   O     O_3   0.856184 0.293698 0.923981 -0.715178
H54   H     H_    0.870169 0.293587 0.968326 0.336599
O63   O     O_3   0.859357 0.711347 0.926360 -0.720040
H55   H     H_    0.870593 0.688669 0.867293 0.326771
O64   O     O_3   0.140308 0.292310 0.079918 -0.720973
H56   H     H_    0.126816 0.293993 0.034956 0.335185
O65   O     O_3   0.641065 0.202408 0.078032 -0.709818
H57   H     H_    0.626820 0.203416 0.034045 0.336784
O66   O     O_3   0.360174 0.790647 0.919325 -0.722772
H58   H     H_    0.373796 0.792420 0.964125 0.332557
O67   O     O_3   0.358640 0.217571 0.925850 -0.717091
H59   H     H_    0.370264 0.196148 0.865991 0.336028
O68   O     O_3   0.642845 0.794352 0.076447 -0.713352
H60   H     H_    0.629095 0.794604 0.031793 0.333424

loop_
_geom_bond_atom_site_label_1
_geom_bond_atom_site_label_2
_ccdc_geom_bond_type
C3    O16   A    
C102  O42   A    
C34   C42   A    
C105  O45   A    
C153  C157  S    
C16   C113  A    
C110  C118  A    
Cu7   O31   S    
O65   H57   S    
C27   C99   S    
C85   O25   A    
C13   C139  A    
C166  H50   S    
C48   H20   S    
C117  C119  A    
Cu6   O30   S    
C35   H15   S    
C108  O38   A    
Cu3   O3    S    
C30   C38   A    
C16   C164  S    
C109  C127  A    
Cu12  O34   S    
C162  H46   S    
C111  C125  A    
C167  O59   D    
Cu2   O18   S    
C155  C159  S    
C125  C135  A    
C143  C151  A    
C126  C136  A    
C19   C141  A    
C29   H9    S    
C92   C147  S    
C82   C98   A    
C130  C134  A    
C88   O28   A    
C73   C81   A    
C115  C123  A    
C90   O30   A    
C84   C100  A    
Cu4   Cu7   S    
C127  C136  A    
C128  C135  A    
C112  C120  A    
C27   C35   A    
C21   C29   A    
C2    O13   A    
C23   C31   A    
C24   C32   A    
C5    C70   S    
C6    O9    A    
Cu8   O16   S    
O66   H58   S    
C146  C154  A    
Cu2   O10   S    
C59   C105  S    
C46   H18   S    
C15   C163  S    
Cu5   O21   S    
C63   C71   A    
C129  C133  A    
C161  O53   D    
C36   C44   A    
C102  O36   A    
C148  C153  A    
C62   H26   S    
C154  C158  S    
C2    O18   A    
C54   C104  S    
C159  O51   D    
Cu12  O43   S    
C8    C71   S    
C48   C96   A    
C16   C138  A    
C60   C106  S    
Cu8   O24   S    
Cu9   O48   S    
C20   C168  S    
C24   C96   S    
C149  C155  A    
C103  O43   A    
C45   H17   S    
C21   C93   S    
C78   C94   A    
C23   C95   S    
C118  C120  A    
C121  C123  A    
C49   C97   A    
C21   C42   A    
C156  C160  S    
Cu4   O28   S    
C125  C127  A    
C24   C43   A    
C32   H12   S    
C10   C138  A    
Cu1   Cu6   S    
C110  C128  A    
C15   C137  A    
C9    C133  A    
C6    C69   S    
Cu1   O1    S    
C104  O44   A    
C69   C77   A    
C45   C93   A    
C71   C79   A    
C87   O27   A    
C62   C70   A    
C1    C74   S    
C119  H6    S    
C9    C140  A    
C66   C74   A    
C49   C57   A    
C111  C119  A    
C157  H41   S    
C83   H39   S    
C52   C60   A    
C59   C67   A    
C53   C61   A    
Cu5   O13   S    
C87   O8    A    
C56   C64   A    
C35   C43   A    
C45   C53   A    
C22   C94   S    
C9    C137  A    
C50   C98   A    
Cu10  O38   S    
C7    C72   S    
C52   C100  A    
Cu11  O44   S    
C116  C130  A    
O61   H53   S    
C13   C161  S    
C25   C38   A    
C84   H40   S    
C46   C94   A    
C27   C40   A    
Cu10  O47   S    
C30   H10   S    
C107  O47   A    
C11   C141  A    
C28   C36   A    
C66   H30   S    
C2    C73   S    
C160  O52   D    
C7    O12   A    
C41   O62   S    
C25   C97   S    
C14   C140  A    
C87   C152  S    
C6    O22   A    
C88   C151  S    
C67   C75   A    
C47   H19   S    
C61   H25   S    
C82   H38   S    
C51   H23   S    
Cu6   O6    S    
C92   O32   A    
C126  C128  A    
C22   C30   A    
Cu3   O27   S    
C101  O41   A    
C158  H42   S    
C77   H33   S    
C90   O1    A    
C165  O57   D    
C4    O15   A    
Cu12  O42   S    
C12   C143  A    
C166  O58   D    
C56   C102  S    
C72   C80   A    
C8    O11   A    
C85   O6    A    
Cu2   O26   S    
Cu4   O12   S    
C138  C146  A    
C64   H28   S    
C5    O21   A    
C123  H2    S    
C121  H4    S    
C113  C121  A    
C162  O54   D    
C122  H3    S    
C12   C136  A    
C164  H48   S    
C122  C124  A    
C25   C33   A    
C88   O7    A    
C106  O46   A    
C163  H47   S    
C131  C134  A    
C76   C84   A    
C109  C117  A    
C159  H43   S    
C7    O23   A    
Cu8   O8    S    
C86   O26   A    
C137  C145  A    
C90   C145  S    
C67   H31   S    
C14   C162  S    
C22   C41   A    
Cu5   O29   S    
C14   C115  A    
C168  H52   S    
C85   C150  S    
C105  O39   A    
C4    C75   S    
C43   O64   S    
Cu2   Cu5   S    
Cu7   O7    S    
C124  H1    S    
Cu11  O33   S    
C112  C126  A    
Cu1   O17   S    
C17   C165  S    
C47   C55   A    
C83   C99   A    
C161  H45   S    
C108  O48   A    
Cu9   O40   S    
C74   C82   A    
O68   H60   S    
C50   C58   A    
C89   O29   A    
Cu11  Cu12  S    
C54   C62   A    
C28   C39   A    
C23   C44   A    
Cu4   O20   S    
C31   H11   S    
C1    O14   A    
C130  C132  A    
O64   H56   S    
C79   C95   A    
C11   C135  A    
C5    O10   A    
C152  C155  A    
C46   C54   A    
Cu1   O9    S    
C151  C156  A    
C18   C111  A    
Cu6   O22   S    
Cu3   O11   S    
C33   H13   S    
C63   H27   S    
C68   C76   A    
C10   C139  A    
C3    O19   A    
O62   H54   S    
C1    O17   A    
C38   O65   S    
C116  C124  A    
C57   C65   A    
C26   C37   A    
C17   C143  A    
C33   C41   A    
C142  C150  A    
C18   C144  A    
C75   C83   A    
C80   H36   S    
C53   C103  S    
C104  O34   A    
C77   C93   A    
C12   C142  A    
C58   C108  S    
C4    O20   A    
C50   H22   S    
C13   C116  A    
C18   C166  S    
C60   C68   A    
C144  C152  A    
O67   H59   S    
C29   C37   A    
C44   O63   S    
C106  O40   A    
Cu2   O2    S    
Cu9   Cu10  S    
C70   C78   A    
O63   H55   S    
C140  C148  A    
C141  C149  A    
C139  C147  A    
Cu10  O39   S    
C163  O55   D    
Cu7   O23   S    
Cu12  O35   S    
C49   H21   S    
C65   C73   A    
C52   H24   S    
C147  C154  A    
C103  O33   A    
C26   C34   A    
Cu6   O14   S    
C132  C133  A    
Cu8   O32   S    
C36   H16   S    
Cu3   O19   S    
C80   C96   A    
C11   C144  A    
Cu9   O45   S    
C145  C153  A    
C28   C100  S    
C32   C40   A    
C150  C156  A    
C91   C148  S    
C58   C66   A    
C51   C99   A    
C89   C146  S    
Cu4   O4    S    
C20   C142  A    
Cu9   O37   S    
C158  O50   D    
C86   C149  S    
C78   H34   S    
C165  H49   S    
C55   C63   A    
C157  O49   D    
C39   O68   S    
C42   O61   S    
C19   C167  S    
C15   C114  A    
C3    C76   S    
C26   C98   S    
C65   H29   S    
C117  H8    S    
C57   C107  S    
C118  H7    S    
C79   H35   S    
C167  H51   S    
C164  O56   D    
C51   C59   A    
C40   O67   S    
C17   C112  A    
C81   H37   S    
C115  C129  A    
C19   C110  A    
C61   C69   A    
C48   C56   A    
Cu5   O5    S    
C113  C131  A    
Cu3   Cu8   S    
C114  C132  A    
C107  O37   A    
C10   C134  A    
C91   O4    A    
C89   O2    A    
Cu7   O15   S    
C37   O66   S    
C55   C101  S    
Cu11  O41   S    
C68   H32   S    
C86   O5    A    
C8    O24   A    
Cu1   O25   S    
C81   C97   A    
Cu10  O46   S    
C31   C39   A    
C34   H14   S    
C168  O60   D    
C64   C72   A    
C101  O35   A    
C160  H44   S    
C20   C109  A    
C114  C122  A    
C120  H5    S    
Cu11  O36   S    
C91   O31   A    
C47   C95   A    
C92   O3    A    
C129  C131  A    
