data_mof_unit_21730.cif
_audit_creation_date              2012-12-11T15:49:22-0500
_audit_creation_method            fapswitch 2.2
_symmetry_space_group_name_H-M    P1
_symmetry_Int_Tables_number       1
_space_group_crystal_system       triclinic
_cell_length_a                    8.2875
_cell_length_b                    18.959775
_cell_length_c                    26.978649
_cell_angle_alpha                 95.134024
_cell_angle_beta                  92.743439
_cell_angle_gamma                 85.394657
_cell_volume                      4204.9588553

loop_
_atom_site_label
_atom_site_type_symbol
_atom_type_description
_atom_site_fract_x
_atom_site_fract_y
_atom_site_fract_z
_atom_type_partial_charge
Ba1   Ba    Ba6+2 0.854000 0.466860 0.523710 1.657295
Ba2   Ba    Ba6+2 0.335820 0.533080 0.476290 1.653527
C1    C     C_3   0.688882 0.213389 0.658697 -0.366592
C2    C     C_R   0.918210 0.579653 0.178271 0.586494
C3    C     C_2   0.768115 0.554554 0.273545 -0.087388
C4    C     C_3   0.219550 0.269840 0.658336 0.314765
C5    C     C_3   0.745536 0.570519 0.328654 -0.069878
C6    C     C_1   0.982016 0.489710 0.343415 0.072500
C7    C     C_2   0.028732 0.493284 0.296881 -0.093557
C8    C     C_2   0.911953 0.523261 0.257718 0.179600
C9    C     C_R   0.027917 0.515563 0.102934 -0.133693
C10   C     C_R   0.063052 0.455732 0.130256 -0.020178
C11   C     C_R   0.136848 0.393746 0.106189 -0.064197
C12   C     C_3   0.663308 0.285679 0.638074 0.376499
C13   C     C_R   0.953665 0.578060 0.127109 -0.091576
C14   C     C_2   0.839121 0.516631 0.358509 -0.200510
C15   C     C_2   0.350424 0.481996 0.641649 -0.266451
C16   C     C_3   0.189066 0.255695 0.711661 0.292341
C17   C     C_R   0.187425 0.447762 0.976753 0.017676
C18   C     C_R   0.062804 0.569639 0.972336 0.036686
C19   C     C_R   0.144511 0.507467 0.949120 0.051206
C20   C     C_R   0.272617 0.387990 0.952061 -0.102386
C21   C     C_R   0.311380 0.386498 0.902218 -0.073338
C22   C     C_R   0.267379 0.444399 0.874315 -0.036700
C23   C     C_3   0.511447 0.644185 0.626561 0.298721
C24   C     C_R   0.183662 0.505015 0.897677 -0.078943
C25   C     C_R   0.139332 0.563271 0.869602 -0.033180
C26   C     C_R   0.179863 0.560468 0.818982 0.584625
C27   C     C_R   0.305728 0.442865 0.823529 0.583287
C28   C     C_3   0.228867 0.306696 0.392318 0.725656
C29   C     C_2   0.457926 0.484264 0.729749 -0.063969
C30   C     C_3   0.499518 0.488305 0.675780 -0.069778
C31   C     C_1   0.211617 0.513061 0.656899 0.044405
C32   C     C_2   0.173286 0.514129 0.704293 -0.087669
C33   C     C_2   0.302443 0.498575 0.743910 0.213178
C34   C     C_3   0.495717 0.671755 0.680969 -0.385479
C35   C     C_R   0.144767 0.449778 0.027809 0.033379
C36   C     C_R   0.066856 0.512722 0.051403 0.044113
C37   C     C_R   0.028169 0.572921 0.024037 -0.036597
C38   C     C_R   0.176854 0.390735 0.056397 -0.103495
C39   C     C_R   0.916773 0.637689 0.099507 0.429025
C40   C     C_3   0.153149 0.271865 0.433626 -0.355369
C41   C     C_R   0.017136 0.626460 0.942563 -0.103853
C42   C     C_R   0.055091 0.623331 0.892649 -0.066193
C43   C     C_R   0.956892 0.635054 0.049624 -0.159460
C44   C     C_R   0.400573 0.300752 0.524871 -0.254467
C45   C     C_3   0.068303 0.686661 0.338947 0.330841
C46   C     C_R   0.536492 0.277644 0.497599 0.047804
C47   C     C_R   0.589852 0.205496 0.493404 -0.138890
C48   C     C_R   0.503816 0.155504 0.514593 0.013220
C49   C     C_R   0.362422 0.179156 0.540294 -0.140211
C50   C     C_R   0.309665 0.251590 0.544691 -0.008605
C51   C     C_R   0.560101 0.036113 0.547597 -0.137265
C52   C     C_3   0.004410 0.681780 0.579488 0.294552
C53   C     C_R   0.606734 0.962450 0.541346 0.414863
C54   C     C_R   0.656359 0.931767 0.494093 0.022436
C55   C     C_R   0.656459 0.974998 0.454458 -0.151036
C56   C     C_3   0.082812 0.708564 0.286390 0.314821
C57   C     C_R   0.606811 0.047355 0.461022 -0.088764
C58   C     C_R   0.557204 0.078560 0.507570 0.021514
C59   C     C_R   0.845118 0.828084 0.461013 -0.144598
C60   C     C_R   0.890285 0.754698 0.456249 0.014633
C61   C     C_R   0.654326 0.732795 0.500011 0.029452
C62   C     C_R   0.606255 0.805225 0.504087 -0.069483
C63   C     C_R   0.702093 0.854040 0.485396 0.020712
C64   C     C_3   0.983206 0.761714 0.592281 -0.365009
C65   C     C_R   0.791343 0.707563 0.474217 -0.297653
C66   C     C_3   0.752243 0.319200 0.371378 0.695115
C67   C     C_3   0.528515 0.723852 0.359489 0.353888
C68   C     C_3   0.793919 0.239718 0.358136 -0.335234
C69   C     C_3   0.587045 0.354830 0.302766 0.277375
C70   C     C_3   0.599363 0.372858 0.249371 -0.336898
C71   C     C_3   0.314938 0.223580 0.785355 0.317188
C72   C     C_3   0.478313 0.212066 0.812802 -0.292232
C73   C     C_3   0.992378 0.826141 0.277295 0.298175
C74   C     C_3   0.842446 0.875616 0.268056 -0.327403
C75   C     C_3   0.681389 0.706661 0.109630 0.324137
C76   C     C_3   0.601426 0.769075 0.141223 -0.287730
C77   C     C_3   0.486330 0.934460 0.612591 0.240880
C78   C     C_3   0.484510 0.795775 0.339628 -0.367182
C79   C     C_3   0.464376 0.868950 0.639513 -0.313294
C80   C     C_3   0.384166 0.199277 0.368456 0.116461
C81   C     C_R   0.022551 0.458523 0.180983 0.588414
H1    H     H_    0.765474 0.290626 0.613786 0.110806
H2    H     H_    0.851392 0.340996 0.394434 0.058228
H3    H     H_    0.691636 0.170969 0.627500 0.069945
H4    H     H_    0.796748 0.210417 0.391986 0.028612
H5    H     H_    0.913832 0.231481 0.340974 0.131913
H6    H     H_    0.704255 0.216665 0.331001 0.079037
H7    H     H_    0.547721 0.288216 0.615814 -0.056440
H8    H     H_    0.589118 0.205541 0.683107 0.157625
H9    H     H_    0.389361 0.631687 0.611233 0.030783
H10   H     H_    0.595247 0.595379 0.624162 0.035838
H11   H     H_    0.418335 0.722459 0.683750 0.132936
H12   H     H_    0.049307 0.242467 0.419257 0.099536
H13   H     H_    0.438805 0.632864 0.701545 0.078530
H14   H     H_    0.617234 0.680928 0.698390 0.125224
H15   H     H_    0.805686 0.209319 0.680586 0.124970
H16   H     H_    0.144563 0.636260 0.342608 0.028708
H17   H     H_    0.939897 0.677805 0.344485 -0.047729
H18   H     H_    0.202610 0.729713 0.282185 0.028139
H19   H     H_    0.081881 0.659998 0.260416 0.053166
H20   H     H_    0.662466 0.713824 0.358629 -0.037061
H21   H     H_    0.490540 0.726499 0.398616 0.064097
H22   H     H_    0.552815 0.836817 0.361616 0.061640
H23   H     H_    0.240122 0.233027 0.450401 0.025489
H24   H     H_    0.353120 0.810827 0.342787 0.131064
H25   H     H_    0.268306 0.322942 0.658493 0.000021
H26   H     H_    0.515876 0.793888 0.299941 0.123800
H27   H     H_    0.149354 0.472425 0.286584 0.126916
H28   H     H_    0.164645 0.346675 0.125954 0.117519
H29   H     H_    0.555168 0.475535 0.757455 0.098130
H30   H     H_    0.376959 0.339266 0.885564 0.099062
H31   H     H_    0.313507 0.341202 0.970295 0.064289
H32   H     H_    0.231600 0.340485 0.041337 0.064203
H33   H     H_    0.675607 0.574674 0.247473 0.111300
H34   H     H_    0.113045 0.313658 0.462691 0.106103
H35   H     H_    0.949209 0.674366 0.956317 0.066398
H36   H     H_    0.309796 0.227645 0.643445 -0.021222
H37   H     H_    0.017254 0.668684 0.871983 0.120692
H38   H     H_    0.048908 0.526851 0.714749 0.121374
H39   H     H_    0.931903 0.683941 0.032333 0.084454
H40   H     H_    0.781675 0.494878 0.388547 0.076368
H41   H     H_    0.357264 0.452777 0.605205 0.068290
H42   H     H_    0.497340 0.823574 0.523441 0.093678
H43   H     H_    0.529091 0.061032 0.583908 0.052880
H44   H     H_    0.696795 0.188205 0.472753 0.073363
H45   H     H_    0.886009 0.661856 0.567508 0.011400
H46   H     H_    0.691808 0.952303 0.417930 0.078574
H47   H     H_    0.112394 0.301309 0.729089 0.049387
H48   H     H_    0.604929 0.078811 0.429377 0.058334
H49   H     H_    0.924187 0.864652 0.447976 0.075689
H50   H     H_    0.289886 0.141293 0.554829 0.064769
H51   H     H_    0.828618 0.651374 0.471999 0.066296
H52   H     H_    0.358179 0.356355 0.527221 0.068979
H53   H     H_    0.122904 0.206553 0.710248 -0.002789
H54   H     H_    0.329608 0.336847 0.408407 -0.002678
H55   H     H_    0.536329 0.302178 0.301517 0.074235
H56   H     H_    0.089402 0.670632 0.548759 0.071397
H57   H     H_    0.501625 0.395210 0.321932 0.122905
H58   H     H_    0.684834 0.333317 0.229388 0.144758
H59   H     H_    0.478276 0.372239 0.229889 0.089154
H60   H     H_    0.643175 0.426424 0.248833 0.128860
H61   H     H_    0.257926 0.172015 0.781318 -0.000234
H62   H     H_    0.237356 0.263601 0.808042 0.056809
H63   H     H_    0.540654 0.262068 0.817061 0.165741
H64   H     H_    0.460768 0.194818 0.850312 0.037650
H65   H     H_    0.555672 0.170428 0.791622 0.104348
H66   H     H_    0.081479 0.832811 0.248780 0.036208
H67   H     H_    0.892305 0.774393 0.621345 0.144811
H68   H     H_    0.044827 0.841764 0.315070 0.047817
H69   H     H_    0.753482 0.871754 0.296975 0.108519
H70   H     H_    0.876432 0.931273 0.269693 0.055740
H71   H     H_    0.786042 0.861161 0.230742 0.134320
H72   H     H_    0.623340 0.657876 0.117335 0.026359
H73   H     H_    0.659169 0.716143 0.069663 0.004133
H74   H     H_    0.655073 0.818921 0.134247 0.108242
H75   H     H_    0.469456 0.774467 0.131637 0.050198
H76   H     H_    0.619392 0.760321 0.181348 0.156805
H77   H     H_    0.370540 0.947676 0.591367 0.019780
H78   H     H_    0.941412 0.789031 0.558924 0.079918
H79   H     H_    0.510871 0.978833 0.641055 0.055063
H80   H     H_    0.579424 0.851501 0.659234 0.140998
H81   H     H_    0.368658 0.881252 0.667092 0.058361
H82   H     H_    0.426876 0.825263 0.612349 0.132276
H83   H     H_    0.311739 0.158407 0.381706 0.044046
H84   H     H_    0.475291 0.216145 0.397446 0.011166
H85   H     H_    0.449296 0.173564 0.335892 0.068948
H86   H     H_    0.100598 0.781879 0.606301 0.110905
N1    N     N_R   0.951936 0.520307 0.204917 -0.432109
N2    N     N_R   0.261995 0.500555 0.796269 -0.424807
O1    O     O_2   0.913240 0.537010 0.617740 -0.463154
O2    O     O_2   0.225478 0.750647 0.466059 -0.488627
O3    O     O_3   0.122569 0.740103 0.373565 -0.621898
O4    O     O_3   0.145240 0.536960 0.557560 -0.489602
O5    O     O_3   0.557280 0.416300 0.475860 -0.453147
O6    O     O_2   0.376710 0.670070 0.522470 -0.462240
O7    O     O_3   0.573841 0.696658 0.601245 -0.646113
O8    O     O_2   0.418307 0.533291 0.322007 -0.507354
O9    O     O_3   0.448687 0.671050 0.330046 -0.606370
O10   O     O_2   0.048096 0.405361 0.203505 -0.590700
O11   O     O_2   0.377132 0.389846 0.803487 -0.587445
O12   O     O_3   0.608149 0.330299 0.397351 -0.681142
O13   O     O_2   0.858056 0.634499 0.199247 -0.545505
O14   O     O_2   0.143872 0.611936 0.795350 -0.601437
O15   O     O_3   0.669960 0.410470 0.588880 -0.490503
O16   O     O_2   0.834545 0.444329 0.673177 -0.479208
O17   O     O_3   0.065268 0.650177 0.622057 -0.629698
O18   O     O_3   0.656347 0.339215 0.677577 -0.580505
O19   O     O_2   0.812980 0.329910 0.477500 -0.496003
O20   O     O_3   0.078660 0.374870 0.564770 -0.461569
O21   O     O_2   0.972208 0.249204 0.536745 -0.483669
O22   O     O_3   0.741923 0.355738 0.327382 -0.669445
O23   O     O_3   0.073462 0.267255 0.629915 -0.634473
O24   O     O_3   0.339038 0.247476 0.738395 -0.635261
O25   O     O_3   0.948528 0.755367 0.273552 -0.605602
O26   O     O_3   0.849333 0.701095 0.121839 -0.597745
O27   O     O_3   0.619532 0.920354 0.581318 -0.651924
O28   O     O_3   0.281495 0.256742 0.352709 -0.627860
O29   O     O_2   0.276450 0.462960 0.382230 -0.472652
O30   O     O_3   0.044470 0.462980 0.442430 -0.497261
O31   O     O_3   0.519740 0.589470 0.411120 -0.464688
O32   O     O_3   0.106887 0.351098 0.371265 -0.632845
O33   O     O_3   0.632420 0.583650 0.524140 -0.470354
O34   O     O_3   0.111040 0.625070 0.435230 -0.489865
P1    P     P_3+3 0.082480 0.557670 0.610090 1.001519
P2    P     P_3+3 0.635220 0.340300 0.462910 0.954548
P3    P     P_3+3 0.109890 0.283469 0.568797 0.940270
P4    P     P_3+3 0.107220 0.442270 0.389900 0.994095
P5    P     P_3+3 0.087663 0.717890 0.433344 0.940979
P6    P     P_3+3 0.665606 0.422055 0.653985 0.985824
P7    P     P_3+3 0.561325 0.672357 0.537197 0.950813
P8    P     P_3+3 0.531430 0.588431 0.346829 0.958789

loop_
_geom_bond_atom_site_label_1
_geom_bond_atom_site_label_2
_ccdc_geom_bond_type
C70   H60   S    
C53   C54   A    
C66   O12   S    
C23   H10   S    
C33   N2    S    
C71   C72   S    
C64   H86   S    
O2    P5    D    
Ba2   O31   S    
C12   H1    S    
C61   P7    S    
C19   C24   A    
C68   H5    S    
C18   C41   A    
C45   H16   S    
Ba1   O5    S    
C80   H85   S    
C75   C76   S    
C70   H59   S    
C28   O32   S    
C78   H24   S    
C57   H48   S    
C24   C25   A    
C2    N1    Am   
C60   C65   A    
Ba2   O29   S    
O6    P7    D    
C72   H65   S    
O9    P8    S    
C17   C19   A    
C14   H40   S    
C22   C24   A    
C64   H67   S    
C35   C38   A    
C67   O9    S    
C36   C37   A    
C32   C33   S    
C4    H25   S    
C55   C57   A    
C38   H32   S    
Ba2   O34   S    
C42   H37   S    
C3    C8    D    
C54   C63   S    
C81   N1    Am   
C44   C50   A    
C74   H70   S    
O12   P2    S    
C54   C55   A    
C81   O10   D    
C1    H8    S    
Ba1   Ba2   S    
C56   O25   S    
C22   C27   A    
C12   H7    S    
C11   C38   A    
C74   H69   S    
C17   C35   A    
C59   H49   S    
Ba2   O5    S    
C44   H52   S    
C12   O18   S    
C9    C13   A    
C25   C42   A    
C76   H75   S    
C52   H56   S    
C73   H68   S    
C6    C7    D    
C23   H9    S    
C78   H26   S    
C21   C22   A    
C16   H53   S    
C34   H14   S    
C56   H19   S    
Ba2   O6    S    
C7    C8    S    
C62   H42   S    
C37   C43   A    
Ba1   O19   S    
C67   H20   S    
C28   O28   S    
Ba1   O30   S    
C57   C58   A    
C6    C14   D    
C28   H54   S    
C52   O17   S    
O15   P6    S    
C1    H3    S    
C66   H2    S    
C79   H80   S    
O33   P7    S    
Ba2   O30   S    
C15   C31   D    
C3    H33   S    
C47   H44   S    
C68   H4    S    
O30   P4    S    
C51   C58   A    
C48   C49   A    
C69   H55   S    
C44   C46   A    
C80   H84   S    
C51   C53   A    
O19   P2    D    
C70   H58   S    
C4    C16   S    
C61   C65   A    
C31   P1    S    
C27   O11   D    
C40   H12   S    
C72   H64   S    
C17   C20   A    
Ba2   O33   S    
C13   C39   A    
C39   O26   S    
O18   P6    S    
C77   H77   S    
C3    C5    S    
C30   P6    S    
C23   O7    S    
C41   H35   S    
C65   H51   S    
C52   H45   S    
C78   H22   S    
C27   N2    Am   
C45   H17   S    
C49   C50   A    
C64   H78   S    
C71   H62   S    
C9    C36   A    
C73   C74   S    
C35   C36   A    
C34   H11   S    
Ba2   O4    S    
C21   H30   S    
C34   H13   S    
C15   H41   S    
C29   C30   S    
C29   H29   S    
O17   P1    S    
O8    P8    D    
C31   C32   D    
C60   P5    S    
O7    P7    S    
C56   H18   S    
C2    O13   D    
Ba1   P1    S    
C40   H23   S    
C5    P8    S    
C1    C12   S    
Ba1   O20   S    
C66   C68   S    
C46   C47   A    
O16   P6    D    
O21   P3    D    
C32   H38   S    
C71   O24   S    
C41   C42   A    
C79   H81   S    
C29   C33   D    
C16   H47   S    
C68   H6    S    
C77   H79   S    
C6    P4    S    
C4    H36   S    
C4    O23   S    
C76   H74   S    
O5    P2    S    
C77   C79   S    
C80   H83   S    
C67   H21   S    
C55   H46   S    
C7    H27   S    
C18   C37   A    
Ba1   O4    S    
Ba2   P4    S    
C39   C43   A    
C16   O24   S    
O3    P5    S    
O32   P4    S    
C72   H63   S    
C5    C14   S    
C9    C10   A    
C40   H34   S    
C69   H57   S    
C52   C64   S    
C43   H39   S    
C8    N1    S    
O23   P3    S    
Ba1   O1    S    
O29   P4    D    
C26   N2    Am   
C48   C58   S    
C62   C63   A    
C2    C13   A    
O1    P1    D    
C80   O28   S    
C75   H73   S    
C26   O14   D    
C73   O25   S    
C45   C56   S    
C49   H50   S    
C1    H15   S    
Ba1   O15   S    
O34   P5    S    
C73   H66   S    
C46   P2    S    
C74   H71   S    
O20   P3    S    
O31   P8    S    
C59   C60   A    
Ba1   P2    S    
C45   O3    S    
C69   O22   S    
C51   H43   S    
C23   C34   S    
C61   C62   A    
C53   O27   S    
C59   C63   A    
C76   H76   S    
C20   H31   S    
C69   C70   S    
C18   C19   A    
C10   C81   A    
C11   H28   S    
C47   C48   A    
C25   C26   A    
C77   O27   S    
C15   C30   S    
C79   H82   S    
C20   C21   A    
C28   C40   S    
C67   C78   S    
O4    P1    S    
C10   C11   A    
C66   O22   S    
Ba1   O33   S    
C75   O26   S    
C75   H72   S    
C71   H61   S    
C50   P3    S    
