data_mof_unit_18572.cif
_audit_creation_date              2012-12-11T15:18:06-0500
_audit_creation_method            fapswitch 2.2
_symmetry_space_group_name_H-M    P1
_symmetry_Int_Tables_number       1
_space_group_crystal_system       triclinic
_cell_length_a                    15.710175
_cell_length_b                    15.693593
_cell_length_c                    34.579492
_cell_angle_alpha                 90.141559
_cell_angle_beta                  89.645607
_cell_angle_gamma                 120.011614
_cell_volume                      7382.32891515

loop_
_atom_site_label
_atom_site_type_symbol
_atom_type_description
_atom_site_fract_x
_atom_site_fract_y
_atom_site_fract_z
_atom_type_partial_charge
C1    C     C_R   0.577929 0.441969 0.554588 0.597669
C2    C     C_R   0.520529 0.011744 0.209614 0.332250
C3    C     C_3   0.438977 0.556556 0.548981 -0.440653
C4    C     C_3   0.558507 0.951919 0.568685 -0.282020
C5    C     C_3   0.461306 0.897109 0.546808 -0.441431
C6    C     C_3   0.623070 0.034665 0.068291 -0.269684
C7    C     C_3   0.644221 0.137683 0.057134 -0.443308
C8    C     C_3   0.515055 0.441367 0.070637 -0.272040
C9    C     C_3   0.624799 0.491978 0.061293 -0.432035
C10   C     C_3   0.032620 0.671870 0.081420 -0.242378
C11   C     C_3   0.929616 0.658993 0.085325 -0.458126
C12   C     C_3   0.811810 0.326592 0.693993 -0.278686
C13   C     C_R   0.492646 0.513419 0.212756 0.334198
C14   C     C_3   0.851158 0.258636 0.705176 -0.434136
C15   C     C_3   0.661551 0.477547 0.694382 -0.280138
C16   C     C_3   0.739465 0.582771 0.704769 -0.431925
C17   C     C_3   0.514301 0.182133 0.694597 -0.280149
C18   C     C_3   0.407193 0.147707 0.704974 -0.434069
C19   C     C_3   0.314187 0.891162 0.188140 -0.282358
C20   C     C_3   0.299085 0.808339 0.215480 -0.444431
C21   C     C_3   0.417863 0.642692 0.193038 -0.279877
C22   C     C_3   0.313819 0.579636 0.209150 -0.441402
C23   C     C_3   0.992880 0.336798 0.168901 -0.242676
C24   C     C_R   0.011410 0.508147 0.210404 0.333265
C25   C     C_3   0.084510 0.343471 0.186852 -0.416004
C26   C     C_3   0.092328 0.665396 0.654815 -0.255275
C27   C     C_3   0.193101 0.673518 0.651524 -0.430030
C28   C     C_3   0.357837 0.489239 0.650443 -0.268796
C29   C     C_3   0.266470 0.390673 0.659702 -0.427549
C30   C     C_3   0.571688 0.902797 0.652749 -0.256702
C31   C     C_3   0.478869 0.801800 0.650919 -0.433086
C32   C     C_3   0.675508 0.103504 0.151436 -0.263556
C33   C     C_3   0.683210 0.202500 0.161087 -0.430558
C34   C     C_3   0.550633 0.415842 0.155235 -0.258041
C35   C     C_R   0.005768 0.434462 0.852422 0.006534
C36   C     C_3   0.657804 0.477475 0.167949 -0.430820
C37   C     C_3   0.034872 0.681186 0.169479 -0.265015
C38   C     C_3   0.934598 0.655208 0.186623 -0.424559
C39   C     C_3   0.965075 0.335051 0.832426 -0.273737
C40   C     C_3   0.854381 0.287030 0.826176 -0.441057
C41   C     C_3   0.666246 0.625774 0.831632 -0.262017
C42   C     C_3   0.699325 0.734188 0.824633 -0.416817
C43   C     C_3   0.374455 0.036256 0.832566 -0.220634
C44   C     C_3   0.267829 0.958187 0.824589 -0.395233
C45   C     C_3   0.338622 0.951244 0.331501 -0.271124
C46   C     C_R   0.566209 0.572054 0.851721 0.001076
C47   C     C_3   0.276656 0.848966 0.349311 -0.433951
C48   C     C_3   0.565517 0.671841 0.345937 -0.263346
C49   C     C_3   0.675218 0.743153 0.339419 -0.413012
C50   C     C_3   0.071464 0.397064 0.338629 -0.232691
C51   C     C_3   0.004962 0.296103 0.320796 -0.414139
C52   C     C_R   0.429993 0.991730 0.851766 0.044204
C53   C     C_R   0.439238 0.007978 0.350678 0.000393
C54   C     C_R   0.545724 0.570637 0.358711 -0.001459
C55   C     C_R   0.011566 0.440886 0.354632 0.044703
C56   C     C_R   0.033310 0.445834 0.891954 0.202519
C57   C     C_R   0.558277 0.136926 0.554864 0.599321
C58   C     C_R   0.554961 0.588711 0.891495 0.212610
C59   C     C_R   0.414017 0.967458 0.891361 0.205110
C60   C     C_R   0.448868 0.038325 0.390062 0.209259
C61   C     C_R   0.565158 0.553255 0.397334 0.204895
C62   C     C_R   0.981978 0.426084 0.393921 0.201929
C63   C     C_R   0.084232 0.620632 0.888697 0.180567
C64   C     C_R   0.380537 0.463276 0.888656 0.179546
C65   C     C_R   0.540820 0.920298 0.889620 0.195154
C66   C     C_R   0.623051 0.086006 0.388124 0.181918
C67   C     C_R   0.493763 0.377809 0.382764 0.180143
C68   C     C_R   0.862456 0.421231 0.554998 0.596851
C69   C     C_R   0.895610 0.518094 0.384052 0.199378
C70   C     C_R   0.052262 0.607820 0.850429 -0.147222
C71   C     C_R   0.392541 0.446287 0.849933 -0.144861
C72   C     C_R   0.558814 0.948574 0.850764 -0.148365
C73   C     C_R   0.613709 0.060220 0.349031 -0.145276
C74   C     C_R   0.475093 0.395176 0.345218 -0.143786
C75   C     C_R   0.926973 0.533491 0.345492 -0.144982
C76   C     C_R   0.019512 0.518201 0.831663 -0.012314
C77   C     C_R   0.481615 0.504248 0.830839 -0.020831
C78   C     C_R   0.500223 0.977710 0.831248 -0.031966
C79   C     C_R   0.441934 0.577527 0.054302 0.580470
C80   C     C_R   0.525207 0.028087 0.329828 -0.017667
C81   C     C_R   0.504740 0.490277 0.332381 -0.023614
C82   C     C_R   0.980725 0.492470 0.330335 -0.027936
C83   C     C_R   0.080744 0.540544 0.908808 0.082203
C84   C     C_R   0.460314 0.540097 0.908666 0.085170
C85   C     C_R   0.462800 0.922679 0.909390 0.034771
C86   C     C_R   0.542059 0.081872 0.408055 0.090692
C87   C     C_R   0.542687 0.457725 0.408341 0.097999
C88   C     C_R   0.918632 0.459632 0.408117 0.039014
C89   C     C_R   0.578270 0.441585 0.445328 0.625304
C90   C     C_R   0.132922 0.556691 0.054083 0.552406
C91   C     C_R   0.558439 0.135958 0.445155 0.609913
C92   C     C_R   0.864111 0.422274 0.445166 0.557159
C93   C     C_R   0.442099 0.577615 0.945341 0.600768
C94   C     C_R   0.135894 0.558134 0.945351 0.599638
C95   C     C_R   0.422995 0.865047 0.945546 0.556454
C96   C     C_R   0.902293 0.446319 0.594330 0.062685
C97   C     C_R   0.552172 0.457917 0.593689 0.062767
C98   C     C_R   0.542265 0.095016 0.593964 0.066394
C99   C     C_R   0.450172 0.913253 0.092908 0.055638
C100  C     C_R   0.454090 0.554757 0.094065 0.056303
C101  C     C_R   0.421353 0.863406 0.054922 0.592193
C102  C     C_R   0.067631 0.530435 0.088982 -0.018775
C103  C     C_R   0.849861 0.376180 0.623331 0.250085
C104  C     C_R   0.617398 0.467504 0.623286 0.250410
C105  C     C_R   0.525679 0.147044 0.623475 0.253687
C106  C     C_R   0.376615 0.877545 0.121856 0.237842
C107  C     C_R   0.425541 0.598924 0.122801 0.234158
C108  C     C_R   0.039152 0.440606 0.108431 0.217902
C109  C     C_R   0.874759 0.399501 0.662440 -0.010824
C110  C     C_R   0.594751 0.475660 0.662027 -0.011150
C111  C     C_R   0.522810 0.119739 0.662410 -0.008927
C112  C     C_R   0.982149 0.514038 0.712621 0.334362
C113  C     C_R   0.397893 0.918240 0.159222 -0.006805
C114  C     C_R   0.441141 0.587824 0.161976 -0.004968
C115  C     C_R   0.016933 0.431756 0.148088 0.029334
C116  C     C_R   0.954802 0.493125 0.671911 -0.000276
C117  C     C_R   0.508052 0.478919 0.670328 0.004736
C118  C     C_R   0.535644 0.038793 0.671139 0.001149
C119  C     C_R   0.496341 0.987157 0.168653 0.013818
C120  C     C_R   0.481792 0.528098 0.171764 0.014047
C121  C     C_R   0.021199 0.512414 0.168067 -0.006213
C122  C     C_R   0.009784 0.563732 0.642892 -0.001612
C123  C     C_R   0.484183 0.484275 0.710843 0.335613
C124  C     C_R   0.445381 0.476335 0.640433 0.002010
C125  C     C_R   0.551511 0.985137 0.641608 -0.000713
C126  C     C_R   0.571215 0.025610 0.139847 0.013600
C127  C     C_R   0.507679 0.480080 0.142942 0.010919
C128  C     C_R   0.032533 0.595627 0.147455 0.003951
C129  C     C_R   0.984441 0.539015 0.603327 -0.037172
C130  C     C_R   0.466239 0.462667 0.601586 -0.040804
C131  C     C_R   0.551544 0.011734 0.602244 -0.036415
C132  C     C_R   0.547261 0.990195 0.101032 -0.034429
C133  C     C_R   0.492650 0.493064 0.103284 -0.039790
C134  C     C_R   0.528942 0.009689 0.711681 0.334630
C135  C     C_R   0.046402 0.599642 0.106598 -0.007138
C136  C     C_R   0.006389 0.517022 0.789822 0.345206
C137  C     C_R   0.481116 0.496803 0.788597 0.343515
C138  C     C_R   0.510907 0.987826 0.789172 0.341089
C139  C     C_R   0.526970 0.024386 0.287535 0.335052
C140  C     C_R   0.498244 0.501781 0.290515 0.340570
C141  C     C_R   0.993353 0.496313 0.288245 0.336217
C142  C     C_3   0.044253 0.608057 0.570294 -0.278973
C143  C     C_3   0.100931 0.568332 0.547592 -0.444872
C144  C     C_3   0.400272 0.456375 0.568302 -0.285061
Cr1   Cr    Cr6+3 0.522350 0.263930 0.500020 1.104452
Cr2   Cr    Cr6+3 0.736070 0.258420 0.500020 1.099328
Cr3   Cr    Cr6+3 0.741580 0.477650 0.500020 1.102262
Cr4   Cr    Cr6+3 0.263930 0.522350 0.000020 1.116353
Cr5   Cr    Cr6+3 0.258420 0.736070 0.000020 1.089510
Cr6   Cr    Cr6+3 0.477650 0.741580 0.000020 1.101894
H1    H     H_    0.059411 0.670249 0.834271 0.119845
H2    H     H_    0.253808 0.758967 0.135567 0.314860
H3    H     H_    0.699935 0.539988 0.147848 0.147044
H4    H     H_    0.662840 0.506853 0.197500 0.189338
H5    H     H_    0.506139 0.366086 0.179177 0.166252
H6    H     H_    0.547768 0.365903 0.132105 0.138241
H7    H     H_    0.873945 0.603775 0.167564 0.154273
H8    H     H_    0.924217 0.621093 0.215560 0.183930
H9    H     H_    0.930142 0.723197 0.190253 0.134584
H10   H     H_    0.089440 0.704717 0.193115 0.153947
H11   H     H_    0.061165 0.747311 0.151067 0.143192
H12   H     H_    0.815894 0.276611 0.854315 0.152388
H13   H     H_    0.334826 0.648334 0.130391 0.322007
H14   H     H_    0.837295 0.333058 0.806987 0.172582
H15   H     H_    0.826594 0.213967 0.812339 0.154142
H16   H     H_    0.002264 0.342573 0.804311 0.172057
H17   H     H_    0.980294 0.283763 0.848989 0.159498
H18   H     H_    0.644553 0.741181 0.806848 0.185353
H19   H     H_    0.708765 0.773842 0.852283 0.165564
H20   H     H_    0.770779 0.769880 0.808955 0.136176
H21   H     H_    0.722256 0.618695 0.848494 0.127420
H22   H     H_    0.665659 0.591644 0.803435 0.163484
H23   H     H_    0.264520 0.898372 0.806304 0.173099
H24   H     H_    0.010468 0.359174 0.063049 0.334499
H25   H     H_    0.227610 0.926000 0.852047 0.194461
H26   H     H_    0.230606 0.992329 0.809151 0.127795
H27   H     H_    0.375952 0.094395 0.851452 0.179059
H28   H     H_    0.409931 0.073818 0.805035 0.139606
H29   H     H_    0.315498 0.806453 0.346284 0.159687
H30   H     H_    0.261359 0.853398 0.380373 0.182522
H31   H     H_    0.205326 0.808758 0.333968 0.143590
H32   H     H_    0.299172 0.993300 0.333104 0.133216
H33   H     H_    0.344251 0.939144 0.300241 0.167838
H34   H     H_    0.717598 0.755038 0.366375 0.163457
H35   H     H_    0.147153 0.552966 0.567318 0.151275
H36   H     H_    0.705021 0.714364 0.316976 0.183388
H37   H     H_    0.686138 0.815240 0.329537 0.146863
H38   H     H_    0.525784 0.667527 0.318945 0.167426
H39   H     H_    0.535009 0.702558 0.367280 0.126906
H40   H     H_    0.952539 0.245184 0.342832 0.179401
H41   H     H_    0.963075 0.301946 0.296197 0.166024
H42   H     H_    0.050425 0.265076 0.309900 0.137106
H43   H     H_    0.125151 0.446518 0.316665 0.148288
H44   H     H_    0.116184 0.389469 0.361667 0.196189
H45   H     H_    0.120401 0.759227 0.888006 0.323311
H46   H     H_    0.050246 0.499798 0.531937 0.145874
H47   H     H_    0.242459 0.359653 0.888381 0.330895
H48   H     H_    0.645764 0.887815 0.889904 0.321864
H49   H     H_    0.761012 0.120377 0.388288 0.323693
H50   H     H_    0.437673 0.237102 0.372688 0.324458
H51   H     H_    0.826878 0.591984 0.377231 0.322534
H52   H     H_    0.149518 0.623804 0.525924 0.139543
H53   H     H_    0.995091 0.618686 0.550446 0.154358
H54   H     H_    0.098507 0.682794 0.580028 0.148124
H55   H     H_    0.443199 0.611690 0.570243 0.144817
H56   H     H_    0.513210 0.582444 0.536458 0.168995
H57   H     H_    0.329671 0.392044 0.833768 0.129319
H58   H     H_    0.388732 0.550412 0.525327 0.146156
H59   H     H_    0.395160 0.402293 0.546376 0.151341
H60   H     H_    0.323287 0.428144 0.577752 0.149158
H61   H     H_    0.400256 0.850314 0.566932 0.148956
H62   H     H_    0.443744 0.949119 0.532112 0.158532
H63   H     H_    0.466749 0.849151 0.524428 0.143215
H64   H     H_    0.618109 0.000923 0.548457 0.157216
H65   H     H_    0.577535 0.896189 0.577772 0.149075
H66   H     H_    0.574390 0.138053 0.052804 0.152072
H67   H     H_    0.688655 0.192645 0.079342 0.157683
H68   H     H_    0.614752 0.941510 0.834917 0.122041
H69   H     H_    0.686840 0.160432 0.029649 0.144215
H70   H     H_    0.691749 0.034921 0.075720 0.145653
H71   H     H_    0.598381 0.990808 0.041474 0.156960
H72   H     H_    0.654849 0.572055 0.056672 0.168326
H73   H     H_    0.665771 0.480843 0.084781 0.147189
H74   H     H_    0.636292 0.460012 0.034434 0.142811
H75   H     H_    0.485279 0.362306 0.077132 0.139507
H76   H     H_    0.476640 0.440060 0.043640 0.139661
H77   H     H_    0.872925 0.579901 0.087831 0.151222
H78   H     H_    0.924751 0.699978 0.110503 0.155619
H79   H     H_    0.677691 0.071032 0.332825 0.122251
H80   H     H_    0.912993 0.689460 0.059334 0.143723
H81   H     H_    0.089910 0.748989 0.087594 0.178861
H82   H     H_    0.039012 0.659061 0.050335 0.162715
H83   H     H_    0.951646 0.310219 0.907746 0.319828
H84   H     H_    0.696165 0.668687 0.902504 0.324955
H85   H     H_    0.371126 0.000966 0.938728 0.331435
H86   H     H_    0.317181 0.021718 0.394755 0.327958
H87   H     H_    0.608707 0.686973 0.416557 0.327601
H88   H     H_    0.013715 0.396029 0.444447 0.325763
H89   H     H_    0.850569 0.214329 0.680020 0.142184
H90   H     H_    0.442569 0.334178 0.325052 0.137816
H91   H     H_    0.927331 0.301671 0.716163 0.181649
H92   H     H_    0.804363 0.207808 0.728408 0.172332
H93   H     H_    0.807219 0.364683 0.720253 0.165587
H94   H     H_    0.734101 0.281838 0.684780 0.160703
H95   H     H_    0.791085 0.618750 0.680254 0.142335
H96   H     H_    0.704995 0.627324 0.712434 0.181641
H97   H     H_    0.781890 0.581623 0.730088 0.175292
H98   H     H_    0.619110 0.439869 0.720759 0.167978
H99   H     H_    0.698031 0.435020 0.686312 0.156720
H100  H     H_    0.366129 0.150344 0.679461 0.142983
H101  H     H_    0.905109 0.573964 0.326482 0.118164
H102  H     H_    0.370041 0.071342 0.716233 0.183158
H103  H     H_    0.404512 0.196290 0.727758 0.168600
H104  H     H_    0.553197 0.181497 0.721132 0.164893
H105  H     H_    0.552262 0.260933 0.686247 0.156265
H106  H     H_    0.366901 0.827730 0.231724 0.188698
H107  H     H_    0.276534 0.739671 0.199089 0.146133
H108  H     H_    0.240143 0.794395 0.236687 0.153142
H109  H     H_    0.326420 0.956067 0.205185 0.175188
H110  H     H_    0.244237 0.869291 0.172884 0.145566
H111  H     H_    0.302231 0.618512 0.233682 0.167826
H112  H     H_    0.765452 0.234479 0.629425 0.313337
H113  H     H_    0.302140 0.508162 0.219949 0.188130
H114  H     H_    0.258315 0.565370 0.186593 0.147843
H115  H     H_    0.470894 0.666153 0.217187 0.180733
H116  H     H_    0.427090 0.713018 0.181712 0.162585
H117  H     H_    0.142808 0.363771 0.164571 0.186618
H118  H     H_    0.112736 0.398887 0.210367 0.165365
H119  H     H_    0.065884 0.271083 0.199396 0.138530
H120  H     H_    0.936122 0.318302 0.191593 0.148032
H121  H     H_    0.959905 0.273203 0.148750 0.188895
H122  H     H_    0.210353 0.664515 0.621205 0.143241
H123  H     H_    0.755232 0.507422 0.630286 0.313238
H124  H     H_    0.250206 0.747282 0.661698 0.145801
H125  H     H_    0.195728 0.616720 0.669757 0.176524
H126  H     H_    0.090076 0.724267 0.638000 0.129973
H127  H     H_    0.082961 0.683002 0.685077 0.162219
H128  H     H_    0.247135 0.339144 0.634970 0.146056
H129  H     H_    0.279134 0.356820 0.685562 0.179305
H130  H     H_    0.203562 0.402361 0.665801 0.148830
H131  H     H_    0.374572 0.539125 0.675604 0.161861
H132  H     H_    0.341585 0.526675 0.626888 0.135947
H133  H     H_    0.446873 0.786198 0.621522 0.144028
H134  H     H_    0.474860 0.236877 0.631228 0.315598
H135  H     H_    0.496975 0.744022 0.658586 0.147117
H136  H     H_    0.423493 0.798286 0.671916 0.172928
H137  H     H_    0.631206 0.904733 0.634724 0.131158
H138  H     H_    0.601491 0.913030 0.682459 0.164500
H139  H     H_    0.761588 0.261545 0.160667 0.138202
H140  H     H_    0.642451 0.221261 0.139833 0.148508
H141  H     H_    0.653617 0.201231 0.190366 0.188413
H142  H     H_    0.699201 0.077484 0.176816 0.160609
H143  H     H_    0.730823 0.116691 0.128892 0.143152
H144  H     H_    0.692538 0.430807 0.168331 0.139681
N1    N     N_R   0.944115 0.544031 0.774561 -0.248937
N2    N     N_R   0.555191 0.962661 0.230570 -0.244383
N3    N     N_R   0.418236 0.437445 0.232020 -0.242801
N4    N     N_R   0.091754 0.557526 0.233138 -0.269875
N5    N     N_R   0.047602 0.491332 0.727758 -0.240387
N6    N     N_R   0.521307 0.573117 0.728229 -0.247671
N7    N     N_R   0.439476 0.952815 0.728105 -0.240305
N8    N     N_R   0.492769 0.070196 0.228151 -0.250499
N9    N     N_R   0.570313 0.583080 0.232793 -0.248189
N10   N     N_R   0.921914 0.453322 0.227177 -0.250621
N11   N     N_R   0.060191 0.493717 0.765783 -0.233713
N12   N     N_R   0.440216 0.407626 0.771095 -0.246917
N13   N     N_R   0.518860 0.579174 0.766502 -0.232491
N14   N     N_R   0.430699 0.941516 0.766248 -0.233840
N15   N     N_R   0.496343 0.076737 0.266487 -0.231741
N16   N     N_R   0.573660 0.576511 0.271000 -0.241490
N17   N     N_R   0.913033 0.447994 0.265473 -0.226226
N18   N     N_R   0.600948 0.041790 0.772621 -0.251025
N19   N     N_R   0.559159 0.969508 0.268965 -0.241006
N20   N     N_R   0.421339 0.431368 0.270248 -0.239264
N21   N     N_R   0.082899 0.551920 0.271514 -0.255061
N22   N     N_R   0.931612 0.541798 0.736501 -0.267891
N23   N     N_R   0.442560 0.401523 0.732785 -0.258481
N24   N     N_R   0.609716 0.053323 0.734437 -0.265831
O1    O     O_R   0.498680 0.159540 0.541860 -0.485134
O2    O     O_R   0.358060 0.532760 0.040030 -0.488043
O3    O     O_R   0.174700 0.641940 0.040030 -0.492430
O4    O     O_R   0.467240 0.825300 0.040030 -0.501673
O5    O     O_R   0.498590 0.161190 0.456930 -0.441996
O6    O     O_R   0.838810 0.337400 0.456930 -0.489289
O7    O     O_R   0.662600 0.501410 0.456930 -0.449966
O8    O     O_R   0.161190 0.498590 0.956930 -0.445514
O9    O     O_R   0.337400 0.838810 0.956930 -0.489206
O10   O     O_R   0.501410 0.662600 0.956930 -0.445762
O11   O     O_R   0.532680 0.359580 0.461300 -0.475994
O12   O     O_R   0.840460 0.339140 0.541860 -0.485360
O13   O     O_R   0.640420 0.173100 0.461300 -0.462969
O14   O     O_R   0.826900 0.467320 0.461300 -0.455775
O15   O     O_R   0.359580 0.532680 0.961300 -0.463494
O16   O     O_R   0.173100 0.640420 0.961300 -0.463120
O17   O     O_R   0.467320 0.826900 0.961300 -0.450362
O18   O     O_3   0.666667 0.333333 0.499990 -0.268218
O19   O     O_3   0.333333 0.666667 0.999990 -0.272991
O20   O     O_3   0.770105 0.287189 0.612418 -0.650252
O21   O     O_3   0.700450 0.462965 0.613287 -0.645448
O22   O     O_3   0.519073 0.228706 0.613112 -0.647602
O23   O     O_R   0.660860 0.501320 0.541860 -0.487868
O24   O     O_3   0.283956 0.801064 0.112612 -0.687470
O25   O     O_3   0.384303 0.654622 0.111103 -0.673513
O26   O     O_3   0.035055 0.361040 0.089557 -0.695262
O27   O     O_3   0.016705 0.366571 0.914588 -0.679565
O28   O     O_3   0.632885 0.653350 0.914350 -0.682708
O29   O     O_3   0.349533 0.987170 0.911440 -0.693503
O30   O     O_3   0.369838 0.027417 0.411845 -0.685379
O31   O     O_3   0.606067 0.626034 0.425280 -0.701970
O32   O     O_3   0.013406 0.375964 0.417248 -0.699710
O33   O     O_3   0.123233 0.711885 0.906152 -0.659628
O34   O     O_R   0.159540 0.498680 0.041860 -0.482084
O35   O     O_3   0.289932 0.409419 0.906600 -0.656009
O36   O     O_3   0.595331 0.885416 0.907974 -0.658666
O37   O     O_3   0.712505 0.121550 0.406458 -0.664779
O38   O     O_3   0.470746 0.284157 0.394141 -0.661529
O39   O     O_3   0.836916 0.554151 0.397870 -0.660540
O40   O     O_R   0.339140 0.840460 0.041860 -0.466005
O41   O     O_R   0.501320 0.660860 0.041860 -0.493917
O42   O     O_R   0.532760 0.358060 0.540030 -0.486800
O43   O     O_R   0.641940 0.174700 0.540030 -0.485433
O44   O     O_R   0.825300 0.467240 0.540030 -0.492256

loop_
_geom_bond_atom_site_label_1
_geom_bond_atom_site_label_2
_ccdc_geom_bond_type
H112  O20   S    
H134  O22   S    
C19   C20   S    
C44   H25   S    
C25   H118  S    
Cr2   O43   S    
C32   H143  S    
C28   H132  S    
C58   O28   S    
C111  C118  A    
H85   O29   S    
C37   H10   S    
C95   O9    A    
C56   O27   S    
C38   H9    S    
C48   H38   S    
C19   H109  S    
Cr3   O18   S    
C19   C113  S    
C55   C62   A    
Cr2   O18   S    
C64   C84   A    
C42   H20   S    
C49   H36   S    
C22   H114  S    
C34   C127  S    
C94   O8    A    
C98   C131  A    
C90   O34   A    
C71   H57   S    
C21   C22   S    
C143  H35   S    
C108  O26   S    
C105  O22   S    
C82   C141  S    
C144  H59   S    
C25   H117  S    
C36   H3    S    
C45   C47   S    
C17   H104  S    
C91   O13   A    
C112  N5    A    
C4    H64   S    
C121  C128  A    
C6    C132  S    
C128  C135  A    
C60   C86   A    
H45   O33   S    
C129  C142  S    
C15   H99   S    
C34   H5    S    
C62   C88   A    
C31   H133  S    
C43   C44   S    
C40   H12   S    
C37   C38   S    
C49   H34   S    
C92   O14   A    
C5    H63   S    
H51   O39   S    
Cr4   O34   S    
C124  C130  A    
C67   C74   A    
C2    N8    A    
Cr4   O8    S    
C48   H39   S    
C51   H40   S    
C67   O38   S    
C99   C101  S    
C65   O36   S    
H83   O27   S    
C87   C89   S    
C30   H137  S    
C106  O24   S    
Cr1   O5    S    
C31   H136  S    
C74   C81   A    
C63   O33   S    
C56   C83   A    
C27   H125  S    
C5    H62   S    
N5    N11   A    
C38   H7    S    
C4    C5    S    
N3    N20   A    
C46   C77   A    
C6    C7    S    
C54   C61   A    
C29   H129  S    
C80   C139  S    
C72   H68   S    
C104  C110  A    
C14   H89   S    
C68   O44   A    
Cr5   O40   S    
C24   C121  S    
C84   C93   S    
C74   H90   S    
Cr3   O7    S    
C119  C126  A    
C15   H98   S    
C54   C81   A    
C25   H119  S    
C96   C129  A    
C81   C140  S    
Cr3   O44   S    
C43   H28   S    
C141  N21   A    
C123  N23   A    
C89   O7    A    
C47   H31   S    
C73   H79   S    
C33   H140  S    
C120  C127  A    
Cr1   O1    S    
C41   H21   S    
C1    O42   A    
C108  C115  A    
C136  N1    A    
C40   H14   S    
C62   O32   S    
C50   H43   S    
C43   C52   S    
C143  H46   S    
C32   C126  S    
C102  C135  A    
C90   C102  S    
C72   C78   A    
C61   C87   A    
C14   H92   S    
C9    H72   S    
C12   H94   S    
H47   O35   S    
Cr2   O13   S    
C130  C144  S    
C7    H66   S    
C118  C134  S    
C20   H107  S    
C138  N14   A    
C30   C125  S    
C45   C53   S    
C139  N19   A    
C46   C58   A    
C1    O23   A    
Cr4   O15   S    
Cr5   O9    S    
C17   C111  S    
Cr3   O14   S    
C53   C60   A    
C35   C76   A    
C106  C113  A    
Cr2   O6    S    
C3    H55   S    
C53   C80   A    
C10   C135  S    
C39   C40   S    
C11   H78   S    
H123  O21   S    
C142  H54   S    
Cr5   O16   S    
C57   O43   A    
C59   C85   A    
C47   H30   S    
C125  C131  A    
C126  C132  A    
C17   C18   S    
Cr1   O11   S    
C40   H15   S    
C21   H116  S    
C6    H70   S    
N6    N13   A    
Cr6   O10   S    
C134  N7    A    
N9    N16   A    
N18   N24   A    
C112  C116  S    
C13   C120  S    
H87   O31   S    
C99   C106  A    
C35   C56   A    
Cr1   O18   S    
Cr6   O41   S    
C44   H26   S    
C66   C86   A    
C28   C124  S    
C75   C82   A    
C34   H6    S    
C65   C72   A    
C94   O16   A    
C85   C95   S    
C9    H74   S    
N1    N22   A    
N8    N15   A    
C36   H144  S    
C34   C36   S    
C79   O2    A    
C10   C11   S    
C11   H77   S    
Cr5   O3    S    
C66   O37   S    
C41   C42   S    
C71   C77   A    
C144  H60   S    
C36   H4    S    
C23   H120  S    
C59   O29   S    
C16   H95   S    
C23   H121  S    
C26   C27   S    
C68   C96   S    
C116  C122  A    
C99   C132  A    
C115  C121  A    
C28   C29   S    
C117  C124  A    
C77   C137  S    
C97   C130  A    
C86   C91   S    
C30   C31   S    
C52   C78   A    
C64   C71   A    
C103  O20   S    
C109  C116  A    
C113  C119  A    
H2    O24   S    
C140  N16   A    
C141  N17   A    
C45   H32   S    
C89   O11   A    
C118  C125  A    
C69   O39   S    
C91   O5    A    
C122  C129  A    
C137  N13   A    
C37   C128  S    
C105  C111  A    
C30   H138  S    
C15   C110  S    
C31   H135  S    
C75   H101  S    
C110  C117  A    
Cr1   O42   S    
C42   H18   S    
Cr6   O17   S    
C20   H106  S    
C28   H131  S    
C5    H61   S    
C70   H1    S    
H86   O30   S    
C2    N2    A    
C79   C100  S    
C38   H8    S    
C19   H110  S    
C29   H128  S    
C83   C94   S    
C63   C83   A    
C35   C39   S    
C107  C114  A    
C42   H19   S    
C138  N18   A    
C139  N15   A    
C22   H113  S    
C140  N20   A    
C50   C51   S    
Cr4   O19   S    
C90   O3    A    
C48   C49   S    
H84   O28   S    
H24   O26   S    
C68   O12   A    
Cr6   O19   S    
C93   O10   A    
C107  O25   S    
C45   H33   S    
C37   H11   S    
C16   H97   S    
C43   H27   S    
C8    H76   S    
C3    C144  S    
C127  C133  A    
Cr4   O2    S    
C33   H139  S    
C8    H75   S    
C103  C109  A    
C32   C33   S    
C39   H16   S    
C26   H126  S    
C50   H44   S    
H13   O25   S    
C57   C98   S    
C10   H81   S    
Cr5   O19   S    
C69   C75   A    
C60   O30   S    
C97   C104  A    
C24   N10   A    
C101  O4    A    
H50   O38   S    
C96   C103  A    
C142  C143  S    
C26   C122  S    
C10   H82   S    
C26   H127  S    
C114  C120  A    
C20   H108  S    
C92   O6    A    
C112  N22   A    
N10   N17   A    
C51   H41   S    
C123  N6    A    
C134  N24   A    
C76   C136  S    
C29   H130  S    
C48   C54   S    
C98   C105  A    
C3    H58   S    
C64   O35   S    
C95   O17   A    
C22   H111  S    
C15   C16   S    
C47   H29   S    
C104  O21   S    
C136  N11   A    
H48   O36   S    
C18   H102  S    
C8    C9    S    
C49   H37   S    
C41   C46   S    
C102  C108  A    
C21   H115  S    
C6    H71   S    
C7    H69   S    
C27   H122  S    
C4    H65   S    
C78   C138  S    
C13   N3    A    
C12   C109  S    
C33   H141  S    
C4    C131  S    
C18   H103  S    
C41   H22   S    
C88   C92   S    
C44   H23   S    
C1    C97   S    
Cr6   O4    S    
N7    N14   A    
C66   C73   A    
C101  O40   A    
C52   C59   A    
C58   C84   A    
C14   H91   S    
C24   N4    A    
C9    H73   S    
C63   C70   A    
C12   H93   S    
Cr2   O12   S    
C55   C82   A    
C69   C88   A    
C27   H124  S    
C32   H142  S    
C12   C14   S    
C11   H80   S    
C70   C76   A    
C61   O31   S    
H88   O32   S    
C100  C133  A    
C17   H105  S    
C100  C107  A    
N2    N19   A    
C8    C133  S    
C3    H56   S    
H49   O37   S    
C21   C114  S    
N4    N21   A    
C2    C119  S    
C65   C85   A    
C16   H96   S    
C67   C87   A    
C50   C55   S    
C142  H53   S    
C117  C123  S    
C93   O15   A    
C79   O41   A    
C18   H100  S    
C73   C80   A    
C57   O1    A    
C23   C25   S    
C39   H17   S    
C51   H42   S    
C23   C115  S    
C7    H67   S    
C143  H52   S    
C13   N9    A    
N12   N23   A    
C137  N12   A    
Cr3   O23   S    
