data_mof_unit_33531.cif
_audit_creation_date              2012-12-11T15:40:39-0500
_audit_creation_method            fapswitch 2.2
_symmetry_space_group_name_H-M    P1
_symmetry_Int_Tables_number       1
_space_group_crystal_system       triclinic
_cell_length_a                    7.025558
_cell_length_b                    18.780457
_cell_length_c                    20.675386
_cell_angle_alpha                 107.135956
_cell_angle_beta                  88.870113
_cell_angle_gamma                 91.116126
_cell_volume                      2606.10325321

loop_
_atom_site_label
_atom_site_type_symbol
_atom_type_description
_atom_site_fract_x
_atom_site_fract_y
_atom_site_fract_z
_atom_type_partial_charge
O1    O     O_R   0.494330 0.423860 0.422200 -0.532046
O2    O     O_R   0.819690 0.434890 0.556180 -0.536434
O3    O     O_R   0.994310 0.576140 0.577800 -0.533120
C1    C     C_R   0.650367 0.420802 0.576294 0.722249
O4    O     O_R   0.823770 0.415220 0.421380 -0.535000
O5    O     O_R   0.998410 0.556340 0.442040 -0.533739
C2    C     C_R   0.655255 0.393934 0.395639 0.719104
O6    O     O_R   0.490230 0.443660 0.557960 -0.533481
O7    O     O_3   0.662220 0.546320 0.506940 -0.369055
V1    V     V_3+5 0.935390 0.491410 0.498710 1.425304
O8    O     O_R   0.328380 0.565110 0.443820 -0.537136
C3    C     C_R   0.163024 0.579340 0.423553 0.721191
O9    O     O_R   0.324310 0.584780 0.578620 -0.535509
C4    C     C_R   0.155210 0.606082 0.604350 0.717003
V2    V     V_3+5 0.435920 0.508590 0.501290 1.424070
O10   O     O_3   0.159220 0.453680 0.493060 -0.366702
C5    C     C_1   0.144754 0.668219 0.666748 -0.197465
C6    C     C_1   0.134280 0.719744 0.719094 0.002505
C7    C     C_1   0.121248 0.780258 0.780819 0.002418
C8    C     C_1   0.110734 0.831773 0.833171 -0.197625
C9    C     C_3   0.219909 0.795264 0.306507 0.070893
C10   C     C_3   0.022443 0.812633 0.283820 0.345671
C11   C     C_1   0.087604 0.875028 0.122402 -0.202016
C12   C     C_1   0.166466 0.625884 0.378384 -0.209956
C13   C     C_3   0.291287 0.774322 0.231535 0.063288
C14   C     C_3   0.092683 0.792214 0.209528 0.004343
C15   C     C_3   0.224344 0.692018 0.220038 0.095137
C16   C     C_3   0.153671 0.712824 0.294939 -0.034760
C17   C     C_3   0.025430 0.710231 0.198639 0.059574
C18   C     C_3   0.954312 0.731378 0.273830 0.065507
C19   C     C_1   0.081405 0.837521 0.161442 0.010740
C20   C     C_1   0.169032 0.665137 0.340834 -0.020415
C21   C     C_3   0.549502 0.186613 0.720042 0.119612
C22   C     C_3   0.738375 0.212899 0.693988 0.086070
C23   C     C_1   0.645408 0.375452 0.622083 -0.186383
C24   C     C_1   0.612310 0.125013 0.878413 -0.204801
C25   C     C_3   0.470575 0.265921 0.734239 0.302424
C26   C     C_3   0.656820 0.292019 0.708040 -0.061093
C27   C     C_3   0.547392 0.288896 0.807084 0.074636
C28   C     C_3   0.629156 0.209251 0.793054 -0.032540
C29   C     C_3   0.736602 0.314895 0.780733 0.084669
C30   C     C_3   0.818574 0.235268 0.767052 0.107712
C31   C     C_1   0.652000 0.337851 0.660659 -0.021817
C32   C     C_1   0.615700 0.163024 0.840055 -0.031437
C33   C     C_1   0.645097 0.331781 0.333229 -0.194532
C34   C     C_1   0.634229 0.280266 0.280890 0.005711
C35   C     C_1   0.620506 0.219761 0.219176 0.006437
C36   C     C_1   0.609681 0.168248 0.166834 -0.192848
O11   O     O_R   0.764940 0.056420 0.942120 -0.533976
O12   O     O_R   0.431180 0.084790 0.078640 -0.535084
O13   O     O_R   0.256690 0.943640 0.057940 -0.532841
C37   C     C_R   0.599639 0.106103 0.104419 0.719588
O14   O     O_R   0.435470 0.065130 0.943840 -0.537350
O15   O     O_R   0.261010 0.923840 0.922180 -0.532817
C38   C     C_R   0.604955 0.079315 0.923837 0.725911
O16   O     O_R   0.760620 0.076220 0.077880 -0.531817
O17   O     O_3   0.592970 0.953720 0.993110 -0.368908
V3    V     V_3+5 0.319740 0.008590 0.001280 1.421949
O18   O     O_R   0.931020 0.915140 0.921290 -0.535654
C39   C     C_R   0.100167 0.893891 0.895580 0.717109
O19   O     O_R   0.926730 0.934800 0.056090 -0.537322
C40   C     C_R   0.092031 0.920560 0.076350 0.723488
V4    V     V_3+5 0.819230 0.991300 0.998610 1.422323
O20   O     O_3   0.095870 0.046270 0.006890 -0.367358
O21   O     O_3   0.914839 0.876458 0.312070 -0.649589
H1    H     H_    0.897602 0.880318 0.360478 0.283986
C41   C     C_3   0.843816 0.389361 0.808444 -0.321532
C42   C     C_3   0.890664 0.407955 0.883582 -0.783330
H2    H     H_    0.762236 0.422509 0.916071 0.232878
H3    H     H_    0.961573 0.360939 0.895015 0.237204
H4    H     H_    0.985595 0.457838 0.897688 0.216929
H5    H     H_    0.977421 0.387115 0.778489 0.173654
H6    H     H_    0.757700 0.434863 0.800408 0.176175
C43   C     C_3   0.445010 0.327480 0.873984 -0.321753
C44   C     C_3   0.371732 0.404042 0.876269 -0.795033
H7    H     H_    0.487498 0.441794 0.869147 0.234242
H8    H     H_    0.267132 0.398879 0.835966 0.232957
H9    H     H_    0.302884 0.429822 0.926270 0.221003
H10   H     H_    0.324808 0.292114 0.882243 0.178937
H11   H     H_    0.543788 0.332841 0.916380 0.183807
O22   O     O_3   0.296103 0.283807 0.712091 -0.672120
H12   H     H_    0.297244 0.338647 0.721443 0.282703
C45   C     C_3   0.331677 0.838751 0.369180 -0.358856
C46   C     C_3   0.292549 0.922268 0.391734 -0.727871
H13   H     H_    0.282958 0.944483 0.347820 0.248950
H14   H     H_    0.158114 0.933736 0.421754 0.218458
H15   H     H_    0.409399 0.952241 0.424698 0.209782
H16   H     H_    0.296396 0.815992 0.411890 0.180510
H17   H     H_    0.485246 0.830406 0.357393 0.202126
C47   C     C_3   0.772584 0.703401 0.302704 -0.331644
C48   C     C_3   0.749273 0.732433 0.379836 -0.756231
H18   H     H_    0.851567 0.707242 0.406182 0.235719
H19   H     H_    0.765555 0.793634 0.398635 0.209695
H20   H     H_    0.604468 0.717267 0.394402 0.214604
H21   H     H_    0.645730 0.720014 0.281356 0.176580
H22   H     H_    0.773363 0.641633 0.287967 0.180122
C49   C     C_3   0.917955 0.668490 0.134379 -0.321475
C50   C     C_3   0.869692 0.587660 0.130077 -0.763726
H23   H     H_    0.998050 0.555427 0.131907 0.232364
H24   H     H_    0.772056 0.584664 0.171797 0.223306
H25   H     H_    0.800104 0.560542 0.081083 0.214327
H26   H     H_    0.785402 0.698030 0.131889 0.164477
H27   H     H_    0.004336 0.670255 0.089401 0.175823
C51   C     C_3   0.339083 0.620991 0.189460 -0.317956
C52   C     C_3   0.388046 0.606947 0.114520 -0.773050
H28   H     H_    0.259439 0.599290 0.083313 0.232197
H29   H     H_    0.474522 0.653445 0.106319 0.223797
H30   H     H_    0.469560 0.554696 0.096288 0.217245
H31   H     H_    0.472006 0.624756 0.217873 0.162947
H32   H     H_    0.258137 0.572468 0.196492 0.177715
C53   C     C_3   0.470643 0.800605 0.200078 -0.348143
C54   C     C_3   0.511174 0.884173 0.227509 -0.676670
H33   H     H_    0.625444 0.900092 0.196321 0.220092
H34   H     H_    0.561925 0.898513 0.280173 0.256243
H35   H     H_    0.383177 0.917123 0.225888 0.218881
H36   H     H_    0.597232 0.771417 0.207868 0.180715
H37   H     H_    0.452363 0.786285 0.144472 0.175446
C55   C     C_3   0.847094 0.177082 0.627579 -0.320723
C56   C     C_3   0.893472 0.095129 0.616633 -0.790325
H38   H     H_    0.964862 0.086786 0.661116 0.235916
H39   H     H_    0.764755 0.059236 0.606005 0.233294
H40   H     H_    0.987655 0.075840 0.571384 0.219116
H41   H     H_    0.762061 0.181833 0.584401 0.182005
H42   H     H_    0.980920 0.209419 0.627619 0.198443
C57   C     C_3   0.446030 0.112151 0.689527 -0.327760
C58   C     C_3   0.373442 0.104533 0.618780 -0.753708
H43   H     H_    0.273536 0.149814 0.620397 0.261005
H44   H     H_    0.490485 0.107441 0.583126 0.229466
H45   H     H_    0.300147 0.049755 0.598964 0.210637
H46   H     H_    0.543535 0.065913 0.687853 0.178205
H47   H     H_    0.325227 0.106529 0.722910 0.174603
C59   C     C_3   0.022220 0.219454 0.783528 -0.324830
C60   C     C_3   0.041289 0.173221 0.832376 -0.792211
H48   H     H_    0.975935 0.202376 0.882240 0.238698
H49   H     H_    0.976473 0.117044 0.810759 0.237061
H50   H     H_    0.194257 0.165587 0.840415 0.214943
H51   H     H_    0.094697 0.189821 0.735874 0.231540
H52   H     H_    0.095997 0.273165 0.805155 0.223402

loop_
_geom_bond_atom_site_label_1
_geom_bond_atom_site_label_2
_ccdc_geom_bond_type
C22   C55   S    
C58   H43   S    
O11   V4    S    
C15   C17   S    
C29   C30   S    
O14   C38   A    
C53   C54   S    
C22   C30   S    
C46   H15   S    
C18   C47   S    
C54   H34   S    
O22   H12   S    
O17   V3    S    
C47   H21   S    
C27   C29   S    
O15   C39   A    
C33   C34   T    
C52   H29   S    
C17   C18   S    
C2    C33   S    
C46   H14   S    
C6    C7    S    
O5    C3    A    
C51   H31   S    
C59   H52   S    
V2    O10   S    
C49   C50   S    
C15   C51   S    
C5    C6    T    
C41   H5    S    
C27   C43   S    
O19   V4    S    
C55   C56   S    
C54   H33   S    
O8    V2    S    
C57   H46   S    
C11   C40   S    
C9    C45   S    
C42   H2    S    
C60   H50   S    
O12   C37   A    
C53   H36   S    
C41   H6    S    
C8    C39   S    
C23   C31   T    
O7    V1    S    
C49   H26   S    
C1    O6    A    
C28   C30   S    
C45   H16   S    
C1    C23   S    
O18   C39   A    
O1    C2    A    
O9    C4    A    
C4    C5    S    
C25   O22   S    
O13   C40   A    
C51   C52   S    
O17   V4    S    
C56   H39   S    
V3    O20   S    
C45   H17   S    
C52   H30   S    
C21   C28   S    
C43   C44   S    
C41   C42   S    
O12   V3    S    
C35   C36   T    
C16   C20   S    
C46   H13   S    
C26   C29   S    
C29   C41   S    
C48   H18   S    
O4    C2    A    
C59   C60   S    
C58   H45   S    
C13   C14   S    
O11   C38   A    
C21   C25   S    
C11   C19   T    
O2    C1    A    
C44   H7    S    
C12   C20   T    
C10   O21   S    
C25   C26   S    
C48   H19   S    
C57   H47   S    
C45   C46   S    
C36   C37   S    
C56   H38   S    
C21   C57   S    
C21   C22   S    
O16   V4    S    
O13   V3    S    
C55   H42   S    
C44   H8    S    
C49   H27   S    
O3    C4    A    
O1    V2    S    
C9    C16   S    
O21   H1    S    
O6    V2    S    
C50   H24   S    
C43   H10   S    
O9    V2    S    
C60   H48   S    
C26   C31   S    
C24   C32   T    
O2    V1    S    
C27   C28   S    
C60   H49   S    
O15   V3    S    
C56   H40   S    
C9    C13   S    
C34   C35   S    
C58   H44   S    
C10   C18   S    
C22   C26   S    
C14   C19   S    
O5    V1    S    
C30   C59   S    
O14   V3    S    
C47   H22   S    
C13   C15   S    
C50   H25   S    
C52   H28   S    
C3    C12   S    
O18   V4    S    
C17   C49   S    
C53   H37   S    
C7    C8    T    
C16   C18   S    
C59   H51   S    
O4    V1    S    
C25   C27   S    
C24   C38   S    
V1    O10   S    
C48   H20   S    
C51   H32   S    
C47   C48   S    
C57   C58   S    
C42   H4    S    
C55   H41   S    
O7    V2    S    
O19   C40   A    
C44   H9    S    
C13   C53   S    
V4    O20   S    
C28   C32   S    
C14   C17   S    
C42   H3    S    
C50   H23   S    
C10   C14   S    
C15   C16   S    
O3    V1    S    
C43   H11   S    
C9    C10   S    
C54   H35   S    
C37   O16   A    
O8    C3    A    
