data_mof_unit_51583.cif
_audit_creation_date              2012-12-10T18:29:44-0500
_audit_creation_method            fapswitch 2.2
_symmetry_space_group_name_H-M    P1
_symmetry_Int_Tables_number       1
_space_group_crystal_system       triclinic
_cell_length_a                    11.520485
_cell_length_b                    15.078491
_cell_length_c                    15.723871
_cell_angle_alpha                 83.251037
_cell_angle_beta                  91.517212
_cell_angle_gamma                 106.3015
_cell_volume                      2603.38213751

loop_
_atom_site_label
_atom_site_type_symbol
_atom_type_description
_atom_site_fract_x
_atom_site_fract_y
_atom_site_fract_z
_atom_type_partial_charge
C1    C     C_R   0.481076 0.442556 0.662339 0.903253
C2    C     C_R   0.588160 0.685561 0.987821 0.012372
C3    C     C_R   0.700688 0.857483 0.622723 0.018361
C4    C     C_R   0.304461 0.142982 0.372327 0.039945
C5    C     C_R   0.673824 0.767987 0.595188 0.223363
C6    C     C_R   0.335156 0.235653 0.395014 0.191712
C7    C     C_R   0.500051 0.790964 0.522337 -0.036576
C8    C     C_R   0.495755 0.208898 0.483149 -0.005277
C9    C     C_R   0.546763 0.889513 0.525003 -0.034174
C10   C     C_R   0.474895 0.117571 0.458378 -0.021247
C11   C     C_R   0.647352 0.921389 0.577612 0.034452
C12   C     C_R   0.517681 0.557687 0.338593 0.932434
C13   C     C_R   0.380363 0.086837 0.400293 0.028237
C14   C     C_R   0.499274 0.957689 0.476671 -0.090068
C15   C     C_R   0.540913 0.053883 0.492292 -0.069160
C16   C     C_R   0.718741 0.502440 0.500183 0.871951
C17   C     C_R   0.281227 0.497466 0.500004 0.880222
C18   C     C_R   0.650574 0.083733 0.536631 0.528186
C19   C     C_R   0.420973 0.936085 0.407009 0.503768
C20   C     C_R   0.702349 0.017130 0.576910 -0.315137
C21   C     C_R   0.363221 0.999781 0.370530 -0.297171
C22   C     C_1   0.840556 0.505814 0.501190 -0.194811
C23   C     C_R   0.500788 0.360577 0.931221 -0.124223
C24   C     C_1   0.159278 0.493702 0.499937 -0.194596
C25   C     C_1   0.941669 0.502628 0.501076 -0.021260
C26   C     C_1   0.058008 0.496483 0.500501 -0.011222
C27   C     C_R   0.470876 0.410798 0.755737 -0.367556
C28   C     C_R   0.543349 0.593795 0.248651 -0.352285
C29   C     C_R   0.440094 0.291303 0.878342 0.024372
C30   C     C_R   0.638687 0.719781 0.138206 0.012859
C31   C     C_R   0.436936 0.315930 0.788893 0.446287
C32   C     C_R   0.621222 0.684084 0.225571 0.398206
C33   C     C_R   0.488875 0.478067 0.813832 0.487824
C34   C     C_R   0.590518 0.657636 0.075903 -0.136858
C35   C     C_R   0.501753 0.534509 0.185560 0.524872
C36   C     C_R   0.518272 0.455743 0.899910 -0.075210
C37   C     C_R   0.549648 0.561481 0.103067 -0.093516
C38   C     C_3   0.583665 0.250206 0.036733 -0.378263
C39   C     C_3   0.720337 0.269684 0.053289 -0.323168
C40   C     C_3   0.765519 0.185707 0.041478 -0.932124
C41   C     C_3   0.560585 0.775951 0.954358 -0.412653
C42   C     C_3   0.464276 0.763852 0.883748 -0.336138
C43   C     C_3   0.424325 0.852121 0.861184 -0.927990
C44   C     C_3   0.765435 0.209566 0.602188 -0.371284
C45   C     C_R   0.552619 0.524395 0.957727 -0.135924
C46   C     C_3   0.492612 0.868247 0.306711 -0.264065
C47   C     C_3   0.301919 0.464629 0.172402 -0.392288
C48   C     C_3   0.345350 0.554539 0.789913 -0.339755
C49   C     C_3   0.785642 0.717747 0.311773 -0.291204
C50   C     C_3   0.284308 0.235659 0.706304 -0.281641
C51   C     C_3   0.348612 0.202095 0.916602 -0.385082
C52   C     C_3   0.225809 0.220257 0.929361 -0.352121
C53   C     C_3   0.128733 0.130340 0.958694 -0.913121
C54   C     C_3   0.724637 0.817281 0.115118 -0.363460
C55   C     C_3   0.839365 0.814265 0.069153 -0.355906
C56   C     C_R   0.547709 0.495301 0.045893 -0.127693
C57   C     C_3   0.934352 0.908656 0.061658 -0.920116
C58   C     C_3   0.713824 0.435540 0.172667 -0.328304
C59   C     C_3   0.783669 0.644715 0.883559 -0.426379
C60   C     C_3   0.258522 0.297608 0.357677 -0.318927
C61   C     C_3   0.134757 0.276732 0.403037 -0.393268
C62   C     C_3   0.055326 0.331538 0.355048 -0.867356
C63   C     C_3   0.784136 0.732361 0.589047 -0.376000
C64   C     C_3   0.793092 0.658689 0.663539 -0.258481
C65   C     C_3   0.922743 0.652975 0.676751 -0.977194
C66   C     C_3   0.799212 0.888002 0.689744 -0.431912
C67   C     C_R   0.560268 0.404961 0.073701 0.596981
C68   C     C_3   0.752575 0.925739 0.764235 -0.323160
C69   C     C_3   0.849826 0.951983 0.831836 -0.924462
C70   C     C_3   0.189103 0.101429 0.321409 -0.430694
C71   C     C_3   0.095415 0.025115 0.377757 -0.349178
C72   C     C_3   0.973081 0.996882 0.333525 -0.884313
C73   C     C_R   0.592293 0.621376 0.931108 0.634647
C74   C     C_R   0.543254 0.338602 0.014511 0.001870
H1    H     H_    0.790592 0.041902 0.604221 0.163660
H2    H     H_    0.532008 0.207782 0.093321 0.207205
H3    H     H_    0.566021 0.207767 0.982415 0.207118
H4    H     H_    0.379745 0.867484 0.917269 0.262481
H5    H     H_    0.502931 0.912400 0.841036 0.263923
H6    H     H_    0.358711 0.842143 0.807717 0.255899
H7    H     H_    0.500477 0.746530 0.825053 0.273147
H8    H     H_    0.383714 0.705994 0.906047 0.214020
H9    H     H_    0.521653 0.801554 0.007189 0.204617
H10   H     H_    0.644957 0.828527 0.931597 0.218399
H11   H     H_    0.854245 0.195952 0.616190 0.170939
H12   H     H_    0.303745 0.977910 0.318217 0.171426
H13   H     H_    0.701569 0.180103 0.657064 0.161588
H14   H     H_    0.781257 0.286132 0.595117 0.207154
H15   H     H_    0.584423 0.881866 0.335413 0.198456
H16   H     H_    0.488995 0.925689 0.256181 0.139920
H17   H     H_    0.475516 0.803807 0.275198 0.213227
H18   H     H_    0.306952 0.491936 0.103223 0.164673
H19   H     H_    0.271919 0.511723 0.210817 0.159119
H20   H     H_    0.231586 0.396914 0.178172 0.185556
H21   H     H_    0.309701 0.534795 0.856653 0.138012
H22   H     H_    0.293909 0.503249 0.747389 0.150567
H23   H     H_    0.557183 0.233366 0.533333 0.199390
H24   H     H_    0.329944 0.622520 0.766259 0.190470
H25   H     H_    0.850652 0.736084 0.257262 0.153688
H26   H     H_    0.770191 0.643253 0.337042 0.149445
H27   H     H_    0.828010 0.759971 0.363437 0.178818
H28   H     H_    0.277385 0.214323 0.640752 0.189095
H29   H     H_    0.253973 0.300008 0.703002 0.123095
H30   H     H_    0.221428 0.178848 0.747814 0.159624
H31   H     H_    0.116337 0.080872 0.909913 0.262987
H32   H     H_    0.154466 0.097479 0.020579 0.267694
H33   H     H_    0.041431 0.145865 0.967606 0.253689
H34   H     H_    0.415142 0.761120 0.492502 0.204886
H35   H     H_    0.234829 0.269045 0.978569 0.224649
H36   H     H_    0.195942 0.253210 0.869062 0.211468
H37   H     H_    0.338932 0.146294 0.874461 0.230026
H38   H     H_    0.374473 0.174097 0.979968 0.188278
H39   H     H_    0.895885 0.963622 0.029723 0.272244
H40   H     H_    0.967129 0.926865 0.126080 0.259861
H41   H     H_    0.012437 0.905862 0.023206 0.256381
H42   H     H_    0.878841 0.761557 0.104586 0.213490
H43   H     H_    0.817101 0.794518 0.003790 0.232778
H44   H     H_    0.680105 0.864237 0.076667 0.171095
H45   H     H_    0.714807 0.123769 0.084352 0.266461
H46   H     H_    0.753221 0.852768 0.173259 0.242569
H47   H     H_    0.773516 0.453971 0.114827 0.116233
H48   H     H_    0.713511 0.499778 0.200100 0.165317
H49   H     H_    0.755242 0.394788 0.221569 0.190809
H50   H     H_    0.792430 0.578561 0.863751 0.190741
H51   H     H_    0.805423 0.646296 0.953094 0.144187
H52   H     H_    0.853588 0.703376 0.849504 0.193224
H53   H     H_    0.103107 0.406999 0.346352 0.258603
H54   H     H_    0.031743 0.307401 0.291077 0.246426
H55   H     H_    0.970450 0.320567 0.391776 0.280144
H56   H     H_    0.754256 0.170029 0.973958 0.261824
H57   H     H_    0.084656 0.202372 0.407596 0.230087
H58   H     H_    0.146357 0.293257 0.470054 0.243466
H59   H     H_    0.304731 0.370984 0.355642 0.279471
H60   H     H_    0.246682 0.290991 0.288501 0.182167
H61   H     H_    0.960077 0.640420 0.616436 0.286592
H62   H     H_    0.980843 0.718843 0.697628 0.257021
H63   H     H_    0.924404 0.595049 0.726941 0.250406
H64   H     H_    0.761174 0.677838 0.721648 0.264673
H65   H     H_    0.733661 0.588592 0.657193 0.253607
H66   H     H_    0.867793 0.791156 0.589665 0.159914
H67   H     H_    0.863079 0.201035 0.057576 0.250740
H68   H     H_    0.796154 0.716342 0.523986 0.210643
H69   H     H_    0.878613 0.890139 0.858881 0.271273
H70   H     H_    0.929510 0.006717 0.803368 0.261044
H71   H     H_    0.813044 0.979457 0.884406 0.251401
H72   H     H_    0.721224 0.987714 0.742692 0.218640
H73   H     H_    0.674519 0.870940 0.792996 0.250194
H74   H     H_    0.832148 0.829391 0.718894 0.221990
H75   H     H_    0.879909 0.939850 0.659240 0.185443
H76   H     H_    0.935789 0.057483 0.320163 0.267757
H77   H     H_    0.982691 0.969172 0.272564 0.258549
H78   H     H_    0.771560 0.330166 0.008922 0.210921
H79   H     H_    0.908415 0.941901 0.375775 0.251380
H80   H     H_    0.126715 0.961991 0.393161 0.228661
H81   H     H_    0.082631 0.050168 0.439557 0.213875
H82   H     H_    0.143162 0.152600 0.293019 0.212606
H83   H     H_    0.212165 0.074112 0.263577 0.188599
H84   H     H_    0.740123 0.284717 0.120127 0.248279
N1    N     N_R   0.566020 0.731700 0.552730 -0.117983
N2    N     N_R   0.433980 0.268300 0.447270 -0.136102
O1    O     O_R   0.466720 0.383110 0.605620 -0.584511
O2    O     O_3   0.402909 0.854591 0.370038 -0.643893
O3    O     O_3   0.412760 0.451232 0.203503 -0.555940
O4    O     O_3   0.470665 0.563978 0.787322 -0.550271
O5    O     O_3   0.676399 0.738783 0.288263 -0.608482
O6    O     O_3   0.404531 0.246669 0.734868 -0.595019
O7    O     O_3   0.594610 0.381486 0.156863 -0.565658
O8    O     O_3   0.667380 0.654611 0.860841 -0.589705
O9    O     O_R   0.533280 0.616890 0.394380 -0.562381
O10   O     O_R   0.509090 0.531900 0.639510 -0.566019
O11   O     O_R   0.490910 0.468100 0.360490 -0.587780
O12   O     O_R   0.644370 0.425610 0.483050 -0.597980
O13   O     O_R   0.355630 0.574390 0.516950 -0.612722
O14   O     O_R   0.686740 0.574390 0.516930 -0.642078
O15   O     O_R   0.313260 0.425610 0.483070 -0.650579
O16   O     O_3   0.718884 0.176426 0.524130 -0.612882
Zn1   Zn    Zn3+2 0.471710 0.400660 0.477370 0.956160
Zn2   Zn    Zn3+2 0.528290 0.599340 0.522630 0.971423

loop_
_geom_bond_atom_site_label_1
_geom_bond_atom_site_label_2
_ccdc_geom_bond_type
O12   Zn1   S    
C15   C18   A    
C66   C68   S    
C50   H30   S    
C51   H38   S    
C48   H21   S    
C54   H46   S    
C34   C37   A    
C69   H71   S    
C63   H66   S    
C42   H8    S    
C8    H23   S    
C4    C70   S    
C57   H41   S    
C46   H15   S    
C64   H64   S    
C27   C33   A    
C43   H4    S    
C30   C54   S    
C58   H49   S    
O10   Zn2   S    
C70   H82   S    
C23   C29   A    
C35   C37   A    
C24   C26   T    
C10   C15   A    
C49   H27   S    
C38   C39   S    
C7    N1    A    
C55   H42   S    
C2    C41   S    
C67   O7    S    
C41   H9    S    
C1    O10   A    
C33   C36   A    
C5    C63   S    
C45   C73   A    
C41   C42   S    
C4    C13   A    
C53   H33   S    
C61   H58   S    
C54   C55   S    
C37   C56   A    
C53   H32   S    
C47   H20   S    
C45   C56   A    
O13   Zn2   S    
C68   C69   S    
C5    N1    A    
C22   C25   T    
C50   O6    S    
C51   H37   S    
C70   C71   S    
C44   H13   S    
O14   Zn2   S    
C66   H74   S    
C32   O5    S    
C65   H63   S    
C2    C34   A    
C1    O1    A    
C50   H29   S    
C40   H67   S    
C62   H55   S    
C42   H7    S    
C73   O8    S    
C17   O13   A    
C12   O11   A    
C11   C20   A    
C58   H48   S    
C17   C24   S    
C30   C34   A    
C27   C31   A    
C51   C52   S    
C6    C60   S    
C28   C32   A    
C33   O4    S    
C28   C35   A    
C66   H75   S    
C4    C6    A    
C39   C40   S    
C38   H2    S    
C46   H17   S    
C25   C26   S    
C71   H80   S    
C39   H78   S    
C35   O3    S    
C20   H1    S    
C60   C61   S    
C59   H52   S    
C19   O2    S    
C9    C14   A    
C49   O5    S    
C49   H25   S    
C16   O12   A    
C6    N2    A    
C31   O6    S    
C52   H36   S    
C72   H77   S    
C71   H81   S    
C47   H19   S    
C13   C21   A    
C36   C45   A    
C67   C74   A    
C57   H39   S    
C58   O7    S    
C9    C11   A    
C65   H61   S    
C68   H73   S    
C48   O4    S    
C12   C28   S    
C50   H28   S    
O15   Zn1   S    
C72   H76   S    
C55   C57   S    
C39   H84   S    
C62   H54   S    
C3    C66   S    
C59   H51   S    
C42   C43   S    
N1    Zn2   S    
O1    Zn1   S    
C44   H11   S    
C8    N2    A    
C60   H60   S    
O9    Zn2   S    
C68   H72   S    
C52   C53   S    
C55   H43   S    
C16   O14   A    
C59   H50   S    
C7    C9    A    
C40   H56   S    
C21   H12   S    
C58   H47   S    
C16   C22   S    
C72   H79   S    
C48   H22   S    
C19   C21   A    
C14   C15   A    
C14   C19   A    
C44   O16   S    
C3    C5    A    
C10   C13   A    
C69   H70   S    
C12   O9    A    
C46   H16   S    
C38   H3    S    
C69   H69   S    
C56   C67   A    
C48   H24   S    
C47   H18   S    
C70   H83   S    
C64   C65   S    
C54   H44   S    
C43   H6    S    
C47   O3    S    
C71   C72   S    
C29   C31   A    
C49   H26   S    
C30   C32   A    
C41   H10   S    
C62   H53   S    
C57   H40   S    
C52   H35   S    
C2    C73   A    
C63   H68   S    
C38   C74   S    
C18   C20   A    
C61   C62   S    
N2    Zn1   S    
C65   H62   S    
C3    C11   A    
C61   H57   S    
C29   C51   S    
C63   C64   S    
C53   H31   S    
C40   H45   S    
C8    C10   A    
C23   C36   A    
C46   O2    S    
C1    C27   S    
C7    H34   S    
O11   Zn1   S    
C23   C74   A    
C44   H14   S    
C43   H5    S    
C60   H59   S    
C59   O8    S    
C17   O15   A    
C64   H65   S    
C18   O16   S    
