data_mof_unit_19370.cif
_audit_creation_date              2012-12-10T16:43:26-0500
_audit_creation_method            fapswitch 2.2
_symmetry_space_group_name_H-M    P1
_symmetry_Int_Tables_number       1
_space_group_crystal_system       triclinic
_cell_length_a                    10.761551
_cell_length_b                    8.669827
_cell_length_c                    7.491064
_cell_angle_alpha                 103.38408
_cell_angle_beta                  94.555531
_cell_angle_gamma                 92.522702
_cell_volume                      676.38693032

loop_
_atom_site_label
_atom_site_type_symbol
_atom_type_description
_atom_site_fract_x
_atom_site_fract_y
_atom_site_fract_z
_atom_type_partial_charge
C1    C     C_R   0.496837 0.199711 0.452906 0.837356
C2    C     C_R   0.072615 0.656558 0.601166 0.052638
C3    C     C_R   0.129939 0.518967 0.508806 -0.167723
C4    C     C_R   0.058739 0.383200 0.410628 -0.207075
C5    C     C_R   0.930336 0.374349 0.405672 0.405756
C6    C     C_R   0.870827 0.508401 0.496237 -0.153373
C7    C     C_2   0.496388 0.031411 0.426730 -0.336605
C8    C     C_2   0.510507 0.968859 0.572694 -0.349123
C9    C     C_R   0.263428 0.509975 0.503637 0.894956
C10   C     C_R   0.506749 0.800387 0.546835 0.903976
C11   C     C_R   0.736926 0.499567 0.498010 0.747971
C12   C     C_R   0.140737 0.800282 0.699885 0.414237
C13   C     C_R   0.076338 0.932849 0.780703 -0.204042
C14   C     C_R   0.947150 0.926614 0.764783 -0.154568
C15   C     C_R   0.879585 0.787997 0.670479 -0.142372
C16   C     C_R   0.940333 0.650665 0.590106 -0.004603
Cu1   Cu    Cu3+1 0.513920 0.517380 0.684380 1.059769
Cu2   Cu    Cu3+1 0.486080 0.482620 0.315620 1.047084
H1    H     H_    0.104184 0.279932 0.340438 0.163138
H2    H     H_    0.126778 0.042656 0.855381 0.137908
H3    H     H_    0.898894 0.030158 0.825681 0.176047
H4    H     H_    0.779032 0.790912 0.659859 0.136588
H5    H     H_    0.483756 0.958724 0.286459 0.194453
N1    N     N_2   0.465100 0.456430 0.038520 0.143881
N2    N     N_2   0.534900 0.543570 0.961480 0.145781
O1    O     O_R   0.509050 0.286130 0.619770 -0.540245
O2    O     O_R   0.485540 0.256780 0.308360 -0.615054
O3    O     O_R   0.331410 0.514680 0.655740 -0.499047
O4    O     O_R   0.307900 0.485330 0.344330 -0.612101
O5    O     O_R   0.514460 0.743220 0.691640 -0.589855
O6    O     O_R   0.490950 0.713870 0.380230 -0.539375
O7    O     O_R   0.692100 0.514670 0.655670 -0.603633
O8    O     O_R   0.668590 0.485320 0.344260 -0.535914
O9    O     O_3   0.618785 0.646044 0.075685 -0.602389
H6    H     H_    0.662734 0.701351 0.994881 0.332391
O10   O     O_3   0.269196 0.811260 0.716750 -0.741498
H7    H     H_    0.300504 0.917138 0.793479 0.317341
O11   O     O_3   0.868219 0.231479 0.313458 -0.728007
H8    H     H_    0.779401 0.230084 0.338089 0.319868
H9    H     H_    0.523325 0.041561 0.712943 0.186209
O12   O     O_3   0.381334 0.353817 0.924231 -0.613266
H10   H     H_    0.337476 0.298299 0.004921 0.322519

loop_
_geom_bond_atom_site_label_1
_geom_bond_atom_site_label_2
_ccdc_geom_bond_type
C3    C9    S    
C12   O10   S    
C2    C16   A    
O12   H10   S    
C10   O5    A    
C9    O4    A    
N2    O9    S    
Cu1   N2    S    
C2    C3    A    
C2    C12   A    
C7    C8    D    
Cu2   O4    S    
C1    C7    S    
C13   C14   A    
N1    N2    D    
Cu1   O5    S    
C4    H1    S    
O11   H8    S    
N1    O12   S    
Cu2   N1    S    
Cu1   O1    S    
C14   H3    S    
O10   H7    S    
C11   O7    A    
Cu1   Cu2   S    
C5    C6    A    
Cu2   O8    S    
C7    H5    S    
C1    O1    A    
C6    C16   A    
C3    C4    A    
C11   O8    A    
C12   C13   A    
C8    C10   S    
O9    H6    S    
C6    C11   S    
C1    O2    A    
Cu1   O7    S    
C14   C15   A    
Cu2   O6    S    
C8    H9    S    
C13   H2    S    
C5    O11   S    
Cu1   O3    S    
C10   O6    A    
C15   H4    S    
Cu2   O2    S    
C15   C16   A    
C9    O3    A    
C4    C5    A    
