data_mof_unit_68009.cif
_audit_creation_date              2012-12-11T15:59:33-0500
_audit_creation_method            fapswitch 2.2
_symmetry_space_group_name_H-M    P1
_symmetry_Int_Tables_number       1
_space_group_crystal_system       triclinic
_cell_length_a                    10.695365
_cell_length_b                    10.810543
_cell_length_c                    16.90116
_cell_angle_alpha                 99.263796
_cell_angle_beta                  99.744831
_cell_angle_gamma                 60.784943
_cell_volume                      1673.97750703

loop_
_atom_site_label
_atom_site_type_symbol
_atom_type_description
_atom_site_fract_x
_atom_site_fract_y
_atom_site_fract_z
_atom_type_partial_charge
C1    C     C_R   0.357943 0.766477 0.396517 0.535834
C2    C     C_R   0.856707 0.203667 0.198959 0.026614
C3    C     C_R   0.879508 0.217237 0.284109 -0.003456
C4    C     C_R   0.763238 0.474438 0.280293 -0.150085
C5    C     C_R   0.768200 0.459481 0.198907 -0.180337
C6    C     C_R   0.871992 0.070292 0.159979 0.313077
C7    C     C_R   0.938844 0.951132 0.204593 -0.118070
C8    C     C_R   0.982672 0.962914 0.286245 -0.170965
C9    C     C_R   0.959920 0.093919 0.326825 0.015592
C10   C     C_R   0.818704 0.354553 0.323376 0.012584
C11   C     C_R   0.364911 0.806502 0.154008 -0.006026
C12   C     C_R   0.365384 0.343295 0.359023 0.549001
C13   C     C_R   0.460689 0.835530 0.212257 -0.024691
C14   C     C_R   0.447042 0.841479 0.294292 -0.025816
C15   C     C_R   0.295800 0.725822 0.253328 -0.115921
C16   C     C_R   0.305679 0.727082 0.173023 0.240867
C17   C     C_R   0.578455 0.842751 0.190714 -0.115998
C18   C     C_R   0.683455 0.849395 0.249840 -0.113414
C19   C     C_R   0.665172 0.865482 0.331368 0.034454
C20   C     C_R   0.538354 0.878103 0.352582 -0.071771
C21   C     C_R   0.354657 0.794087 0.314532 -0.043313
C22   C     C_R   0.280381 0.256913 0.791576 -0.058093
C23   C     C_R   0.771190 0.381322 0.402061 0.551183
C24   C     C_R   0.384529 0.142555 0.743833 0.012282
C25   C     C_R   0.386164 0.162276 0.663464 -0.007529
C26   C     C_R   0.188199 0.403313 0.678756 0.236587
C27   C     C_R   0.175593 0.379337 0.755042 -0.150199
C28   C     C_R   0.488390 0.009081 0.772239 -0.101709
C29   C     C_R   0.587093 0.901970 0.723478 -0.124345
C30   C     C_R   0.581940 0.920379 0.643697 -0.073921
C31   C     C_R   0.476147 0.045295 0.612560 -0.075363
C32   C     C_R   0.304031 0.300086 0.636725 0.004922
C33   C     C_1   0.847776 0.328535 0.705090 -0.038643
C34   C     C_R   0.381864 0.714051 0.631672 0.561850
C35   C     C_1   0.894670 0.293484 0.772050 -0.055312
C36   C     C_1   0.359829 0.763351 0.714211 -0.061461
C37   C     C_1   0.327167 0.810383 0.781348 -0.070213
C38   C     C_R   0.889855 0.308238 0.086326 0.552905
C39   C     C_R   0.290570 0.260487 0.122040 0.576231
C40   C     C_R   0.299282 0.886734 0.083739 0.543680
C41   C     C_R   0.943611 0.273696 0.854867 0.540728
C42   C     C_R   0.275710 0.248538 0.877404 0.548697
C43   C     C_R   0.281565 0.880426 0.858155 0.521553
C44   C     C_R   0.362451 0.342008 0.578503 0.540591
C45   C     C_R   0.778297 0.378409 0.628618 0.554184
C46   C     C_1   0.323369 0.316815 0.277225 -0.043097
C47   C     C_1   0.304181 0.291288 0.206374 -0.030101
C48   C     C_R   0.822195 0.324933 0.157951 0.002121
Cr1   Cr    Cr6+3 0.608100 0.610860 0.522250 0.996801
Cr2   Cr    Cr6+3 0.288890 0.599990 0.488420 0.990154
Cr3   Cr    Cr6+3 0.603040 0.289190 0.489390 0.965487
Cr4   Cr    Cr6+3 0.053960 0.052250 0.967380 1.018741
Cr5   Cr    Cr6+3 0.059890 0.373160 0.992710 0.991174
Cr6   Cr    Cr6+3 0.373370 0.061690 0.991710 0.934783
H1    H     H_    0.714002 0.581260 0.309526 0.165317
H2    H     H_    0.782165 0.834493 0.231933 0.097848
H3    H     H_    0.522002 0.901270 0.415645 0.120748
H4    H     H_    0.499095 0.980556 0.831362 0.176022
H5    H     H_    0.086131 0.459469 0.786900 0.142020
H6    H     H_    0.663189 0.801577 0.747178 0.111746
H7    H     H_    0.655644 0.835064 0.604875 0.128440
H8    H     H_    0.466810 0.050463 0.548314 0.106498
H9    H     H_    0.736543 0.552569 0.168314 0.136538
H10   H     H_    0.961317 0.846974 0.175661 0.130313
H11   H     H_    0.036394 0.868089 0.317707 0.136749
H12   H     H_    0.246631 0.666235 0.267695 0.151589
H13   H     H_    0.600875 0.823424 0.128622 0.119232
O1    O     O_R   0.749810 0.499790 0.438040 -0.523529
O2    O     O_R   0.298970 0.468800 0.557390 -0.489666
O3    O     O_R   0.489400 0.255930 0.561910 -0.542630
O4    O     O_R   0.723890 0.306050 0.584610 -0.506614
O5    O     O_3   0.500010 0.500010 0.500020 -0.254890
O6    O     O_R   0.171100 0.914680 0.053100 -0.465276
O7    O     O_R   0.941680 0.184840 0.050710 -0.432588
O8    O     O_R   0.922080 0.403420 0.072610 -0.532999
O9    O     O_R   0.196880 0.369150 0.083850 -0.476103
O10   O     O_R   0.411730 0.181020 0.091530 -0.548885
O11   O     O_R   0.365010 0.944360 0.063320 -0.538075
O12   O     O_R   0.477660 0.726260 0.439290 -0.507299
O13   O     O_R   0.159380 0.906670 0.876210 -0.540651
O14   O     O_R   0.930820 0.177420 0.886730 -0.491426
O15   O     O_R   0.910360 0.395420 0.895720 -0.522106
O16   O     O_R   0.186010 0.361730 0.919870 -0.519048
O17   O     O_R   0.400000 0.173010 0.914630 -0.553552
O18   O     O_R   0.354140 0.936940 0.899340 -0.534762
O19   O     O_3   0.162410 0.162370 0.983930 -0.300128
O20   O     O_R   0.260150 0.743000 0.412270 -0.543787
O21   O     O_R   0.297740 0.466550 0.394720 -0.501821
O22   O     O_R   0.488080 0.253500 0.386430 -0.521076
O23   O     O_R   0.722670 0.303800 0.421940 -0.515419
O24   O     O_R   0.751130 0.502220 0.613520 -0.498183
O25   O     O_R   0.478890 0.728510 0.601960 -0.489488
O26   O     O_R   0.261470 0.745430 0.587750 -0.540431
C49   C     C_3   0.790055 0.842151 0.395088 -0.307418
C50   C     C_3   0.769609 0.979496 0.444767 -0.389728
H14   H     H_    0.759149 0.055708 0.404378 0.207518
H15   H     H_    0.672252 0.025286 0.477031 0.168965
H16   H     H_    0.864719 0.958226 0.489827 0.110929
H17   H     H_    0.802317 0.764714 0.435717 0.149756
H18   H     H_    0.892407 0.794341 0.367168 0.138162
O27   O     O_3   0.079232 0.519942 0.641610 -0.558928
C51   C     C_3   0.089789 0.644704 0.671826 0.038850
H19   H     H_    0.060747 0.707249 0.619434 0.187224
H20   H     H_    0.200787 0.623480 0.697465 0.124762
C52   C     C_3   0.984497 0.733320 0.734807 -0.297096
H21   H     H_    0.894768 0.707148 0.725402 0.182747
H22   H     H_    0.041166 0.706097 0.795969 0.140886
C53   C     C_3   0.923217 0.892958 0.729761 -0.438448
H23   H     H_    0.011362 0.920853 0.734486 0.179654
H24   H     H_    0.855021 0.953955 0.779435 0.165333
H25   H     H_    0.856066 0.924504 0.671436 0.141919
O28   O     O_3   0.826031 0.056558 0.078524 -0.541568
C54   C     C_3   0.732369 0.995815 0.063163 0.004942
H26   H     H_    0.636376 0.066175 0.024630 0.199313
H27   H     H_    0.692074 0.989710 0.118176 0.114474
C55   C     C_3   0.802169 0.848541 0.016240 -0.263461
H28   H     H_    0.898646 0.772698 0.052191 0.168653
H29   H     H_    0.723551 0.806760 0.004201 0.109835
C56   C     C_3   0.845361 0.854212 0.935884 -0.382807
H30   H     H_    0.931621 0.885822 0.945945 0.213790
H31   H     H_    0.751016 0.931243 0.899109 0.129623
H32   H     H_    0.886564 0.747257 0.902094 0.113503
C57   C     C_3   0.038602 0.095235 0.411094 -0.270558
C58   C     C_3   0.146822 0.150061 0.413409 -0.425366
H33   H     H_    0.215486 0.130918 0.471936 0.135660
H34   H     H_    0.216854 0.094570 0.364010 0.154106
H35   H     H_    0.090418 0.266128 0.407282 0.160024
H36   H     H_    0.097210 0.987535 0.431325 0.171725
H37   H     H_    0.966687 0.155648 0.458572 0.162507
O29   O     O_3   0.257004 0.651214 0.113662 -0.561018
C59   C     C_3   0.372936 0.547636 0.069655 0.025189
H38   H     H_    0.386879 0.441205 0.075943 0.199651
H39   H     H_    0.480110 0.541690 0.092040 0.098699
C60   C     C_3   0.339079 0.572284 0.980003 -0.253531
H40   H     H_    0.239261 0.566002 0.955426 0.197689
H41   H     H_    0.320315 0.679562 0.971800 0.180365
C61   C     C_3   0.463450 0.464410 0.932076 -0.459502
H42   H     H_    0.558638 0.482304 0.950028 0.155511
H43   H     H_    0.430690 0.476883 0.866662 0.145210
H44   H     H_    0.494415 0.354226 0.943058 0.196799

loop_
_geom_bond_atom_site_label_1
_geom_bond_atom_site_label_2
_ccdc_geom_bond_type
C25   C31   A    
C1    C21   S    
O27   C51   S    
Cr1   O1    S    
C45   O4    A    
C33   C45   S    
C53   H23   S    
C52   H21   S    
C19   C20   A    
C34   O26   A    
C59   C60   S    
C60   C61   S    
Cr6   O17   S    
C50   H16   S    
C57   C58   S    
C2    C6    A    
C55   H28   S    
C26   C32   A    
C52   H22   S    
C26   C27   A    
C39   O10   A    
C14   C21   A    
C39   C47   S    
C36   C37   T    
Cr2   O2    S    
Cr4   O7    S    
C26   O27   S    
C30   C31   A    
C61   H44   S    
C15   C16   A    
C40   O6    A    
C5    H9    S    
C51   C52   S    
C18   C19   A    
C1    O20   A    
Cr2   O5    S    
C33   C35   T    
C50   H14   S    
C53   H24   S    
C8    C9    A    
Cr1   O5    S    
C44   O3    A    
Cr5   O19   S    
Cr3   O3    S    
C16   O29   S    
C38   C48   S    
Cr2   O21   S    
Cr6   O10   S    
C25   C32   A    
C8    H11   S    
C13   C14   A    
C57   H37   S    
C31   H8    S    
Cr5   O8    S    
Cr3   O4    S    
Cr1   O24   S    
C45   O24   A    
O28   C54   S    
C5    C48   A    
C38   O8    A    
C56   H31   S    
C52   C53   S    
C17   H13   S    
C12   O21   A    
C51   H19   S    
C43   O18   A    
C55   C56   S    
C14   C20   A    
C12   O22   A    
C7    C8    A    
C42   O17   A    
C24   C25   A    
C12   C46   S    
Cr4   O6    S    
Cr6   O19   S    
C60   H41   S    
C2    C48   A    
C43   O13   A    
C15   H12   S    
Cr1   O12   S    
Cr5   O15   S    
C23   O1    A    
C37   C43   S    
C29   C30   A    
C3    C9    A    
C61   H43   S    
C11   C16   A    
Cr4   O14   S    
C29   H6    S    
C49   H18   S    
C41   O14   A    
C17   C18   A    
C32   C44   S    
C23   O23   A    
C49   C50   S    
C39   O9    A    
C51   H20   S    
C6    C7    A    
C19   C49   S    
Cr2   O20   S    
C58   H35   S    
C40   O11   A    
C28   H4    S    
C22   C27   A    
C4    H1    S    
C1    O12   A    
C22   C24   A    
Cr5   O9    S    
Cr3   O5    S    
Cr1   O25   S    
C4    C10   A    
C59   H38   S    
C58   H34   S    
C54   H26   S    
C38   O7    A    
C56   H32   S    
C46   C47   T    
C28   C29   A    
C6    O28   S    
C42   O16   A    
C24   C28   A    
C4    C5    A    
C59   H39   S    
Cr6   O18   S    
C56   H30   S    
C50   H15   S    
Cr2   O26   S    
C60   H40   S    
C18   H2    S    
C10   C23   S    
C61   H42   S    
C53   H25   S    
C13   C17   A    
Cr5   O16   S    
C54   C55   S    
Cr4   O19   S    
C2    C3    A    
Cr3   O23   S    
C3    C10   A    
C27   H5    S    
Cr3   O22   S    
C11   C13   A    
C57   H36   S    
C22   C42   S    
C49   H17   S    
C41   O15   A    
C9    C57   S    
C55   H29   S    
O29   C59   S    
C34   C36   S    
C11   C40   S    
C35   C41   S    
C34   O25   A    
C7    H10   S    
C15   C21   A    
C30   H7    S    
C44   O2    A    
Cr6   O11   S    
C20   H3    S    
Cr4   O13   S    
C58   H33   S    
C54   H27   S    
