data_mof_unit_5633.cif
_audit_creation_date              2012-10-26T19:57:24-0400
_audit_creation_method            fapswitch 2.2
_symmetry_space_group_name_H-M    P1
_symmetry_Int_Tables_number       1
_space_group_crystal_system       triclinic
_cell_length_a                    13.018425
_cell_length_b                    10.934311
_cell_length_c                    9.736138
_cell_angle_alpha                 90.154347
_cell_angle_beta                  96.709649
_cell_angle_gamma                 90.668474
_cell_volume                      1376.31766581

loop_
_atom_site_label
_atom_site_type_symbol
_atom_type_description
_atom_site_fract_x
_atom_site_fract_y
_atom_site_fract_z
_atom_type_partial_charge
C1    C     C_R   0.496421 0.265595 0.499359 0.576549
C2    C     C_2   0.480607 0.134131 0.495215 0.110880
C3    C     C_2   0.469780 0.409027 0.919975 -0.033174
C4    C     C_R   0.300986 0.500712 0.473658 0.538570
C5    C     C_2   0.445604 0.422344 0.067735 0.238581
C6    C     C_R   0.505098 0.734558 0.500465 0.571150
C7    C     C_R   0.699574 0.501414 0.526757 0.576723
C8    C     C_R   0.813455 0.501561 0.544204 -0.012349
C9    C     C_R   0.188940 0.507353 0.458677 0.003018
C10   C     C_R   0.029961 0.582606 0.339659 -0.121056
C11   C     C_R   0.135779 0.565694 0.345182 -0.124384
C12   C     C_R   0.028985 0.477394 0.560796 -0.002035
C13   C     C_R   0.135902 0.462572 0.564681 -0.093722
C14   C     C_2   0.812538 0.634169 0.332883 0.600886
C15   C     C_3   0.411036 0.083836 0.713365 -0.294478
C16   C     C_2   0.487587 0.620645 0.895069 0.728804
C17   C     C_3   0.310973 0.259059 0.022186 -0.341542
C18   C     C_3   0.807081 0.464811 0.883645 -0.228302
C19   C     C_2   0.032959 0.379347 0.795110 0.539659
C20   C     C_3   0.468979 0.954312 0.137994 -0.271953
C21   C     C_R   0.974921 0.538739 0.446525 -0.013366
C22   C     C_R   0.867725 0.555750 0.441908 -0.043539
C23   C     C_R   0.867649 0.441860 0.658989 0.089402
C24   C     C_R   0.975838 0.432179 0.668785 0.077027
C25   C     C_2   0.518742 0.936358 0.388743 0.109951
C26   C     C_2   0.519677 0.866554 0.503007 -0.070644
C27   C     C_2   0.530453 0.069324 0.406417 -0.120973
Cu1   Cu    Cu3+1 0.500020 0.500020 0.638640 1.006611
Cu2   Cu    Cu3+1 0.499980 0.499980 0.361360 1.004556
H1    H     H_    0.458817 0.320364 0.870709 0.121406
H2    H     H_    0.402609 0.989334 0.752503 0.151936
H3    H     H_    0.349945 0.141071 0.750090 0.157293
H4    H     H_    0.488276 0.119720 0.756960 0.154421
H5    H     H_    0.333234 0.602567 0.895989 0.324561
H6    H     H_    0.361528 0.335501 0.213558 0.307815
H7    H     H_    0.243527 0.220802 0.068443 0.165823
H8    H     H_    0.366458 0.184238 0.011685 0.118163
H9    H     H_    0.282213 0.296188 0.918931 0.170145
H10   H     H_    0.830877 0.299567 0.786613 0.281917
H11   H     H_    0.750643 0.423935 0.947935 0.146987
H12   H     H_    0.565399 0.534599 0.120777 0.236881
H13   H     H_    0.781001 0.558382 0.853482 0.208223
H14   H     H_    0.883876 0.471001 0.946315 0.162825
H15   H     H_    0.126857 0.411232 0.971680 0.340964
H16   H     H_    0.583137 0.840937 0.236137 0.310141
H17   H     H_    0.458650 0.895938 0.043853 0.206295
H18   H     H_    0.519537 0.033316 0.118252 0.124107
H19   H     H_    0.391751 0.987125 0.158577 0.157449
H20   H     H_    0.992344 0.630677 0.251134 0.158191
H21   H     H_    0.176530 0.601806 0.262964 0.156723
H22   H     H_    0.179212 0.415617 0.650123 0.151731
H23   H     H_    0.532236 0.908688 0.604737 0.114952
H24   H     H_    0.582930 0.115496 0.343914 0.127656
H25   H     H_    0.822715 0.509756 0.182769 0.280788
H26   H     H_    0.356862 0.010433 0.516967 0.261387
N1    N     N_2   0.498860 0.498660 0.846770 -0.279112
N2    N     N_2   0.498840 0.498630 0.152900 -0.312824
N3    N     N_2   0.398634 0.083111 0.563580 -0.531641
N4    N     N_2   0.359806 0.354840 0.110755 -0.493341
N5    N     N_2   0.812276 0.388953 0.762646 -0.500975
N6    N     N_2   0.515548 0.883422 0.253777 -0.457557
O1    O     O_R   0.500020 0.321960 0.617050 -0.506104
O2    O     O_R   0.795901 0.595184 0.195282 -0.679351
O3    O     O_2   0.562702 0.689274 0.909798 -0.481603
O4    O     O_R   0.390973 0.664672 0.919868 -0.678516
O5    O     O_2   0.025053 0.270273 0.819598 -0.531469
O6    O     O_R   0.095477 0.455670 0.885981 -0.710803
O7    O     O_R   0.499980 0.321920 0.382890 -0.542677
O8    O     O_R   0.349010 0.500000 0.598060 -0.513872
O9    O     O_R   0.348980 0.499950 0.363910 -0.505054
O10   O     O_R   0.500020 0.678080 0.617110 -0.484739
O11   O     O_R   0.499980 0.678040 0.382950 -0.450373
O12   O     O_R   0.651020 0.500050 0.636090 -0.467502
O13   O     O_R   0.650990 0.500000 0.401940 -0.498385
O14   O     O_2   0.779205 0.732904 0.364640 -0.473725

loop_
_geom_bond_atom_site_label_1
_geom_bond_atom_site_label_2
_ccdc_geom_bond_type
C3    H1    S    
C8    C22   A    
C23   C24   A    
C27   H24   S    
C19   O6    S    
C2    C27   D    
C16   O4    S    
C17   H7    S    
C26   H23   S    
C25   C27   S    
Cu2   O7    S    
C3    N1    D    
C12   C24   A    
Cu1   O8    S    
C5    N2    D    
C4    C9    S    
Cu2   O11   S    
C14   O14   D    
C14   C22   S    
C4    O9    A    
C19   C24   S    
Cu1   N1    S    
H12   N2    S    
C7    C8    S    
C7    O12   A    
C11   H21   S    
C25   N6    S    
C21   C22   A    
C1    O1    A    
C6    O11   A    
C23   N5    S    
C9    C11   A    
C20   H19   S    
C16   N1    S    
C17   N4    S    
Cu1   O12   S    
C12   C21   A    
H5    O4    S    
C18   N5    S    
C4    O8    A    
Cu2   N2    S    
C1    C2    S    
C7    O13   A    
C14   O2    S    
C17   H9    S    
C18   H13   S    
C10   C21   A    
C2    N3    S    
C15   N3    S    
Cu1   O10   S    
C10   C11   A    
H10   N5    S    
C17   H8    S    
C20   H18   S    
C18   H14   S    
C15   H3    S    
C1    O7    A    
C9    C13   A    
C12   C13   A    
C19   O5    D    
H6    N4    S    
Cu2   O9    S    
H25   O2    S    
H26   N3    S    
H16   N6    S    
C20   N6    S    
C5    N4    S    
C6    C26   S    
Cu1   Cu2   S    
H15   O6    S    
C18   H11   S    
Cu2   O13   S    
C16   O3    D    
C25   C26   D    
C13   H22   S    
C10   H20   S    
C15   H2    S    
C15   H4    S    
C20   H17   S    
C8    C23   A    
C6    O10   A    
C3    C5    S    
Cu1   O1    S    
