data_mof_unit_59520.cif
_audit_creation_date              2012-12-10T19:12:17-0500
_audit_creation_method            fapswitch 2.2
_symmetry_space_group_name_H-M    P1
_symmetry_Int_Tables_number       1
_space_group_crystal_system       triclinic
_cell_length_a                    7.860592
_cell_length_b                    9.046286
_cell_length_c                    16.925307
_cell_angle_alpha                 89.57951
_cell_angle_beta                  93.544992
_cell_angle_gamma                 89.305135
_cell_volume                      1201.11371033

loop_
_atom_site_label
_atom_site_type_symbol
_atom_type_description
_atom_site_fract_x
_atom_site_fract_y
_atom_site_fract_z
_atom_type_partial_charge
C1    C     C_R   0.500585 0.220379 0.499984 0.817385
C2    C     C_R   0.499330 0.779624 0.499845 0.839159
C3    C     C_R   0.520307 0.495046 0.651747 0.902072
C4    C     C_R   0.479991 0.498031 0.348334 0.900832
C5    C     C_R   0.527727 0.467587 0.738148 -0.375304
C6    C     C_R   0.468111 0.487922 0.261033 -0.350219
C7    C     C_R   0.382075 0.492713 0.781520 0.275123
C8    C     C_R   0.569933 0.385024 0.221360 0.243849
C9    C     C_R   0.371690 0.413685 0.852268 0.366620
C10   C     C_R   0.515659 0.343139 0.143853 0.265435
C11   C     C_R   0.522159 0.408251 0.900516 0.037958
C12   C     C_R   0.400182 0.436111 0.098040 0.094964
C13   C     C_R   0.674928 0.390778 0.862578 0.225405
C14   C     C_R   0.308780 0.547767 0.135943 0.205445
C15   C     C_R   0.670582 0.396262 0.778794 0.358720
C16   C     C_R   0.338548 0.569539 0.217870 0.259879
C17   C     C_1   0.500777 0.065529 0.499938 -0.151713
C18   C     C_1   0.498919 0.934487 0.499769 -0.169009
Cu1   Cu    Cu3+1 0.669080 0.500010 0.500000 1.073282
Cu2   Cu    Cu3+1 0.330920 0.499990 0.500000 1.057165
N1    N     N_1   0.076820 0.499970 0.500010 -0.022255
N2    N     N_1   0.923180 0.500030 0.499990 -0.011493
N3    N     N_2   0.524270 0.405151 0.984705 -0.100582
N4    N     N_2   0.384162 0.426757 0.013833 -0.056859
O1    O     O_R   0.642760 0.288400 0.500000 -0.577602
O2    O     O_R   0.357240 0.711600 0.500000 -0.572280
O3    O     O_R   0.357190 0.288380 0.500000 -0.590739
O4    O     O_R   0.642810 0.711620 0.500000 -0.581202
O5    O     O_R   0.658410 0.498660 0.613920 -0.565571
O6    O     O_R   0.341590 0.501340 0.386080 -0.579151
O7    O     O_R   0.372840 0.498650 0.613930 -0.517607
O8    O     O_R   0.627160 0.501350 0.386070 -0.507611
S1    S     S_3+6 0.768382 0.316123 0.265810 0.055540
O9    O     O_2   0.734425 0.214175 0.333390 -0.296560
O10   O     O_2   0.871265 0.234654 0.207795 -0.205610
O11   O     O_3   0.886509 0.458759 0.299806 -0.497627
H1    H     H_    0.994586 0.413325 0.321981 0.369883
S2    S     S_3+6 0.221599 0.625528 0.753549 0.069778
O12   O     O_2   0.078501 0.551802 0.706565 -0.209560
O13   O     O_2   0.153997 0.693248 0.826299 -0.213638
O14   O     O_3   0.302224 0.760055 0.698362 -0.576195
H2    H     H_    0.205022 0.828241 0.684851 0.365791
S3    S     S_3+6 0.556530 0.159978 0.111436 0.097925
O15   O     O_2   0.714590 0.156130 0.066223 -0.190277
O16   O     O_2   0.580629 0.056315 0.181099 -0.266442
O17   O     O_3   0.391148 0.101520 0.053003 -0.438308
H3    H     H_    0.436057 0.015424 0.024637 0.401667
S4    S     S_3+6 0.288001 0.235225 0.837413 0.064972
O18   O     O_2   0.228525 0.175669 0.913594 -0.130123
O19   O     O_2   0.143967 0.242304 0.775176 -0.240416
O20   O     O_3   0.438943 0.120310 0.806595 -0.626880
H4    H     H_    0.381872 0.023954 0.799147 0.397953
S5    S     S_3+6 0.865681 0.351422 0.918178 0.183286
O21   O     O_2   0.004664 0.430797 0.879730 -0.132171
O22   O     O_2   0.861806 0.402784 0.002212 -0.204685
O23   O     O_3   0.900145 0.167848 0.917493 -0.407488
H5    H     H_    0.787645 0.123469 0.924721 0.357443
S6    S     S_3+6 0.152667 0.661258 0.083298 0.141636
O24   O     O_2   0.210275 0.818806 0.085118 -0.218127
O25   O     O_2   0.123358 0.616882 0.998437 -0.158834
O26   O     O_3   0.967532 0.652055 0.127808 -0.420575
H6    H     H_    0.951552 0.545533 0.138555 0.384174
O27   O     O_3   0.805104 0.336035 0.739637 -0.492673
C19   C     C_3   0.750625 0.213185 0.692685 0.151139
H7    H     H_    0.815950 0.219137 0.636459 0.175013
H8    H     H_    0.611178 0.212948 0.676098 0.105414
C20   C     C_3   0.800647 0.065340 0.733304 -0.288579
H9    H     H_    0.940896 0.053868 0.741452 0.274429
H10   H     H_    0.747222 0.059633 0.792085 0.263321
C21   C     C_3   0.734696 0.934404 0.684522 -0.849982
H11   H     H_    0.593443 0.939288 0.676562 0.274776
H12   H     H_    0.772677 0.829426 0.715600 0.295215
H13   H     H_    0.789751 0.934871 0.625645 0.251576
O28   O     O_3   0.233766 0.666303 0.256295 -0.544979
C22   C     C_3   0.318022 0.801943 0.269688 0.146701
H14   H     H_    0.371192 0.844485 0.214703 0.217128
H15   H     H_    0.424251 0.788687 0.315816 0.103137
C23   C     C_3   0.190061 0.915240 0.298490 -0.269315
H16   H     H_    0.072556 0.915637 0.258362 0.294543
H17   H     H_    0.154812 0.883035 0.358798 0.214036
C24   C     C_3   0.262418 0.071192 0.300804 -0.780487
H18   H     H_    0.388685 0.072194 0.333967 0.252414
H19   H     H_    0.174241 0.146614 0.330393 0.261304
H20   H     H_    0.275870 0.112997 0.239703 0.295241

loop_
_geom_bond_atom_site_label_1
_geom_bond_atom_site_label_2
_ccdc_geom_bond_type
C2    C18   S    
O14   H2    S    
Cu1   Cu2   S    
C22   H14   S    
C24   H18   S    
Cu2   O6    S    
S5    O21   D    
C16   O28   S    
O11   H1    S    
S2    O12   D    
C23   H17   S    
S6    O25   D    
S1    O11   S    
O23   H5    S    
C3    O5    A    
S4    O20   S    
N3    N4    D    
C21   H11   S    
S6    O26   S    
S4    O19   D    
N1    N2    T    
C1    O1    A    
Cu1   O8    S    
C24   H19   S    
S1    O9    D    
C13   S5    S    
S5    O22   D    
C14   S6    S    
O28   C22   S    
C20   H9    S    
C19   C20   S    
Cu1   N2    S    
S2    O14   S    
C4    C6    S    
C5    C7    A    
C23   H16   S    
C6    C8    A    
C22   C23   S    
O20   H4    S    
C20   H10   S    
C19   H8    S    
S3    O15   D    
S3    O16   D    
C21   H13   S    
C17   C18   T    
C2    O2    A    
C3    O7    A    
Cu1   O4    S    
C9    C11   A    
C4    O8    A    
C10   C12   A    
S4    O18   D    
C12   C14   A    
C13   C15   A    
C14   C16   A    
Cu1   O5    S    
C24   H20   S    
S5    O23   S    
C7    C9    A    
O17   H3    S    
C10   S3    S    
C3    C5    S    
C2    O4    A    
Cu2   O3    S    
C12   N4    S    
C1    C17   S    
C20   C21   S    
C19   H7    S    
S6    O24   D    
S2    O13   D    
C11   C13   A    
C23   C24   S    
Cu2   O2    S    
C11   N3    S    
S1    O10   D    
C7    S2    S    
C8    S1    S    
O26   H6    S    
Cu1   O1    S    
S3    O17   S    
C5    C15   A    
C6    C16   A    
O27   C19   S    
Cu2   N1    S    
C9    S4    S    
C8    C10   A    
C22   H15   S    
C1    O3    A    
C15   O27   S    
C21   H12   S    
C4    O6    A    
Cu2   O7    S    
