data_mof_unit_33071.cif
_audit_creation_date              2012-12-10T17:55:29-0500
_audit_creation_method            fapswitch 2.2
_symmetry_space_group_name_H-M    P1
_symmetry_Int_Tables_number       1
_space_group_crystal_system       triclinic
_cell_length_a                    10.751696
_cell_length_b                    9.595137
_cell_length_c                    10.931732
_cell_angle_alpha                 90.20128
_cell_angle_beta                  91.844866
_cell_angle_gamma                 90.347303
_cell_volume                      1127.14812541

loop_
_atom_site_label
_atom_site_type_symbol
_atom_type_description
_atom_site_fract_x
_atom_site_fract_y
_atom_site_fract_z
_atom_type_partial_charge
C1    C     C_R   0.262691 0.499417 0.499763 0.808464
C2    C     C_R   0.737464 0.500474 0.501343 0.814972
C3    C     C_R   0.491345 0.499691 0.265664 0.688524
C4    C     C_R   0.505564 0.500533 0.734811 0.787476
C5    C     C_2   0.489727 0.391690 0.933219 -0.114176
C6    C     C_2   0.503519 0.391315 0.066636 -0.113042
C7    C     C_2   0.523367 0.503079 0.867885 0.328382
C8    C     C_2   0.465487 0.499268 0.133917 0.355034
C9    C     C_R   0.060593 0.501029 0.394683 -0.154387
C10   C     C_R   0.932133 0.502890 0.395254 -0.156007
C11   C     C_R   0.871681 0.502178 0.506186 -0.063424
C12   C     C_R   0.129094 0.497549 0.505036 -0.066050
C13   C     C_R   0.939240 0.499425 0.619229 -0.036962
C14   C     C_R   0.070192 0.495996 0.618516 -0.056791
C15   C     C_R   0.417978 0.072436 0.425357 -0.030643
C16   C     C_R   0.581697 0.073896 0.575025 -0.041197
C17   C     C_R   0.419205 0.922596 0.424490 0.432921
C18   C     C_R   0.580656 0.924027 0.575609 0.421954
Cu1   Cu    Cu3+1 0.500000 0.640660 0.500000 1.082639
Cu2   Cu    Cu3+1 0.500000 0.359340 0.500000 1.038672
H1    H     H_    0.453901 0.297631 0.888823 0.194599
H2    H     H_    0.546836 0.300938 0.109326 0.149128
H3    H     H_    0.106953 0.502373 0.308075 0.144484
H4    H     H_    0.879486 0.504636 0.309019 0.140874
N1    N     N_R   0.500000 0.852070 0.500000 -0.185676
N2    N     N_R   0.500000 0.147940 0.500000 -0.264112
O1    O     O_R   0.319640 0.618740 0.499990 -0.535311
O2    O     O_R   0.680360 0.618740 0.500010 -0.514190
O3    O     O_R   0.319620 0.381170 0.499990 -0.540720
O4    O     O_R   0.680380 0.381170 0.500010 -0.571753
O5    O     O_R   0.500000 0.618750 0.321940 -0.544003
O6    O     O_R   0.500000 0.618750 0.678060 -0.537971
O7    O     O_R   0.499970 0.381180 0.321940 -0.584526
O8    O     O_R   0.500030 0.381180 0.678060 -0.569369
O9    O     O_3   0.580082 0.616303 0.926534 -0.662588
H5    H     H_    0.599202 0.688933 0.865768 0.381108
O10   O     O_3   0.396648 0.605109 0.079179 -0.684592
H6    H     H_    0.368148 0.669635 0.143267 0.350942
C19   C     C_2   0.873596 0.498011 0.736730 0.875509
O11   O     O_2   0.790493 0.581271 0.754000 -0.585220
O12   O     O_R   0.908345 0.403249 0.828312 -0.727874
H7    H     H_    0.857957 0.414277 0.904542 0.333814
C20   C     C_2   0.145332 0.495868 0.735039 0.870658
O13   O     O_2   0.225110 0.407361 0.752712 -0.583935
O14   O     O_R   0.123839 0.596279 0.824764 -0.722532
H8    H     H_    0.180621 0.585098 0.899903 0.363316
C21   C     C_2   0.323674 0.144479 0.348580 0.888199
O15   O     O_2   0.347511 0.178802 0.244371 -0.610085
O16   O     O_R   0.203056 0.158852 0.390737 -0.722437
H9    H     H_    0.144975 0.205029 0.328465 0.332841
C22   C     C_2   0.671579 0.147355 0.657043 0.896941
O17   O     O_2   0.777160 0.169840 0.623474 -0.563385
O18   O     O_R   0.640826 0.173807 0.777963 -0.776052
H10   H     H_    0.711907 0.217930 0.827653 0.336891
O19   O     O_3   0.339789 0.843743 0.349768 -0.693401
H11   H     H_    0.294027 0.902988 0.290201 0.318934
O20   O     O_3   0.659554 0.846345 0.650491 -0.657746
H12   H     H_    0.710772 0.906624 0.705673 0.332880

loop_
_geom_bond_atom_site_label_1
_geom_bond_atom_site_label_2
_ccdc_geom_bond_type
C6    C8    D    
C20   O13   D    
C15   C17   A    
O10   H6    S    
C8    O10   S    
Cu1   O1    S    
C9    C10   A    
C17   O19   S    
C18   O20   S    
C21   O15   D    
C16   C22   S    
C15   C21   S    
C2    O4    A    
C17   N1    A    
O19   H11   S    
C1    O3    A    
Cu1   O5    S    
C21   O16   S    
Cu2   O4    S    
C13   C14   A    
C3    O5    A    
Cu1   O2    S    
C20   O14   S    
O20   H12   S    
C4    O6    A    
C18   N1    A    
Cu2   N2    S    
C4    C7    S    
C2    C11   S    
C16   C18   A    
C12   C14   A    
C3    C8    S    
Cu2   O3    S    
C16   N2    A    
C5    C6    S    
Cu1   N1    S    
C9    C12   A    
C4    O8    A    
C13   C19   S    
C10   C11   A    
Cu2   O7    S    
C22   O17   D    
C6    H2    S    
C11   C13   A    
C5    H1    S    
C19   O12   S    
C1    O1    A    
O16   H9    S    
O12   H7    S    
Cu2   O8    S    
C19   O11   D    
C5    C7    D    
C3    O7    A    
C9    H3    S    
C15   N2    A    
C2    O2    A    
C10   H4    S    
O14   H8    S    
C7    O9    S    
Cu1   O6    S    
C1    C12   S    
Cu1   Cu2   S    
O18   H10   S    
C14   C20   S    
C22   O18   S    
O9    H5    S    
