data_mof_unit_24461.cif
_audit_creation_date              2012-12-11T15:32:38-0500
_audit_creation_method            fapswitch 2.2
_symmetry_space_group_name_H-M    P1
_symmetry_Int_Tables_number       1
_space_group_crystal_system       triclinic
_cell_length_a                    8.472459
_cell_length_b                    16.518645
_cell_length_c                    18.861004
_cell_angle_alpha                 107.388037
_cell_angle_beta                  85.794878
_cell_angle_gamma                 98.07625
_cell_volume                      2492.68238621

loop_
_atom_site_label
_atom_site_type_symbol
_atom_type_description
_atom_site_fract_x
_atom_site_fract_y
_atom_site_fract_z
_atom_type_partial_charge
Ba1   Ba    Ba6+2 0.640410 0.457420 0.526150 1.787769
Ba2   Ba    Ba6+2 0.169770 0.542590 0.473910 1.842626
C1    C     C_3   0.740849 0.258553 0.760130 -0.223808
C2    C     C_R   0.108747 0.252007 0.483847 -0.276323
C3    C     C_2   0.561093 0.869862 0.596277 0.315302
C4    C     C_3   0.240413 0.242376 0.707881 0.213000
C5    C     C_2   0.573585 0.783966 0.573890 -0.096379
C6    C     C_2   0.840638 0.811112 0.514750 0.065788
C7    C     C_3   0.800598 0.899236 0.520893 0.035549
C8    C     C_3   0.706830 0.931785 0.592815 0.095151
C9    C     C_2   0.935556 0.965312 0.511397 0.017843
C10   C     C_2   0.902103 0.040331 0.505549 0.006836
C11   C     C_R   0.172851 0.084779 0.458898 0.132393
C12   C     C_3   0.776961 0.279268 0.686859 0.350641
C13   C     C_R   0.024548 0.107351 0.490925 -0.031184
C14   C     C_R   0.285858 0.143845 0.437777 -0.137315
C15   C     C_R   0.252078 0.227059 0.447532 0.004467
C16   C     C_3   0.247752 0.167393 0.739169 0.651133
C17   C     C_R   0.992318 0.192588 0.503982 -0.005057
C18   C     C_R   0.099583 0.469122 0.694678 -0.185989
C19   C     C_R   0.962910 0.507721 0.723547 0.010059
C20   C     C_R   0.903279 0.507385 0.794789 -0.129449
C21   C     C_R   0.983117 0.472066 0.838853 0.018566
C22   C     C_R   0.125601 0.437757 0.810623 -0.082219
C23   C     C_3   0.940938 0.279245 0.341214 0.302711
C24   C     C_R   0.182544 0.435394 0.738288 0.036826
C25   C     C_R   0.907029 0.396815 0.935986 -0.118416
C26   C     C_R   0.843443 0.394334 0.006348 0.417395
C27   C     C_R   0.800133 0.470226 0.058656 -0.044389
C28   C     C_3   0.499866 0.725788 0.730589 0.583792
C29   C     C_R   0.806133 0.543753 0.035042 -0.139479
C30   C     C_R   0.861015 0.543814 0.963464 -0.042378
C31   C     C_R   0.918222 0.471417 0.914167 -0.013991
C32   C     C_R   0.619592 0.516330 0.172157 -0.070867
C33   C     C_R   0.594819 0.539049 0.249820 0.084675
C34   C     C_3   0.873349 0.185032 0.318819 -0.273054
C35   C     C_R   0.824514 0.470681 0.259744 0.007966
C36   C     C_R   0.857286 0.454607 0.183117 -0.050665
C37   C     C_R   0.754691 0.476894 0.138220 0.028621
C38   C     C_R   0.695142 0.514104 0.292749 -0.206442
C39   C     C_3   0.524852 0.822901 0.764093 -0.245357
C40   C     C_3   0.417018 0.201125 0.274523 0.633676
C41   C     C_3   0.252403 0.151264 0.254930 -0.323068
C42   C     C_3   0.996982 0.712971 0.761690 0.202657
C43   C     C_3   0.931657 0.786330 0.823365 0.555103
C44   C     C_3   0.531552 0.773896 0.288944 0.878168
C45   C     C_3   0.532966 0.827049 0.232364 0.319955
C46   C     C_3   0.088112 0.722684 0.320087 0.471490
C47   C     C_3   0.127608 0.742653 0.246181 -0.247860
C48   C     C_2   0.728062 0.756256 0.537159 -0.195249
H1    H     H_    0.705362 0.330529 0.686624 0.091936
H2    H     H_    0.906092 0.303074 0.683950 -0.078126
H3    H     H_    0.844166 0.234701 0.776411 0.164922
H4    H     H_    0.070549 0.285796 0.349544 -0.034061
H5    H     H_    0.879435 0.310168 0.394413 0.052816
H6    H     H_    0.911364 0.152408 0.260966 0.172235
H7    H     H_    0.913383 0.152645 0.356698 0.038046
H8    H     H_    0.635626 0.209231 0.755380 0.198950
H9    H     H_    0.436197 0.868006 0.244466 0.003024
H10   H     H_    0.639826 0.875627 0.239157 0.095437
H11   H     H_    0.994217 0.667247 0.310806 -0.006317
H12   H     H_    0.409618 0.848106 0.782880 0.177223
H13   H     H_    0.030541 0.764147 0.224025 0.207514
H14   H     H_    0.164400 0.685594 0.203259 0.121371
H15   H     H_    0.209514 0.217542 0.648290 0.015541
H16   H     H_    0.220791 0.796378 0.253986 0.137917
H17   H     H_    0.397064 0.123391 0.411588 0.103759
H18   H     H_    0.748105 0.690265 0.527278 0.061216
H19   H     H_    0.058255 0.952666 0.509189 0.139221
H20   H     H_    0.963274 0.425895 0.159022 0.111323
H21   H     H_    0.144308 0.277937 0.739823 -0.030412
H22   H     H_    0.795523 0.534948 0.816147 0.126463
H23   H     H_    0.599269 0.840778 0.813387 0.185018
H24   H     H_    0.769260 0.602010 0.072226 0.191004
H25   H     H_    0.540495 0.534746 0.138904 0.130746
H26   H     H_    0.671725 0.528453 0.352118 0.065986
H27   H     H_    0.146424 0.469226 0.639754 0.055538
H28   H     H_    0.344079 0.130920 0.707922 0.058960
H29   H     H_    0.610046 0.702630 0.701108 0.007058
H30   H     H_    0.362834 0.245040 0.136846 0.344196
H31   H     H_    0.263914 0.085898 0.217741 0.167421
H32   H     H_    0.184706 0.144223 0.305386 0.004319
H33   H     H_    0.803797 0.766782 0.833302 0.047008
H34   H     H_    0.587892 0.854267 0.724554 0.079497
H35   H     H_    0.134558 0.985191 0.846362 0.426803
H36   H     H_    0.107555 0.731706 0.973567 0.397185
H37   H     H_    0.741708 0.178789 0.322256 0.134346
H38   H     H_    0.844531 0.090064 0.670916 0.374153
H39   H     H_    0.567751 0.974654 0.434059 0.358503
H40   H     H_    0.841038 0.648329 0.216041 0.297942
H41   H     H_    0.448027 0.639991 0.066874 0.354807
H42   H     H_    0.191604 0.702715 0.338858 0.082417
H43   H     H_    0.250277 0.839639 0.690561 0.342715
H44   H     H_    0.084188 0.316935 0.492994 0.056201
H45   H     H_    0.479400 0.168663 0.305784 -0.059900
H46   H     H_    0.778647 0.052350 0.511812 0.103602
H47   H     H_    0.755080 0.161809 0.952641 0.422960
H48   H     H_    0.940525 0.339261 0.896278 0.157242
H49   H     H_    0.860733 0.601130 0.947231 0.157138
H50   H     H_    0.191679 0.412445 0.844476 0.110930
H51   H     H_    0.171525 0.253171 0.941475 0.390558
H52   H     H_    0.579110 0.620875 0.868520 0.360992
H53   H     H_    0.184445 0.184708 0.226658 0.135987
H54   H     H_    0.111624 0.737627 0.739598 0.089659
H55   H     H_    0.022455 0.664942 0.787730 0.051049
H56   H     H_    0.716916 0.317385 0.804516 0.101506
O1    O     O_2   0.558990 0.288510 0.428270 -0.476055
O2    O     O_2   0.284876 0.549891 0.261426 -0.502029
O3    O     O_3   0.420411 0.697950 0.267728 -0.643211
O4    O     O_3   0.341190 0.396600 0.446070 -0.471553
O5    O     O_3   0.948410 0.543360 0.590820 -0.479528
O6    O     O_2   0.117990 0.459640 0.323300 -0.457331
O7    O     O_3   0.916821 0.313509 0.283781 -0.564560
O8    O     O_2   0.173937 0.806987 0.500000 -0.349333
O9    O     O_3   0.043103 0.794786 0.375544 -0.505013
O10   O     O_3   0.809080 0.340350 0.563320 -0.515880
O11   O     O_2   0.661964 0.189071 0.490463 -0.482621
O12   O     O_3   0.888971 0.679388 0.702788 -0.632239
O13   O     O_3   0.405429 0.287860 0.313572 -0.634252
O14   O     O_3   0.735462 0.206100 0.626936 -0.569171
O15   O     O_2   0.692320 0.540420 0.676730 -0.413942
O16   O     O_3   0.406060 0.383660 0.606030 -0.480685
O17   O     O_2   0.510999 0.451369 0.742965 -0.428489
O18   O     O_2   0.649281 0.275686 0.201298 -0.247664
O19   O     O_2   0.617965 0.119485 0.168856 -0.219014
O20   O     O_3   0.409289 0.190344 0.121489 -0.409476
O21   O     O_2   0.897541 0.863781 0.718796 -0.300974
O22   O     O_2   0.841626 0.942931 0.848283 -0.222412
O23   O     O_3   0.389973 0.292832 0.713383 -0.608111
O24   O     O_3   0.137012 0.932144 0.804529 -0.424947
O25   O     O_2   0.183991 0.862233 0.911607 -0.191927
O26   O     O_2   0.919554 0.851630 0.972194 -0.182901
O27   O     O_3   0.059940 0.714726 0.924026 -0.535205
O28   O     O_2   0.095633 0.006849 0.690574 -0.144427
O29   O     O_2   0.968336 0.102604 0.796508 -0.180095
O30   O     O_3   0.951525 0.121203 0.666095 -0.615031
O31   O     O_2   0.327508 0.878058 0.377884 -0.351510
O32   O     O_2   0.466343 0.794215 0.435000 -0.290499
O33   O     O_3   0.623749 0.926469 0.403636 -0.529495
O34   O     O_2   0.251320 0.711540 0.571760 -0.400236
O35   O     O_2   0.737583 0.712190 0.351592 -0.420451
O36   O     O_2   0.834706 0.836203 0.306425 -0.275386
O37   O     O_3   0.773381 0.687957 0.207053 -0.565125
O38   O     O_2   0.437212 0.812525 0.096144 -0.211444
O39   O     O_2   0.695219 0.765828 0.103203 -0.210624
O40   O     O_3   0.437995 0.666897 0.121228 -0.531609
O41   O     O_2   0.441191 0.984737 0.710008 -0.264817
O42   O     O_2   0.358663 0.972817 0.586145 -0.249629
O43   O     O_3   0.228172 0.860212 0.648880 -0.403291
O44   O     O_2   0.914808 0.278590 0.069296 -0.259778
O45   O     O_3   0.469110 0.603410 0.553990 -0.481328
O46   O     O_2   0.632171 0.290377 0.058650 -0.205403
O47   O     O_3   0.789482 0.215574 0.939603 -0.436287
O48   O     O_2   0.347371 0.130599 0.857230 -0.191240
O49   O     O_2   0.426656 0.276705 0.851343 -0.313268
O50   O     O_3   0.135274 0.236224 0.889744 -0.481218
O51   O     O_2   0.411933 0.746341 0.876494 -0.213665
O52   O     O_2   0.312556 0.612130 0.786957 -0.315813
O53   O     O_3   0.608385 0.635896 0.821780 -0.551772
O54   O     O_3   0.001220 0.659660 0.436740 -0.519524
O55   O     O_3   0.369446 0.700445 0.683281 -0.648730
O56   O     O_3   0.861890 0.456640 0.409240 -0.498377
O57   O     O_3   0.404240 0.616350 0.394030 -0.441938
P1    P     P_3+3 0.391560 0.302240 0.409860 0.989756
P2    P     P_3+3 0.873530 0.566630 0.670640 1.045061
P3    P     P_3+3 0.369665 0.391581 0.700484 1.022412
P4    P     P_3+3 0.418740 0.697770 0.590200 1.045215
P5    P     P_3+3 0.436978 0.605406 0.296818 1.083700
P6    P     P_3+3 0.799613 0.230115 0.544356 0.968242
P7    P     P_3+3 0.933348 0.425239 0.316775 1.025565
P8    P     P_3+3 0.016222 0.769813 0.459805 1.149750
S1    S     S_3+6 0.530613 0.196854 0.190255 0.026284
S2    S     S_3+6 0.294911 0.203398 0.836339 0.003212
S3    S     S_3+6 0.452801 0.679732 0.806109 -0.037433
S4    S     S_3+6 0.948220 0.883380 0.797450 0.012497
S5    S     S_3+6 0.027098 0.806764 0.910294 0.023002
S6    S     S_3+6 0.062472 0.097005 0.724869 -0.014507
S7    S     S_3+6 0.480745 0.842850 0.378962 -0.077593
S8    S     S_3+6 0.727433 0.752690 0.290931 -0.102879
S9    S     S_3+6 0.527671 0.767549 0.135384 -0.002373
S10   S     S_3+6 0.394642 0.922502 0.636238 -0.005632
S11   S     S_3+6 0.794358 0.293189 0.021227 0.011490

loop_
_geom_bond_atom_site_label_1
_geom_bond_atom_site_label_2
_ccdc_geom_bond_type
C36   H20   S    
C25   H48   S    
O16   P3    S    
C44   S7    S    
H43   O43   S    
C16   S6    S    
Ba2   O56   S    
C42   H54   S    
O44   S11   D    
C42   H55   S    
C25   C31   A    
C13   C17   A    
Ba2   O6    S    
C45   S9    S    
C18   C24   A    
O23   P3    S    
C47   H13   S    
C26   C27   A    
C15   P1    S    
C22   C24   A    
C32   C33   A    
C35   C38   A    
O11   P6    D    
C43   S4    S    
C36   C37   A    
H35   O24   S    
C40   O13   S    
O25   S5    D    
C19   P2    S    
Ba1   Ba2   S    
O26   S5    D    
C3    S10   S    
O19   S1    D    
C26   S11   S    
Ba1   O16   S    
C45   H10   S    
C2    C17   A    
O52   S3    D    
C4    H15   S    
O6    P7    D    
O31   S7    D    
O38   S9    D    
Ba1   P1    S    
C6    C7    S    
H39   O33   S    
O53   S3    S    
O18   S1    D    
C21   C22   A    
C10   C13   S    
C28   C39   S    
O5    P2    S    
Ba1   O10   S    
H47   O47   S    
C7    C8    S    
H40   O37   S    
C6    P8    S    
O51   S3    D    
O49   S2    D    
O34   P4    D    
O2    P5    D    
C1    H56   S    
C47   H14   S    
C22   H50   S    
C19   C20   A    
O43   S10   S    
O17   P3    D    
C43   H33   S    
C39   H12   S    
C4    O23   S    
C20   H22   S    
Ba1   O15   S    
O1    P1    D    
C34   H37   S    
O21   S4    D    
O8    P8    D    
C4    C16   S    
C12   H2    S    
Ba2   O5    S    
C47   H16   S    
C33   C38   A    
C40   H45   S    
C23   H5    S    
C23   H4    S    
O29   S6    D    
O9    P8    S    
C34   H7    S    
C43   S5    S    
C35   P7    S    
C3    C5    D    
O4    P1    S    
C14   C15   A    
C29   H24   S    
H51   O50   S    
C21   C31   S    
C39   H34   S    
C45   H9    S    
O30   S6    S    
C32   C37   A    
H52   O53   S    
Ba2   O57   S    
C1    H8    S    
C35   C36   A    
C34   H6    S    
O3    P5    S    
C23   O7    S    
Ba1   O4    S    
H36   O27   S    
C12   H1    S    
O56   P7    S    
O36   S8    D    
Ba1   P2    S    
C16   H28   S    
C27   C37   S    
C33   P5    S    
O42   S10   D    
O40   S9    S    
C14   H17   S    
C18   C19   A    
C7    C9    S    
H38   O30   S    
O55   P4    S    
C1    C12   S    
C40   S1    S    
Ba1   O1    S    
C46   O9    S    
C2    H44   S    
C2    C15   A    
C18   H27   S    
C46   C47   S    
Ba1   O56   S    
O37   S8    S    
C11   C13   A    
C46   H42   S    
C41   H31   S    
C44   O3    S    
C42   O12   S    
C28   H29   S    
O46   S11   D    
O32   S7    D    
C6    C48   D    
C42   C43   S    
Ba2   O45   S    
C5    P4    S    
C44   C45   S    
C24   P3    S    
O22   S4    D    
O50   S2    S    
O48   S2    D    
O35   S8    D    
C44   S8    S    
C29   C30   A    
C17   P6    S    
C5    C48   S    
C4    H21   S    
O13   P1    S    
C9    C10   D    
C9    H19   S    
O7    P7    S    
O24   S4    S    
O15   P2    D    
C32   H25   S    
O12   P2    S    
C12   O14   S    
C30   H49   S    
Ba2   O34   S    
C30   C31   A    
O57   P5    S    
C3    C8    S    
C27   C29   A    
O33   S7    S    
Ba1   O5    S    
C1    H3    S    
O41   S10   D    
C46   H11   S    
H30   O20   S    
O45   P4    S    
O39   S9    D    
O54   P8    S    
O10   P6    S    
Ba1   O45   S    
O28   S6    D    
O14   P6    S    
O27   S5    S    
C41   H53   S    
O20   S1    S    
C23   C34   S    
C39   H23   S    
C16   S2    S    
C38   H26   S    
O47   S11   S    
Ba2   O54   S    
C40   C41   S    
C11   C14   A    
C25   C26   A    
C41   H32   S    
C20   C21   A    
C10   H46   S    
C28   O55   S    
C48   H18   S    
Ba2   P4    S    
C28   S3    S    
H41   O40   S    
Ba2   O4    S    
