data_mof_unit_44745.cif
_audit_creation_date              2013-03-05T15:45:57-0500
_audit_creation_method            fapswitch 2.2
_symmetry_space_group_name_H-M    P1
_symmetry_Int_Tables_number       1
_space_group_crystal_system       triclinic
_cell_length_a                    18.982389
_cell_length_b                    10.920679
_cell_length_c                    18.868459
_cell_angle_alpha                 90.029869
_cell_angle_beta                  89.932537
_cell_angle_gamma                 89.956707
_cell_volume                      3911.43807502

loop_
_atom_site_label
_atom_site_type_symbol
_atom_site_description
_atom_site_fract_x
_atom_site_fract_y
_atom_site_fract_z
_atom_type_partial_charge
O1    O     O_R   0.787510 0.042610 0.670410 -0.526490
O2    O     O_R   0.212490 0.042610 0.329590 -0.519777
O3    O     O_R   0.287510 0.542610 0.670410 -0.526494
O4    O     O_R   0.712490 0.542610 0.329590 -0.519775
O5    O     O_R   0.765670 0.292090 0.675090 -0.496321
O6    O     O_R   0.234330 0.292090 0.324910 -0.473274
O7    O     O_R   0.265670 0.792090 0.675090 -0.496298
O8    O     O_R   0.734330 0.792090 0.324910 -0.473309
C1    C     C_R   0.727560 0.371314 0.643449 0.552849
C2    C     C_R   0.270076 0.375406 0.354505 0.561230
C3    C     C_R   0.227560 0.871316 0.643450 0.552858
C4    C     C_R   0.770074 0.875412 0.354503 0.561195
O9    O     O_R   0.670220 0.409020 0.668560 -0.524205
O10   O     O_R   0.329780 0.409020 0.331440 -0.534389
O11   O     O_R   0.170220 0.909020 0.668560 -0.524211
O12   O     O_R   0.829780 0.909020 0.331440 -0.534387
O13   O     O_R   0.556580 0.251590 0.674980 -0.508848
O14   O     O_R   0.443420 0.251590 0.325020 -0.512028
O15   O     O_R   0.056580 0.751590 0.674980 -0.508846
O16   O     O_R   0.943420 0.751590 0.325020 -0.512028
C5    C     C_R   0.533811 0.153902 0.644782 0.561240
C6    C     C_R   0.469502 0.155246 0.352749 0.567922
C7    C     C_R   0.033829 0.653899 0.644770 0.561226
C8    C     C_R   0.969505 0.655250 0.352745 0.567964
O17   O     O_R   0.545890 0.049670 0.670030 -0.444416
O18   O     O_R   0.454110 0.049670 0.329970 -0.448814
O19   O     O_R   0.045890 0.549670 0.670030 -0.444433
O20   O     O_R   0.954110 0.549670 0.329970 -0.448838
O21   O     O_R   0.681340 0.957860 0.676500 -0.481080
O22   O     O_R   0.318660 0.957860 0.323500 -0.501022
O23   O     O_R   0.181340 0.457860 0.676500 -0.481029
O24   O     O_R   0.818660 0.457860 0.323500 -0.501045
C9    C     C_R   0.740907 0.972313 0.646266 0.538072
C10   C     C_R   0.258269 0.967745 0.351980 0.541605
C11   C     C_R   0.240910 0.472303 0.646270 0.538057
C12   C     C_R   0.758270 0.467746 0.351980 0.541610
O25   O     O_R   0.787380 0.044010 0.830940 -0.524343
O26   O     O_R   0.212620 0.044010 0.169060 -0.525766
O27   O     O_R   0.287380 0.544010 0.830940 -0.524348
O28   O     O_R   0.712620 0.544010 0.169060 -0.525771
O29   O     O_R   0.765540 0.293390 0.823910 -0.502043
O30   O     O_R   0.234460 0.293390 0.176090 -0.499884
O31   O     O_R   0.265540 0.793390 0.823910 -0.502042
O32   O     O_R   0.734460 0.793390 0.176090 -0.499889
C13   C     C_R   0.730052 0.378774 0.852196 0.550168
C14   C     C_R   0.272647 0.373222 0.145342 0.552363
C15   C     C_R   0.230051 0.878770 0.852198 0.550170
C16   C     C_R   0.772647 0.873221 0.145341 0.552355
O33   O     O_R   0.670090 0.410410 0.829090 -0.523384
O34   O     O_R   0.329910 0.410410 0.170910 -0.525108
O35   O     O_R   0.170090 0.910410 0.829090 -0.523374
O36   O     O_R   0.829910 0.910410 0.170910 -0.525112
O37   O     O_R   0.556450 0.252890 0.823790 -0.507987
O38   O     O_R   0.443550 0.252890 0.176210 -0.508494
O39   O     O_R   0.056450 0.752890 0.823790 -0.507980
O40   O     O_R   0.943550 0.752890 0.176210 -0.508493
C17   C     C_R   0.531731 0.157671 0.853086 0.545757
C18   C     C_R   0.464110 0.156349 0.144415 0.549847
C19   C     C_R   0.031730 0.657671 0.853086 0.545757
C20   C     C_R   0.964110 0.656349 0.144416 0.549863
O41   O     O_R   0.545750 0.051070 0.830560 -0.521866
O42   O     O_R   0.454250 0.051070 0.169440 -0.517655
O43   O     O_R   0.045750 0.551070 0.830560 -0.521880
O44   O     O_R   0.954250 0.551070 0.169440 -0.517648
O45   O     O_R   0.681210 0.959150 0.825320 -0.509637
O46   O     O_R   0.318790 0.959150 0.174680 -0.510392
O47   O     O_R   0.181210 0.459150 0.825320 -0.509643
O48   O     O_R   0.818790 0.459150 0.174680 -0.510395
C21   C     C_R   0.741280 0.969972 0.853969 0.543886
C22   C     C_R   0.260072 0.976474 0.143642 0.543803
C23   C     C_R   0.241279 0.469974 0.853970 0.543877
C24   C     C_R   0.760072 0.476475 0.143641 0.543808
Cr1   Cr    Cr6+3 0.771950 0.169480 0.750100 1.037293
Cr2   Cr    Cr6+3 0.228050 0.169480 0.249900 1.057912
Cr3   Cr    Cr6+3 0.271950 0.669480 0.750100 1.037319
Cr4   Cr    Cr6+3 0.728050 0.669480 0.249900 1.057881
Cr5   Cr    Cr6+3 0.614930 0.323340 0.749170 1.024324
Cr6   Cr    Cr6+3 0.385070 0.323340 0.250830 1.022522
Cr7   Cr    Cr6+3 0.114930 0.823340 0.749170 1.024323
Cr8   Cr    Cr6+3 0.885070 0.823340 0.250830 1.022522
Cr9   Cr    Cr6+3 0.616590 0.010620 0.750610 1.071459
Cr10  Cr    Cr6+3 0.383410 0.010620 0.249390 1.065254
Cr11  Cr    Cr6+3 0.116590 0.510620 0.750610 1.071455
Cr12  Cr    Cr6+3 0.883410 0.510620 0.249390 1.065236
O49   O     O_3   0.667820 0.167810 0.749960 -0.262305
O50   O     O_3   0.332180 0.167810 0.250040 -0.269676
O51   O     O_3   0.167820 0.667810 0.749960 -0.262317
O52   O     O_3   0.832180 0.667810 0.250040 -0.269660
C25   C     C_R   0.507157 0.162191 0.420363 -0.028373
C26   C     C_R   0.513717 0.155414 0.569742 -0.032434
C27   C     C_R   0.007183 0.662219 0.420346 -0.028347
C28   C     C_R   0.013764 0.655410 0.569721 -0.032448
C29   C     C_R   0.507125 0.270033 0.460640 -0.041690
C30   C     C_R   0.513893 0.266899 0.533661 -0.034461
C31   C     C_R   0.007138 0.770053 0.460628 -0.041680
C32   C     C_R   0.013916 0.766903 0.533648 -0.034468
C33   C     C_R   0.518517 0.045127 0.529103 0.177593
C34   C     C_R   0.524709 0.051429 0.454966 0.178617
C35   C     C_R   0.018596 0.545138 0.529072 0.177594
C36   C     C_R   0.024776 0.551467 0.454935 0.178600
C37   C     C_3   0.456560 0.374759 0.463317 -0.241544
C38   C     C_3   0.464587 0.372320 0.543161 -0.263209
C39   C     C_3   0.956558 0.874756 0.463321 -0.241562
C40   C     C_3   0.964599 0.872304 0.543163 -0.263202
H1    H     H_    0.902757 0.848637 0.446125 0.167627
H2    H     H_    0.991707 0.954598 0.564514 0.162971
H3    H     H_    0.402758 0.348664 0.446115 0.167629
H4    H     H_    0.491701 0.454603 0.564512 0.162984
H5    H     H_    0.478320 0.458988 0.438558 0.163183
H6    H     H_    0.415335 0.346585 0.571482 0.143876
H7    H     H_    0.978304 0.958995 0.438562 0.163176
H8    H     H_    0.915354 0.846547 0.571491 0.143879
C41   C     C_R   0.715251 0.839763 0.542700 -0.102149
C42   C     C_R   0.305191 0.871654 0.460868 -0.137486
C43   C     C_R   0.215318 0.339685 0.542717 -0.102073
C44   C     C_R   0.805193 0.371658 0.460870 -0.137464
H9    H     H_    0.689805 0.772507 0.576222 0.157194
H10   H     H_    0.354740 0.850348 0.435185 0.182364
H11   H     H_    0.189913 0.272391 0.576246 0.157125
H12   H     H_    0.854745 0.350362 0.435189 0.182267
C45   C     C_R   0.716784 0.823135 0.469696 -0.073808
C46   C     C_R   0.300104 0.859438 0.533980 -0.136062
C47   C     C_R   0.216847 0.323053 0.469712 -0.073815
C48   C     C_R   0.800104 0.359434 0.533981 -0.136066
H13   H     H_    0.694360 0.740138 0.447831 0.161818
H14   H     H_    0.343802 0.821573 0.563254 0.189310
H15   H     H_    0.194462 0.240020 0.447853 0.161751
H16   H     H_    0.843803 0.321582 0.563257 0.189260
C49   C     C_R   0.751396 0.909000 0.426199 0.045474
C50   C     C_R   0.238354 0.895397 0.568614 0.020162
C51   C     C_R   0.251406 0.408969 0.426206 0.045509
C52   C     C_R   0.738353 0.395389 0.568613 0.020176
C53   C     C_R   0.781764 0.013296 0.455588 -0.143890
C54   C     C_R   0.180153 0.935837 0.529014 -0.128222
C55   C     C_R   0.281732 0.513308 0.455586 -0.143856
C56   C     C_R   0.680153 0.435820 0.529011 -0.128211
H17   H     H_    0.809332 0.079451 0.422965 0.140707
H18   H     H_    0.130448 0.959822 0.553623 0.155173
H19   H     H_    0.309264 0.579497 0.422956 0.140702
H20   H     H_    0.630448 0.459802 0.553620 0.155163
C57   C     C_R   0.780662 0.028996 0.527946 -0.133056
C58   C     C_R   0.184219 0.943743 0.456557 -0.133976
C59   C     C_R   0.280625 0.529021 0.527944 -0.133041
C60   C     C_R   0.684220 0.443732 0.456555 -0.133975
H21   H     H_    0.805330 0.109899 0.549538 0.149733
H22   H     H_    0.138777 0.977965 0.427999 0.150720
H23   H     H_    0.305254 0.609962 0.549531 0.149719
H24   H     H_    0.638779 0.477950 0.427995 0.150701
C61   C     C_R   0.747795 0.942322 0.571920 0.018601
C62   C     C_R   0.247779 0.917959 0.422313 0.016877
C63   C     C_R   0.247804 0.442306 0.571925 0.018648
C64   C     C_R   0.747781 0.417957 0.422312 0.016897
C65   C     C_R   0.473772 0.063692 0.955125 -0.135559
C66   C     C_R   0.464726 0.059833 0.027456 -0.126710
C67   C     C_R   0.973785 0.563681 0.955129 -0.135560
C68   C     C_R   0.964743 0.559823 0.027460 -0.126711
H25   H     H_    0.462707 0.982002 0.924459 0.131326
H26   H     H_    0.444053 0.976226 0.050256 0.138274
H27   H     H_    0.962728 0.481985 0.924465 0.131317
H28   H     H_    0.944081 0.476209 0.050262 0.138260
C69   C     C_R   0.481379 0.162073 0.069504 0.033776
C70   C     C_R   0.501589 0.168596 0.923548 0.029094
C71   C     C_R   0.981382 0.662073 0.069504 0.033779
C72   C     C_R   0.001589 0.668593 0.923547 0.029095
C73   C     C_R   0.503915 0.270787 0.037579 -0.145798
C74   C     C_R   0.514439 0.273921 0.964585 -0.137187
C75   C     C_R   0.003904 0.770793 0.037576 -0.145788
C76   C     C_R   0.014427 0.773926 0.964582 -0.137184
H29   H     H_    0.514588 0.351688 0.069012 0.122280
H30   H     H_    0.536267 0.356041 0.941068 0.135617
H31   H     H_    0.014567 0.851700 0.069007 0.122284
H32   H     H_    0.036244 0.856052 0.941062 0.135615
C77   C     C_R   0.816227 0.935509 0.957051 -0.136051
C78   C     C_R   0.210813 0.023825 0.027235 -0.127613
C79   C     C_R   0.316227 0.435495 0.957049 -0.136063
C80   C     C_R   0.710784 0.523785 0.027241 -0.127622
H33   H     H_    0.862557 0.961492 0.927003 0.130355
H34   H     H_    0.178239 0.094829 0.050427 0.137795
H35   H     H_    0.362558 0.461465 0.927000 0.130356
H36   H     H_    0.678187 0.594751 0.050438 0.137786
C81   C     C_R   0.821590 0.925623 0.029470 -0.128042
C82   C     C_R   0.209310 0.010335 0.954780 -0.136671
C83   C     C_R   0.321591 0.425607 0.029468 -0.128048
C84   C     C_R   0.709283 0.510306 0.954786 -0.136667
H37   H     H_    0.873035 0.939171 0.052983 0.138696
H38   H     H_    0.173594 0.067095 0.924324 0.129748
H39   H     H_    0.373039 0.439139 0.052980 0.138703
H40   H     H_    0.673546 0.567038 0.924336 0.129752
C85   C     C_R   0.762031 0.897044 0.070602 0.033558
C86   C     C_R   0.249476 0.918583 0.922773 0.029390
C87   C     C_R   0.262031 0.397047 0.070603 0.033552
C88   C     C_R   0.749475 0.418598 0.922770 0.029394
C89   C     C_R   0.697504 0.872967 0.037833 -0.145065
C90   C     C_R   0.296130 0.847409 0.963513 -0.137383
C91   C     C_R   0.197500 0.372989 0.037837 -0.145086
C92   C     C_R   0.796156 0.347465 0.963503 -0.137379
H41   H     H_    0.651757 0.846583 0.068601 0.125594
H42   H     H_    0.327579 0.775519 0.939672 0.136218
H43   H     H_    0.151752 0.346622 0.068607 0.125599
H44   H     H_    0.827629 0.275613 0.939654 0.136191
C93   C     C_R   0.691760 0.885255 0.964792 -0.137498
C94   C     C_R   0.298621 0.862652 0.036566 -0.146336
C95   C     C_R   0.191755 0.385278 0.964795 -0.137508
C96   C     C_R   0.798647 0.362700 0.036557 -0.146318
H45   H     H_    0.640496 0.873661 0.940549 0.135558
H46   H     H_    0.334161 0.806812 0.067733 0.122559
H47   H     H_    0.140490 0.373700 0.940554 0.135564
H48   H     H_    0.834210 0.306895 0.067719 0.122551
C97   C     C_R   0.750796 0.920784 0.924582 0.030046
C98   C     C_R   0.254204 0.948339 0.068844 0.034477
C99   C     C_R   0.250794 0.420788 0.924583 0.030043
C100  C     C_R   0.754204 0.448337 0.068843 0.034479
N1    N     N_R   0.512304 0.926811 0.562005 0.121118
O53   O     O_R   0.560047 0.843140 0.552246 -0.317889
O54   O     O_R   0.458691 0.902900 0.602667 -0.361788
N2    N     N_R   0.541037 0.943039 0.414766 0.116399
O55   O     O_R   0.501894 0.845698 0.420254 -0.310907
O56   O     O_R   0.588284 0.948171 0.364838 -0.341294
N3    N     N_R   0.012410 0.426809 0.561961 0.121164
O57   O     O_R   0.060191 0.343199 0.552229 -0.317878
O58   O     O_R   0.958772 0.402820 0.602577 -0.361771
N4    N     N_R   0.041139 0.443111 0.414717 0.116355
O59   O     O_R   0.002064 0.345691 0.420231 -0.310790
O60   O     O_R   0.088342 0.448342 0.364751 -0.341298

loop_
_geom_bond_atom_site_label_1
_geom_bond_atom_site_label_2
_geom_bond_distance
_ccdc_geom_bond_type
O7    Cr3   1.952527 S    
C37   H3    1.109376 S    
Cr11  O51   1.973613 S    
O4    C12   1.265787 A    
C18   O42   1.257181 A    
C29   C30   1.384348 A    
C91   C95   1.389171 A    
O39   C19   1.267979 A    
O20   Cr12  2.073559 S    
O29   C13   1.267206 A    
C58   H22   1.083950 S    
C66   C69   1.405774 A    
C71   C75   1.398673 A    
C31   C32   1.384359 A    
C28   C32   1.395224 A    
C14   C87   1.448427 S    
C56   H20   1.082996 S    
C78   C82   1.375286 A    
C40   H2    1.111547 S    
C33   C34   1.405360 A    
C10   C62   1.447998 S    
C57   C61   1.405030 A    
C24   C100  1.448661 S    
N1    O53   1.299365 A    
C53   H17   1.083948 S    
C80   H36   1.083229 S    
C73   C74   1.391899 A    
O24   C12   1.269985 A    
C79   C83   1.374640 A    
N2    O56   1.301199 A    
C66   H26   1.083179 S    
O25   C21   1.268420 A    
C81   H37   1.083310 S    
O30   C14   1.273817 A    
C56   C60   1.372004 A    
C89   H41   1.083284 S    
C52   C56   1.405477 A    
C1    C52   1.450775 S    
O46   Cr10  1.952442 S    
C37   H5    1.111546 S    
C90   C94   1.389187 A    
O21   C9    1.275827 A    
O8    Cr4   1.951637 S    
C20   C71   1.452000 S    
O23   Cr11  1.947329 S    
C48   C52   1.397306 A    
C39   H7    1.111538 S    
C82   H38   1.083865 S    
O32   Cr4   1.946093 S    
C1    O9    1.255652 A    
C2    C51   1.445128 S    
O44   Cr12  2.067818 S    
O7    C3    1.276291 A    
C5    O17   1.255244 A    
C19   C72   1.451583 S    
C45   H13   1.083306 S    
C70   C74   1.407841 A    
C3    O11   1.255646 A    
C87   C91   1.397812 A    
O11   Cr7   2.071146 S    
C17   C70   1.451581 S    
C96   H48   1.083302 S    
C68   C71   1.405773 A    
O33   Cr5   2.068377 S    
C84   C88   1.395411 A    
C38   H4    1.111520 S    
O6    Cr2   1.951637 S    
O27   Cr3   2.071844 S    
C27   C36   1.414582 A    
C92   C96   1.389193 A    
O3    Cr3   2.064927 S    
Cr4   O52   1.976713 S    
C26   C33   1.430236 A    
O47   C23   1.268055 A    
O2    Cr2   2.066279 S    
C85   C89   1.397816 A    
C60   H24   1.083928 S    
C48   H16   1.079307 S    
O2    C10   1.265779 A    
C59   C63   1.405030 A    
O42   Cr10  2.067818 S    
C77   C81   1.374636 A    
C79   C99   1.394921 A    
O18   Cr10  2.073559 S    
C33   N1    1.438653 S    
C78   H34   1.083224 S    
C73   H29   1.083220 S    
C95   C99   1.407478 A    
C50   C54   1.405507 A    
C11   C63   1.446103 S    
C94   C98   1.398018 A    
O34   Cr6   2.068374 S    
C93   C97   1.407476 A    
C31   C39   1.493324 S    
Cr9   O49   1.973613 S    
C26   C30   1.395224 A    
C67   C68   1.375995 A    
C91   H43   1.083281 S    
C5    C26   1.466902 S    
N1    O54   1.300503 A    
O31   Cr3   1.944955 S    
O24   Cr12  1.948311 S    
O9    Cr5   2.071146 S    
O30   Cr2   1.946093 S    
C43   C47   1.389570 A    
C4    C49   1.445142 S    
O22   C10   1.269993 A    
O1    C9    1.257407 A    
O48   Cr12  1.952442 S    
C37   C38   1.514639 S    
C4    O12   1.268157 A    
C72   C76   1.407841 A    
N2    O55   1.301528 A    
C2    O10   1.268151 A    
C29   C37   1.493329 S    
N3    O57   1.299318 A    
C81   C85   1.405932 A    
O16   Cr8   1.950348 S    
C12   C64   1.447987 S    
C15   O35   1.267180 A    
C44   C64   1.405003 A    
O27   C23   1.268421 A    
Cr10  O50   1.972324 S    
C25   C34   1.414621 A    
C67   H27   1.083888 S    
O14   Cr6   1.950348 S    
C25   C29   1.401281 A    
O13   C5    1.284606 A    
C44   H12   1.082640 S    
O43   Cr11  2.067049 S    
O48   C24   1.273755 A    
O12   Cr8   2.069710 S    
C46   H14   1.079327 S    
O15   C7    1.284616 A    
C7    C28   1.466932 S    
O5    C1    1.276283 A    
C83   H39   1.083307 S    
C54   C58   1.371995 A    
O39   Cr7   1.950722 S    
O3    C11   1.257403 A    
C13   C88   1.448826 S    
C47   H15   1.083304 S    
C35   C36   1.405363 A    
C77   H33   1.083873 S    
O8    C4    1.265477 A    
C96   C100  1.398028 A    
O13   Cr5   1.950435 S    
C13   O33   1.267170 A    
C84   H40   1.083872 S    
C41   C45   1.389569 A    
C92   H44   1.083242 S    
C39   H1    1.109388 S    
C42   H10   1.082643 S    
O47   Cr11  1.952332 S    
Cr2   O50   1.976713 S    
O15   Cr7   1.950435 S    
Cr1   O49   1.976739 S    
C16   C85   1.448431 S    
Cr7   O51   1.972449 S    
C49   C53   1.392180 A    
Cr3   O51   1.976739 S    
O26   C22   1.258156 A    
C35   N3    1.438622 S    
O21   Cr9   1.947329 S    
C74   H30   1.083227 S    
O28   C24   1.258159 A    
C7    O19   1.255232 A    
C32   C40   1.493748 S    
C94   H46   1.083293 S    
O37   Cr5   1.950722 S    
C22   C98   1.448649 S    
C41   H9    1.083121 S    
C19   O43   1.267078 A    
C38   H6    1.112660 S    
C21   C97   1.448271 S    
C42   C62   1.405008 A    
C3    C50   1.450777 S    
C88   C92   1.407307 A    
C59   H23   1.080046 S    
C75   C76   1.391901 A    
C8    O20   1.264830 A    
C40   H8    1.112671 S    
O38   C18   1.273546 A    
C76   H32   1.083226 S    
C36   N4    1.438930 S    
C80   C84   1.375277 A    
O25   Cr1   2.071844 S    
N4    O60   1.301193 A    
O37   C17   1.267976 A    
O22   Cr10  1.948311 S    
C44   C48   1.389261 A    
C41   C61   1.393280 A    
C47   C51   1.408907 A    
C78   C98   1.405541 A    
C53   C57   1.376062 A    
C51   C55   1.392164 A    
O5    Cr1   1.952527 S    
C77   C97   1.394925 A    
Cr12  O52   1.972324 S    
C45   C49   1.408904 A    
C34   N2    1.438921 S    
O17   Cr9   2.073467 S    
C83   C87   1.405934 A    
C54   H18   1.083018 S    
C79   H35   1.083873 S    
C17   O41   1.267080 A    
C68   H28   1.083179 S    
C57   H21   1.080058 S    
C67   C72   1.395409 A    
C46   C50   1.397307 A    
C14   O34   1.257344 A    
C43   H11   1.083127 S    
O40   Cr8   1.949485 S    
C80   C100  1.405540 A    
C75   H31   1.083220 S    
C65   C70   1.395407 A    
C20   O44   1.257182 A    
C55   H19   1.083955 S    
O1    Cr1   2.064927 S    
C58   C62   1.396399 A    
C15   C86   1.448814 S    
O14   C6    1.275255 A    
Cr8   O52   1.973742 S    
O41   Cr9   2.067049 S    
Cr6   O50   1.973742 S    
C90   H42   1.083240 S    
C89   C93   1.389171 A    
C95   H47   1.083226 S    
Cr5   O49   1.972449 S    
O45   C21   1.268059 A    
O19   Cr11  2.073467 S    
C55   C59   1.376068 A    
C6    C25   1.465057 S    
O26   Cr2   2.071083 S    
O23   C11   1.275836 A    
N3    O58   1.300549 A    
O10   Cr6   2.069710 S    
C65   H25   1.083889 S    
N4    O59   1.301531 A    
O35   Cr7   2.068377 S    
O4    Cr4   2.066279 S    
O6    C2    1.265470 A    
C86   C90   1.407317 A    
O29   Cr1   1.944955 S    
C8    C27   1.465065 S    
C42   C46   1.389265 A    
O28   Cr4   2.071083 S    
C16   O36   1.257345 A    
O40   C20   1.273548 A    
O46   C22   1.273756 A    
C30   C38   1.493753 S    
C27   C31   1.401264 A    
C60   C64   1.396378 A    
C6    O18   1.264795 A    
C43   C63   1.393262 A    
C39   C40   1.514633 S    
C93   H45   1.083229 S    
O45   Cr9   1.952332 S    
C23   C99   1.448268 S    
C9    C61   1.446107 S    
C82   C86   1.395403 A    
C65   C66   1.376004 A    
O36   Cr8   2.068374 S    
C18   C69   1.451996 S    
O31   C15   1.267192 A    
O16   C8    1.275205 A    
C69   C73   1.398671 A    
O32   C16   1.273817 A    
C28   C35   1.430240 A    
O38   Cr6   1.949485 S    
