data_mof_unit_23522.cif
_audit_creation_date              2012-12-10T18:43:08-0500
_audit_creation_method            fapswitch 2.2
_symmetry_space_group_name_H-M    P1
_symmetry_Int_Tables_number       1
_space_group_crystal_system       triclinic
_cell_length_a                    10.815386
_cell_length_b                    9.829622
_cell_length_c                    10.744648
_cell_angle_alpha                 90.000021
_cell_angle_beta                  90.124467
_cell_angle_gamma                 90.0
_cell_volume                      1142.27325618

loop_
_atom_site_label
_atom_site_type_symbol
_atom_type_description
_atom_site_fract_x
_atom_site_fract_y
_atom_site_fract_z
_atom_type_partial_charge
C1    C     C_R   0.259873 0.499003 0.504911 0.869437
C2    C     C_R   0.740127 0.499003 0.495089 0.869437
C3    C     C_R   0.497269 0.499818 0.262502 0.933523
C4    C     C_R   0.502731 0.499818 0.737498 0.933523
C5    C     C_2   0.496277 0.384937 0.933052 -0.169621
C6    C     C_2   0.503724 0.384937 0.066948 -0.169622
C7    C     C_2   0.514457 0.499509 0.868970 -0.335692
C8    C     C_2   0.485543 0.499509 0.131030 -0.335692
C9    C     C_R   0.063505 0.368429 0.510294 -0.056406
C10   C     C_R   0.936495 0.368429 0.489706 -0.056406
C11   C     C_R   0.872824 0.494483 0.491041 -0.086376
C12   C     C_R   0.127176 0.494483 0.508959 -0.086376
C13   C     C_R   0.936787 0.617504 0.497303 -0.213489
C14   C     C_R   0.063213 0.617504 0.502697 -0.213489
C15   C     C_R   0.525928 0.071937 0.606232 -0.037664
C16   C     C_R   0.474072 0.071937 0.393768 -0.037665
C17   C     C_R   0.526041 0.928126 0.606210 -0.104760
C18   C     C_R   0.473959 0.928126 0.393790 -0.104760
H1    H     H_    0.476809 0.288698 0.887210 0.160211
H2    H     H_    0.523192 0.288698 0.112790 0.160211
H3    H     H_    0.541435 0.594879 0.911790 0.142625
H4    H     H_    0.458565 0.594879 0.088210 0.142625
H5    H     H_    0.889366 0.714387 0.497054 0.163567
H6    H     H_    0.110634 0.714387 0.502946 0.163567
H7    H     H_    0.547375 0.125998 0.691147 0.115359
H8    H     H_    0.452625 0.125998 0.308853 0.115359
H9    H     H_    0.547502 0.874094 0.691143 0.126237
H10   H     H_    0.452498 0.874094 0.308857 0.126237
N1    N     N_R   0.500000 0.857200 0.500000 -0.081583
N2    N     N_R   0.500000 0.142810 0.500000 -0.066892
O1    O     O_R   0.316770 0.614620 0.499990 -0.631154
O2    O     O_R   0.683230 0.614620 0.500010 -0.631154
O3    O     O_R   0.316800 0.385290 0.500000 -0.608825
O4    O     O_R   0.683200 0.385290 0.500000 -0.608825
O5    O     O_R   0.500000 0.614630 0.319080 -0.634195
O6    O     O_R   0.500000 0.614630 0.680920 -0.634195
O7    O     O_R   0.500030 0.385300 0.319080 -0.625812
O8    O     O_R   0.499970 0.385300 0.680920 -0.625812
Zn1   Zn    Zn3+2 0.500000 0.653120 0.500000 0.921755
Zn2   Zn    Zn3+2 0.500000 0.346880 0.500000 0.960128
C19   C     C_R   0.124784 0.236511 0.540337 0.164552
C20   C     C_R   0.142748 0.137390 0.447841 -0.113769
C21   C     C_R   0.186379 0.008322 0.480074 -0.142605
C22   C     C_R   0.215733 0.978619 0.603874 -0.104606
C23   C     C_R   0.202305 0.078273 0.695583 -0.162973
C24   C     C_R   0.156469 0.206752 0.664202 -0.136676
H11   H     H_    0.119412 0.158974 0.351800 0.115595
H12   H     H_    0.197604 0.931385 0.408961 0.126545
H13   H     H_    0.249832 0.878699 0.628639 0.144292
H14   H     H_    0.225930 0.055385 0.791242 0.121359
H15   H     H_    0.143194 0.282109 0.736487 0.114619
C25   C     C_R   0.875216 0.236511 0.459663 0.164552
C26   C     C_R   0.857252 0.137390 0.552159 -0.113768
C27   C     C_R   0.813621 0.008322 0.519927 -0.142605
C28   C     C_R   0.784266 0.978619 0.396127 -0.104607
C29   C     C_R   0.797695 0.078272 0.304418 -0.162973
C30   C     C_R   0.843531 0.206752 0.335798 -0.136676
H16   H     H_    0.880588 0.158974 0.648200 0.115595
H17   H     H_    0.802395 0.931386 0.591039 0.126545
H18   H     H_    0.750168 0.878699 0.371362 0.144292
H19   H     H_    0.774070 0.055384 0.208758 0.121358
H20   H     H_    0.856806 0.282109 0.263513 0.114619

loop_
_geom_bond_atom_site_label_1
_geom_bond_atom_site_label_2
_ccdc_geom_bond_type
C22   H13   S    
O5    Zn1   S    
C21   C22   A    
C4    O6    A    
C18   H10   S    
C15   C17   A    
C20   C21   A    
C5    H1    S    
C13   C14   A    
C17   N1    A    
C19   C20   A    
C27   C28   A    
C9    C19   S    
C3    O5    A    
C26   H16   S    
C21   H12   S    
C10   C25   S    
N1    Zn1   S    
C28   C29   A    
C12   C14   A    
C1    O3    A    
C30   H20   S    
C18   N1    A    
C7    H3    S    
C26   C27   A    
C22   C23   A    
O8    Zn2   S    
C11   C13   A    
C2    O4    A    
C8    H4    S    
C19   C24   A    
C23   H14   S    
C4    C7    S    
O4    Zn2   S    
C2    C11   S    
C16   C18   A    
C20   H11   S    
O1    Zn1   S    
O7    Zn2   S    
C27   H17   S    
C16   H8    S    
C5    C6    S    
C9    C12   A    
C15   H7    S    
O3    Zn2   S    
C10   C11   A    
C29   C30   A    
N2    Zn2   S    
C25   C30   A    
C17   H9    S    
C23   C24   A    
C1    O1    A    
C6    H2    S    
C25   C26   A    
C13   H5    S    
C15   N2    A    
C2    O2    A    
C3    C8    S    
C9    C10   A    
O2    Zn1   S    
C14   H6    S    
C5    C7    D    
C29   H19   S    
C6    C8    D    
C28   H18   S    
C16   N2    A    
C24   H15   S    
O6    Zn1   S    
C1    C12   S    
C3    O7    A    
C4    O8    A    
