data_mof_unit_46602.cif
_audit_creation_date              2012-10-26T18:32:57-0400
_audit_creation_method            fapswitch 2.2
_symmetry_space_group_name_H-M    P1
_symmetry_Int_Tables_number       1
_space_group_crystal_system       triclinic
_cell_length_a                    13.784269
_cell_length_b                    13.893224
_cell_length_c                    15.073073
_cell_angle_alpha                 89.241715
_cell_angle_beta                  89.456048
_cell_angle_gamma                 86.381842
_cell_volume                      2880.49873131

loop_
_atom_site_label
_atom_site_type_symbol
_atom_type_description
_atom_site_fract_x
_atom_site_fract_y
_atom_site_fract_z
_atom_type_partial_charge
C1    C     C_R   0.500347 0.499488 0.328672 0.528744
C2    C     C_R   0.670876 0.443234 0.951655 -0.108898
C3    C     C_R   0.789813 0.578586 0.466137 0.430749
C4    C     C_R   0.208878 0.416843 0.517888 0.427079
C5    C     C_R   0.797917 0.424588 0.537289 -0.012827
C6    C     C_R   0.201143 0.583737 0.482963 -0.016629
C7    C     C_R   0.900370 0.423626 0.538907 -0.070380
C8    C     C_R   0.098208 0.586461 0.483852 -0.070407
C9    C     C_R   0.947598 0.504940 0.508848 -0.046341
C10   C     C_R   0.050644 0.504120 0.509484 -0.045818
C11   C     C_R   0.891803 0.586600 0.477682 0.025678
C12   C     C_R   0.499655 0.499526 0.671337 0.544954
C13   C     C_R   0.106422 0.419992 0.533373 0.015169
C14   C     C_R   0.956026 0.343526 0.571915 -0.141632
C15   C     C_R   0.042479 0.670944 0.461864 -0.146461
C16   C     C_R   0.514775 0.317201 0.501693 0.547771
C17   C     C_R   0.485410 0.682779 0.499314 0.549433
C18   C     C_R   0.059083 0.339185 0.567395 0.267733
C19   C     C_R   0.939075 0.672945 0.458099 0.270389
C20   C     C_1   0.478501 0.785469 0.495803 -0.005462
C21   C     C_1   0.522706 0.214530 0.507633 -0.021945
C22   C     C_2   0.465601 0.975068 0.486918 -0.123917
C23   C     C_R   0.498837 0.496139 0.953536 0.023282
C24   C     C_2   0.536808 0.024903 0.518641 -0.114756
C25   C     C_1   0.529742 0.128086 0.512942 -0.060087
C26   C     C_1   0.472381 0.871937 0.491917 -0.046010
C27   C     C_R   0.584821 0.472161 0.813911 -0.134533
C28   C     C_R   0.414713 0.523339 0.186089 -0.139751
C29   C     C_R   0.499093 0.498171 0.768149 -0.019888
C30   C     C_R   0.500618 0.498216 0.231884 -0.030793
C31   C     C_R   0.412958 0.522630 0.814840 -0.116428
C32   C     C_R   0.586049 0.470872 0.185258 -0.141578
C33   C     C_R   0.411641 0.522179 0.907696 0.047565
C34   C     C_R   0.499858 0.495914 0.046564 0.024781
C35   C     C_R   0.586838 0.469092 0.092431 0.047197
C36   C     C_3   0.733327 0.621623 0.327418 0.045816
C37   C     C_3   0.798807 0.680533 0.268352 -0.289432
C38   C     C_3   0.788737 0.655231 0.170790 -0.488860
C39   C     C_3   0.238347 0.293426 0.422927 0.031078
C40   C     C_3   0.290225 0.194156 0.409817 -0.251105
C41   C     C_3   0.252883 0.144519 0.328291 -0.500259
C42   C     C_3   0.080974 0.171494 0.590731 0.016423
C43   C     C_3   0.044308 0.129314 0.678277 -0.261528
C44   C     C_3   0.003263 0.031251 0.664794 -0.485379
C45   C     C_R   0.585224 0.470543 0.906264 -0.011044
C46   C     C_3   0.924582 0.830135 0.394440 0.012093
C47   C     C_3   0.964916 0.906488 0.453992 -0.261525
C48   C     C_3   0.025866 0.974952 0.400520 -0.495850
C49   C     C_R   0.413725 0.522534 0.093801 -0.011251
C50   C     C_R   0.325447 0.547688 0.955560 0.102937
C51   C     C_R   0.672423 0.441258 0.044585 0.099173
C52   C     C_R   0.327607 0.548041 0.048455 -0.112945
Cu1   Cu    Cu3+1 0.597420 0.500010 0.499990 0.975205
Cu2   Cu    Cu3+1 0.402580 0.499990 0.500010 0.983035
H1    H     H_    0.600629 0.988572 0.548814 0.142899
H2    H     H_    0.236522 0.648573 0.465444 0.136953
H3    H     H_    0.918519 0.284378 0.600599 0.096559
H4    H     H_    0.081061 0.734870 0.448278 0.095747
H5    H     H_    0.212288 0.510449 0.882562 0.229750
H6    H     H_    0.182200 0.598588 0.954438 0.225823
H7    H     H_    0.750194 0.343214 0.119001 0.226031
H8    H     H_    0.818492 0.401154 0.045606 0.225385
H9    H     H_    0.657703 0.638503 0.304769 0.167356
H10   H     H_    0.751423 0.543149 0.316189 0.117515
H11   H     H_    0.777984 0.758400 0.276414 0.178709
H12   H     H_    0.402009 0.011262 0.456510 0.120755
H13   H     H_    0.875864 0.665631 0.287331 0.161851
H14   H     H_    0.813432 0.578663 0.160184 0.187287
H15   H     H_    0.834590 0.701371 0.129398 0.146079
H16   H     H_    0.711973 0.667372 0.149394 0.162128
H17   H     H_    0.264423 0.343407 0.370627 0.128168
H18   H     H_    0.158925 0.286365 0.414151 0.109001
H19   H     H_    0.369102 0.202384 0.400707 0.166396
H20   H     H_    0.279101 0.148021 0.469290 0.175307
H21   H     H_    0.174476 0.132038 0.336519 0.143960
H22   H     H_    0.293677 0.073724 0.319635 0.145187
H23   H     H_    0.651258 0.452320 0.777616 0.128031
H24   H     H_    0.263354 0.189497 0.267888 0.151802
H25   H     H_    0.143117 0.123647 0.567029 0.148593
H26   H     H_    0.025068 0.170576 0.537858 0.100972
H27   H     H_    0.105484 0.121063 0.725862 0.178508
H28   H     H_    0.986950 0.178997 0.707831 0.159584
H29   H     H_    0.939284 0.038819 0.620493 0.144883
H30   H     H_    0.979828 0.001542 0.729723 0.154522
H31   H     H_    0.059469 0.980126 0.635376 0.148562
H32   H     H_    0.866763 0.867316 0.353498 0.143552
H33   H     H_    0.979406 0.800071 0.345760 0.100742
H34   H     H_    0.348542 0.544404 0.222294 0.123257
H35   H     H_    0.903273 0.948577 0.486074 0.163801
H36   H     H_    0.010222 0.871957 0.507455 0.165805
H37   H     H_    0.088523 0.934357 0.368547 0.145373
H38   H     H_    0.054428 0.029000 0.445219 0.132309
H39   H     H_    0.980916 0.013285 0.348718 0.146000
H40   H     H_    0.347422 0.543222 0.778350 0.165705
H41   H     H_    0.651503 0.450209 0.221713 0.145190
H42   H     H_    0.261732 0.567900 0.085522 0.098175
H43   H     H_    0.736573 0.422664 0.914606 0.103273
H44   H     H_    0.761574 0.363894 0.564453 0.133698
N1    N     N_R   0.743820 0.499960 0.499930 -0.248650
N2    N     N_R   0.256180 0.500040 0.500070 -0.245012
N3    N     N_3   0.236264 0.573473 0.909810 -0.639432
N4    N     N_3   0.760376 0.410819 0.090360 -0.670577
O1    O     O_R   0.582280 0.500030 0.370250 -0.521911
O2    O     O_3   0.257994 0.327830 0.508759 -0.493379
O3    O     O_3   0.116042 0.263474 0.605707 -0.530523
O4    O     O_3   0.881074 0.758473 0.446377 -0.529508
O5    O     O_R   0.417720 0.499970 0.629750 -0.491025
O6    O     O_R   0.417740 0.500020 0.370270 -0.512056
O7    O     O_R   0.582260 0.499980 0.629730 -0.506115
O8    O     O_R   0.593900 0.362160 0.500010 -0.521186
O9    O     O_R   0.406100 0.637840 0.499990 -0.525815
O10   O     O_R   0.429360 0.362150 0.500030 -0.434519
O11   O     O_R   0.570640 0.637850 0.499970 -0.436383
O12   O     O_3   0.737481 0.649157 0.417696 -0.497652

loop_
_geom_bond_atom_site_label_1
_geom_bond_atom_site_label_2
_ccdc_geom_bond_type
Cu1   O8    S    
C38   H16   S    
C42   H26   S    
C16   C21   S    
C23   C45   A    
C12   C29   S    
C27   C29   A    
C14   C18   A    
C44   H29   S    
C36   O12   S    
C17   O11   A    
C39   O2    S    
Cu1   Cu2   S    
Cu1   N1    S    
C51   N4    S    
C15   C19   A    
C11   C19   A    
Cu2   O5    S    
C36   C37   S    
C37   H13   S    
C17   C20   S    
C40   H19   S    
C34   C35   A    
C4    C13   A    
C22   H12   S    
C7    C14   A    
C5    N1    A    
C2    H43   S    
C23   C33   A    
C48   H37   S    
C37   H11   S    
C28   H34   S    
C50   C52   A    
C39   H18   S    
C31   C33   A    
C36   H9    S    
C9    C10   A    
C1    O1    A    
C49   C52   A    
C38   H15   S    
C42   H25   S    
C47   H35   S    
Cu2   N2    S    
C17   O9    A    
C12   O7    A    
Cu1   O11   S    
C2    C45   A    
C48   H39   S    
C16   O8    A    
H5    N3    S    
C32   C35   A    
C24   C25   S    
C41   H24   S    
C5    C7    A    
C6    C8    A    
C27   H23   S    
C33   C50   A    
C10   C13   A    
C24   H1    S    
C6    N2    A    
C43   C44   S    
C37   C38   S    
C41   H21   S    
C28   C49   A    
C47   C48   S    
C23   C34   A    
Cu2   O10   S    
C9    C11   A    
C13   C18   A    
C40   C41   S    
C38   H14   S    
C8    C15   A    
C4    N2    A    
C35   C51   A    
C43   H27   S    
C15   H4    S    
C22   C24   D    
C42   C43   S    
H6    N3    S    
C39   C40   S    
C16   O10   A    
C46   H33   S    
Cu1   O7    S    
C7    C9    A    
C14   H3    S    
C21   C25   T    
C46   C47   S    
C34   C49   A    
C6    H2    S    
C44   H30   S    
C3    O12   S    
C12   O5    A    
C31   H40   S    
Cu2   O6    S    
C28   C30   A    
H7    N4    S    
C18   O3    S    
C29   C31   A    
C41   H22   S    
C30   C32   A    
C27   C45   A    
C20   C26   T    
Cu1   O1    S    
C4    O2    S    
C1    C30   S    
C47   H36   S    
C40   H20   S    
Cu2   O9    S    
C52   H42   S    
C42   O3    S    
C3    C11   A    
C2    C51   A    
C46   O4    S    
C1    O6    A    
C22   C26   S    
C19   O4    S    
C3    N1    A    
C32   H41   S    
C5    H44   S    
C50   N3    S    
C8    C10   A    
C48   H38   S    
C43   H28   S    
C39   H17   S    
H8    N4    S    
C36   H10   S    
C44   H31   S    
C46   H32   S    
