data_mof_unit_44831.cif
_audit_creation_date              2012-12-10T17:22:41-0500
_audit_creation_method            fapswitch 2.2
_symmetry_space_group_name_H-M    P1
_symmetry_Int_Tables_number       1
_space_group_crystal_system       triclinic
_cell_length_a                    10.632149
_cell_length_b                    10.862918
_cell_length_c                    9.585245
_cell_angle_alpha                 90.424764
_cell_angle_beta                  90.248062
_cell_angle_gamma                 92.563648
_cell_volume                      1105.90858642

loop_
_atom_site_label
_atom_site_type_symbol
_atom_type_description
_atom_site_fract_x
_atom_site_fract_y
_atom_site_fract_z
_atom_type_partial_charge
C1    C     C_R   0.510119 0.263147 0.500299 0.795301
C2    C     C_3   0.961898 0.601487 0.433072 -0.241067
C3    C     C_3   0.038735 0.498729 0.369314 0.696134
C4    C     C_3   0.122477 0.500405 0.499076 -0.077385
C5    C     C_R   0.585279 0.123254 0.753695 -0.158241
C6    C     C_R   0.572177 0.065691 0.882480 -0.159291
C7    C     C_R   0.510111 0.950887 0.890516 -0.139840
C8    C     C_R   0.472961 0.888387 0.768582 -0.162944
C9    C     C_R   0.498698 0.939926 0.635404 0.091192
C10   C     C_R   0.536374 0.065769 0.630392 0.095809
C11   C     C_R   0.521764 0.129395 0.502854 -0.119804
C12   C     C_R   0.259398 0.499853 0.499623 0.815770
C13   C     C_R   0.500975 0.062919 0.378705 -0.213372
C14   C     C_R   0.490308 0.935720 0.380357 -0.213170
C15   C     C_R   0.488795 0.872392 0.507180 -0.112906
C16   C     C_R   0.667904 0.663736 0.146034 -0.143021
C17   C     C_R   0.750197 0.743204 0.074602 -0.201233
C18   C     C_R   0.750447 0.742725 0.930868 -0.188379
C19   C     C_R   0.668152 0.663017 0.857714 -0.150116
C20   C     C_R   0.582571 0.580306 0.926125 0.190442
C21   C     C_R   0.582482 0.580444 0.075794 0.206415
C22   C     C_R   0.421813 0.423246 0.072915 -0.025242
C23   C     C_R   0.493343 0.737627 0.501595 0.773818
C24   C     C_R   0.421841 0.423284 0.924928 -0.054266
C25   C     C_R   0.740537 0.500632 0.500380 0.787282
C26   C     C_3   0.037327 0.400163 0.566909 -0.244290
C27   C     C_3   0.952281 0.398156 0.435115 -0.232798
C28   C     C_3   0.877290 0.500915 0.501052 -0.058286
C29   C     C_3   0.959861 0.502714 0.632994 -0.094017
C30   C     C_3   0.047006 0.602976 0.564866 -0.241665
Cu1   Cu    Cu3+1 0.499990 0.499990 0.640660 0.921963
Cu2   Cu    Cu3+1 0.500010 0.500010 0.359340 0.954224
H1    H     H_    0.910928 0.315019 0.381067 0.145044
H2    H     H_    0.493000 0.908882 0.991162 0.140235
H3    H     H_    0.420085 0.802337 0.782057 0.172143
H4    H     H_    0.480930 0.887030 0.281536 0.166401
H5    H     H_    0.357754 0.360346 0.127400 0.154158
H6    H     H_    0.675883 0.672001 0.256040 0.195669
H7    H     H_    0.814238 0.805747 0.131546 0.149922
H8    H     H_    0.814417 0.805107 0.875279 0.153166
H9    H     H_    0.675311 0.671230 0.747849 0.202804
H10   H     H_    0.357847 0.360346 0.868735 0.147135
H11   H     H_    0.071015 0.318160 0.621815 0.154073
H12   H     H_    0.924539 0.504562 0.741801 0.163843
H13   H     H_    0.088616 0.686401 0.618131 0.152928
H14   H     H_    0.928299 0.683083 0.377278 0.135635
H15   H     H_    0.492705 0.109161 0.279534 0.162589
H16   H     H_    0.636083 0.211637 0.752039 0.163215
H17   H     H_    0.606815 0.111852 0.976447 0.137234
N1    N     N_R   0.501210 0.501210 0.147910 -0.203421
N2    N     N_R   0.501250 0.501290 0.852040 -0.207700
O1    O     O_R   0.499990 0.319640 0.618810 -0.590442
O2    O     O_R   0.500000 0.319660 0.381240 -0.585456
O3    O     O_R   0.316850 0.499960 0.618770 -0.580368
O4    O     O_R   0.316860 0.499980 0.381190 -0.536978
O5    O     O_R   0.500000 0.680340 0.618760 -0.615563
O6    O     O_R   0.500010 0.680360 0.381190 -0.599552
O7    O     O_R   0.683140 0.500020 0.618810 -0.608163
O8    O     O_R   0.683150 0.500040 0.381230 -0.595591
F1    F     F_    0.081464 0.496671 0.233284 -0.669978

loop_
_geom_bond_atom_site_label_1
_geom_bond_atom_site_label_2
_ccdc_geom_bond_type
C4    C26   S    
C16   C21   A    
Cu1   O5    S    
C4    C12   S    
C24   H10   S    
C9    C10   A    
Cu2   O4    S    
C19   C20   A    
C1    C11   S    
C2    C30   S    
Cu1   O1    S    
C22   N1    A    
C3    F1    S    
C24   N2    A    
C15   C23   S    
C17   C18   A    
C9    C15   A    
C30   H13   S    
C4    C30   S    
C23   O5    A    
Cu1   O3    S    
C12   O3    A    
C13   C14   A    
C27   H1    S    
C25   C28   S    
C11   C13   A    
Cu2   N1    S    
C26   C27   S    
C29   C30   S    
Cu2   O6    S    
Cu1   O7    S    
C3    C27   S    
C21   N1    A    
C7    H2    S    
C26   H11   S    
C2    C3    S    
C6    C7    A    
C1    O1    A    
C29   H12   S    
C14   H4    S    
C5    C6    A    
C5    H16   S    
C22   C24   A    
C2    C28   S    
C12   O4    A    
C7    C8    A    
C10   C11   A    
C3    C4    S    
C17   H7    S    
C19   H9    S    
Cu2   O2    S    
C5    C10   A    
C20   C21   A    
C26   C29   S    
C23   O6    A    
C18   C19   A    
C25   O7    A    
C16   H6    S    
C27   C28   S    
C13   H15   S    
C1    O2    A    
C20   N2    A    
C28   C29   S    
C18   H8    S    
C25   O8    A    
Cu2   O8    S    
C14   C15   A    
C22   H5    S    
C2    H14   S    
C6    H17   S    
Cu1   Cu2   S    
C16   C17   A    
Cu1   N2    S    
C8    C9    A    
C8    H3    S    
