data_mof_unit_17168.cif
_audit_creation_date              2012-12-10T16:37:26-0500
_audit_creation_method            fapswitch 2.2
_symmetry_space_group_name_H-M    P1
_symmetry_Int_Tables_number       1
_space_group_crystal_system       triclinic
_cell_length_a                    16.97576
_cell_length_b                    16.606802
_cell_length_c                    16.862128
_cell_angle_alpha                 65.752533
_cell_angle_beta                  66.297821
_cell_angle_gamma                 66.019742
_cell_volume                      3799.24732428

loop_
_atom_site_label
_atom_site_type_symbol
_atom_type_description
_atom_site_fract_x
_atom_site_fract_y
_atom_site_fract_z
_atom_type_partial_charge
C1    C     C_R   0.411617 0.075406 0.645789 0.396357
C2    C     C_R   0.398583 0.627523 0.120610 0.394446
C3    C     C_R   0.938601 0.604200 0.343675 0.386712
C4    C     C_R   0.057384 0.397367 0.656755 0.379489
C5    C     C_R   0.959801 0.179646 0.438931 0.948366
C6    C     C_R   0.040740 0.820264 0.560854 0.923450
C7    C     C_R   0.176264 0.429772 0.981131 0.983526
C8    C     C_R   0.820730 0.561909 0.038628 0.957874
C9    C     C_R   0.436511 0.966572 0.178480 0.923589
C10   C     C_R   0.563350 0.033887 0.821329 0.890165
C11   C     C_R   0.561173 0.820081 0.040971 0.905220
C12   C     C_R   0.587259 0.927775 0.353033 0.400016
C13   C     C_R   0.438275 0.180036 0.961905 0.878407
C14   C     C_R   0.038671 0.561868 0.820066 0.962177
C15   C     C_R   0.960354 0.438693 0.179693 0.954693
C16   C     C_R   0.824168 0.019197 0.569498 0.983545
C17   C     C_R   0.175595 0.981067 0.430468 0.950034
C18   C     C_R   0.455225 0.040838 0.711846 0.342861
C19   C     C_R   0.543319 0.962480 0.287239 0.341290
C20   C     C_R   0.080577 0.700892 0.442043 0.375119
C21   C     C_R   0.917935 0.300685 0.557057 0.378317
C22   C     C_R   0.705334 0.438464 0.080479 0.349841
C23   C     C_R   0.054309 0.662060 0.399623 0.390288
C24   C     C_R   0.261783 0.493276 0.062638 0.350748
C25   C     C_R   0.262994 0.058465 0.497636 0.354544
C26   C     C_R   0.735853 0.942510 0.502568 0.352060
C27   C     C_R   0.550307 0.310613 0.921530 0.369564
C28   C     C_R   0.443609 0.685348 0.115927 0.351663
C29   C     C_R   0.919218 0.560761 0.299740 0.377390
C30   C     C_R   0.078039 0.440229 0.700162 0.351765
C31   C     C_R   0.548122 0.003115 0.549011 -0.032287
C32   C     C_R   0.450718 0.999167 0.450409 -0.030939
C33   C     C_R   0.025497 0.541472 0.540499 -0.041147
C34   C     C_R   0.941525 0.341497 0.599803 0.376542
C35   C     C_R   0.972888 0.460171 0.458589 -0.035978
C36   C     C_R   0.537050 0.531306 0.051267 -0.044476
C37   C     C_R   0.448420 0.442662 0.016349 -0.041428
C38   C     C_R   0.596101 0.971567 0.471945 -0.047572
C39   C     C_R   0.402760 0.030695 0.527487 -0.047502
C40   C     C_R   0.016949 0.451185 0.584944 -0.034166
C41   C     C_R   0.980353 0.550800 0.414532 -0.023363
C42   C     C_R   0.442678 0.563609 0.069739 -0.043736
C43   C     C_R   0.542805 0.410700 0.000016 -0.031091
C44   C     C_R   0.546343 0.967389 0.424218 0.004043
C45   C     C_R   0.663421 0.395076 0.059007 0.368900
C46   C     C_R   0.452520 0.035334 0.574916 0.003065
C47   C     C_R   0.397425 0.519201 0.051603 -0.028220
C48   C     C_R   0.584110 0.446817 0.031207 -0.025405
C49   C     C_R   0.981968 0.414071 0.547525 -0.017470
C50   C     C_R   0.015342 0.588240 0.451793 -0.021405
C51   C     C_R   0.547928 0.032653 0.679483 -0.058934
C52   C     C_R   0.450813 0.969793 0.319881 -0.087698
C53   C     C_R   0.063099 0.670723 0.537716 -0.064785
C54   C     C_R   0.937413 0.329715 0.461246 -0.087639
C55   C     C_R   0.673513 0.535626 0.065274 -0.125474
C56   C     C_R   0.303686 0.549735 0.063383 0.384456
C57   C     C_R   0.310641 0.427187 0.014590 -0.123817
C58   C     C_R   0.309554 0.012592 0.430417 -0.110571
C59   C     C_R   0.689406 0.988596 0.569618 -0.124144
C60   C     C_R   0.455914 0.327984 0.953889 -0.075214
C61   C     C_R   0.538109 0.665042 0.078230 -0.083150
C62   C     C_R   0.939261 0.463211 0.327901 -0.078752
C63   C     C_R   0.059338 0.537639 0.671517 -0.126800
C64   C     C_R   0.595438 0.044174 0.725136 -0.216899
C65   C     C_R   0.403251 0.958998 0.273731 -0.136089
C66   C     C_R   0.068992 0.719126 0.587673 -0.187847
C67   C     C_R   0.307229 0.054232 0.554043 0.372426
C68   C     C_R   0.933644 0.280369 0.410985 -0.124963
C69   C     C_R   0.722094 0.588970 0.065323 -0.108139
C70   C     C_R   0.270193 0.391850 0.980186 -0.137549
C71   C     C_R   0.267817 0.984042 0.391506 -0.177157
C72   C     C_R   0.731228 0.017674 0.607988 -0.127222
C73   C     C_R   0.409268 0.280733 0.941816 -0.188292
C74   C     C_R   0.589518 0.718312 0.072179 -0.200736
C75   C     C_R   0.935407 0.411511 0.279301 -0.118777
C76   C     C_R   0.064188 0.588753 0.720068 -0.104924
C77   C     C_R   0.680771 0.053884 0.680051 0.355878
C78   C     C_R   0.691664 0.947449 0.445749 0.382541
C79   C     C_R   0.317353 0.951926 0.316764 0.344018
C80   C     C_R   0.081549 0.673072 0.673671 0.352020
C81   C     C_R   0.923290 0.324854 0.324632 0.327674
C82   C     C_R   0.676879 0.674774 0.079777 0.366164
C83   C     C_R   0.322169 0.324132 0.937108 0.357238
C84   C     C_R   0.595342 0.010442 0.597641 -0.009765
C85   C     C_R   0.403504 0.991536 0.401941 -0.010131
C86   C     C_R   0.048110 0.583792 0.583691 -0.030096
C87   C     C_R   0.951278 0.417142 0.415337 -0.037289
C88   C     C_R   0.583616 0.578250 0.062795 -0.031954
C89   C     C_R   0.593218 0.352218 0.943669 0.376284
C90   C     C_R   0.405154 0.400028 0.994065 -0.032616
Cl1   Cl    Cl    0.351415 0.193434 0.621542 -0.434119
Cl2   Cl    Cl    0.308622 0.605541 0.218724 -0.374103
Cl3   Cl    Cl    0.886626 0.724016 0.328109 -0.324659
Cl4   Cl    Cl    0.104869 0.276599 0.675814 -0.320035
Cl5   Cl    Cl    0.425224 0.941326 0.793081 -0.485813
Cl6   Cl    Cl    0.572209 0.062550 0.205957 -0.459886
Cl7   Cl    Cl    0.156956 0.767485 0.373432 -0.381302
Cl8   Cl    Cl    0.841663 0.233935 0.624788 -0.400468
Cl9   Cl    Cl    0.774337 0.367637 0.154069 -0.430685
Cl10  Cl    Cl    0.159459 0.487214 0.147516 -0.534366
Cl11  Cl    Cl    0.160341 0.146445 0.493834 -0.519307
Cl12  Cl    Cl    0.646495 0.809513 0.377441 -0.444862
Cl13  Cl    Cl    0.838395 0.854291 0.506380 -0.527549
Cl14  Cl    Cl    0.613627 0.253222 0.837584 -0.479846
Cl15  Cl    Cl    0.385802 0.762083 0.182674 -0.413663
Cl16  Cl    Cl    0.845493 0.629982 0.230829 -0.424865
Cl17  Cl    Cl    0.152235 0.370042 0.768572 -0.413698
Cl18  Cl    Cl    0.089988 0.692729 0.279549 -0.315396
Cl19  Cl    Cl    0.899020 0.317233 0.719156 -0.359065
Cl20  Cl    Cl    0.695579 0.272687 0.091716 -0.368387
Cl21  Cl    Cl    0.238569 0.665859 0.055068 -0.391999
Cl22  Cl    Cl    0.238512 0.060062 0.664147 -0.369469
Cl23  Cl    Cl    0.760469 0.942139 0.335539 -0.346974
Cl24  Cl    Cl    0.707003 0.347469 0.883468 -0.379048
H1    H     H_    0.666871 0.145176 0.731057 0.388391
H2    H     H_    0.243928 0.966441 0.247991 0.365985
H3    H     H_    0.148056 0.747430 0.667675 0.352047
H4    H     H_    0.957247 0.249327 0.249229 0.363565
H5    H     H_    0.675112 0.749498 0.143488 0.371690
H6    H     H_    0.334955 0.267205 0.850401 0.364413
O1    O     O_R   0.982940 0.138950 0.510160 -0.562314
O2    O     O_R   0.982940 0.510160 0.138950 -0.568303
O3    O     O_R   0.861050 0.017060 0.489840 -0.601708
O4    O     O_R   0.138950 0.982940 0.510160 -0.606720
O5    O     O_R   0.867700 0.025880 0.612340 -0.537003
O6    O     O_R   0.132300 0.974120 0.387660 -0.597126
O7    O     O_R   0.025880 0.612340 0.867700 -0.565035
O8    O     O_R   0.974120 0.387660 0.132300 -0.614800
O9    O     O_R   0.612340 0.867700 0.025880 -0.599322
O10   O     O_R   0.387660 0.132300 0.974120 -0.605267
O11   O     O_R   0.387660 0.974120 0.132300 -0.585496
O12   O     O_R   0.017060 0.861050 0.489840 -0.555853
O13   O     O_R   0.612340 0.025880 0.867700 -0.568298
O14   O     O_R   0.132300 0.387660 0.974120 -0.549959
O15   O     O_R   0.867700 0.612340 0.025880 -0.547466
O16   O     O_R   0.974120 0.132300 0.387660 -0.626408
O17   O     O_R   0.025880 0.867700 0.612340 -0.611990
O18   O     O_3   0.716692 0.095920 0.707361 -0.646550
O19   O     O_3   0.282273 0.913768 0.284555 -0.621381
O20   O     O_3   0.107466 0.710806 0.715290 -0.705750
O21   O     O_3   0.900052 0.283394 0.284646 -0.653282
O22   O     O_3   0.720209 0.715929 0.099427 -0.659187
O23   O     O_R   0.138950 0.510160 0.982940 -0.608810
O24   O     O_3   0.285546 0.297624 0.895018 -0.665612
O25   O     O_R   0.861050 0.489840 0.017060 -0.617038
O26   O     O_R   0.510160 0.982940 0.138950 -0.604125
O27   O     O_R   0.489840 0.017060 0.861050 -0.586359
O28   O     O_R   0.489840 0.861050 0.017060 -0.565340
O29   O     O_R   0.510160 0.138950 0.982940 -0.567001
O30   O     O_R   0.017060 0.489840 0.861050 -0.611523
Zn1   Zn    Zn3+2 0.004880 0.004880 0.583590 1.194268
Zn2   Zn    Zn3+2 0.995120 0.995120 0.416410 1.168998
Zn3   Zn    Zn3+2 0.004880 0.583590 0.004880 1.210064
Zn4   Zn    Zn3+2 0.995120 0.416410 0.995120 1.171448
Zn5   Zn    Zn3+2 0.583590 0.004880 0.004880 1.193092
Zn6   Zn    Zn3+2 0.416410 0.995120 0.995120 1.169477

loop_
_geom_bond_atom_site_label_1
_geom_bond_atom_site_label_2
_ccdc_geom_bond_type
C5    O16   A    
C79   O19   S    
C65   C79   A    
C15   O2    A    
C30   Cl17  S    
C64   C77   A    
C9    O26   A    
C36   C42   A    
C8    O25   A    
H6    O24   S    
C10   O13   A    
C82   O22   S    
H4    O21   S    
C17   O6    A    
O7    Zn3   S    
C7    C70   S    
C7    O23   A    
C54   C87   A    
C36   C88   A    
C38   C44   A    
C1    C18   A    
C43   C89   A    
O11   Zn6   S    
C37   C90   A    
C68   C81   A    
C52   C85   A    
C16   O3    A    
C27   C60   A    
C83   O24   S    
C11   O28   A    
O23   Zn3   S    
C54   C68   A    
C63   C76   A    
C23   Cl18  S    
C40   C49   A    
C5    O1    A    
C27   Cl14  S    
C32   C39   A    
C55   C88   A    
C3    C29   A    
C69   C82   A    
O5    Zn1   S    
C89   Cl24  S    
O6    Zn2   S    
C19   C52   A    
C20   Cl7   S    
C4    C40   A    
C24   C57   A    
C31   C46   A    
C16   C72   S    
C35   C49   A    
C13   O10   A    
H1    O18   S    
C36   C48   A    
C53   C86   A    
C57   C70   A    
C37   C47   A    
C43   C48   A    
C56   Cl21  S    
O8    Zn4   S    
C10   O27   A    
H2    O19   S    
C28   C61   A    
C81   O21   S    
C1    Cl1   S    
O13   Zn5   S    
C30   C63   A    
C8    O15   A    
C18   Cl5   S    
C35   C87   A    
C74   C82   A    
C5    C68   S    
C60   C73   A    
C11   O9    A    
C71   C79   A    
O16   Zn2   S    
C18   C51   A    
C9    O11   A    
C32   C44   A    
C33   C40   A    
C57   C90   A    
O26   Zn5   S    
C77   O18   S    
C29   C62   A    
C7    O14   A    
C6    O12   A    
O9    Zn5   S    
C45   Cl20  S    
C75   C81   A    
C23   C50   A    
C21   C34   A    
C38   C78   A    
C33   C50   A    
C80   O20   S    
C31   C84   A    
O1    Zn1   S    
C25   C67   A    
C14   C76   S    
C37   C43   A    
C33   C86   A    
C12   Cl12  S    
C72   C77   A    
C70   C83   A    
C61   C88   A    
C26   Cl13  S    
C17   O4    A    
C20   C23   A    
C28   Cl15  S    
C14   O30   A    
C8    C69   S    
C3    Cl3   S    
C26   C78   A    
C59   C84   A    
C2    Cl2   S    
O27   Zn6   S    
C55   C69   A    
C39   C46   A    
C4    Cl4   S    
O25   Zn4   S    
O4    Zn1   S    
C13   C73   S    
C17   C71   S    
C15   O8    A    
C63   C86   A    
O12   Zn2   S    
O2    Zn3   S    
C29   Cl16  S    
H3    O20   S    
C25   C58   A    
C62   C75   A    
C58   C85   A    
C41   C50   A    
C19   Cl6   S    
C15   C75   S    
C16   O5    A    
C45   C48   A    
C34   Cl19  S    
O3    Zn2   S    
C3    C41   A    
C34   C49   A    
C22   Cl9   S    
C24   Cl10  S    
C39   C67   A    
C10   C64   S    
C51   C64   A    
C76   C80   A    
C20   C53   A    
C11   C74   S    
O10   Zn6   S    
C22   C55   A    
C60   C90   A    
C61   C74   A    
C24   C56   A    
C66   C80   A    
C62   C87   A    
C59   C72   A    
O15   Zn3   S    
C31   C38   A    
C21   C54   A    
C6    O17   A    
O29   Zn5   S    
C13   O29   A    
C12   C44   A    
C53   C66   A    
C21   Cl8   S    
C25   Cl11  S    
O14   Zn4   S    
C2    C42   A    
C32   C85   A    
C12   C19   A    
C1    C46   A    
C27   C89   A    
C42   C47   A    
C35   C41   A    
C9    C65   S    
C58   C71   A    
C14   O7    A    
C78   Cl23  S    
C67   Cl22  S    
C6    C66   S    
C22   C45   A    
O30   Zn4   S    
H5    O22   S    
O17   Zn1   S    
C26   C59   A    
C2    C28   A    
O28   Zn6   S    
C51   C84   A    
C73   C83   A    
C4    C30   A    
C52   C65   A    
C47   C56   A    
