data_mof_unit_38309.cif
_audit_creation_date              2013-03-05T16:15:20-0500
_audit_creation_method            fapswitch 2.2
_symmetry_space_group_name_H-M    P1
_symmetry_Int_Tables_number       1
_space_group_crystal_system       triclinic
_cell_length_a                    27.771455
_cell_length_b                    10.690529
_cell_length_c                    9.502562
_cell_angle_alpha                 89.182065
_cell_angle_beta                  88.579576
_cell_angle_gamma                 89.512036
_cell_volume                      2819.98198886

loop_
_atom_site_label
_atom_site_type_symbol
_atom_site_description
_atom_site_fract_x
_atom_site_fract_y
_atom_site_fract_z
_atom_type_partial_charge
O1    O     O_R   0.500020 0.316850 0.620870 -0.515530
O2    O     O_R   0.499980 0.683150 0.379130 -0.507255
O3    O     O_R   0.500000 0.316860 0.379090 -0.600588
O4    O     O_R   0.500000 0.683140 0.620910 -0.611082
C1    C     C_R   0.499763 0.259681 0.500470 0.853043
C2    C     C_R   0.500056 0.740284 0.499599 0.811913
O5    O     O_R   0.430270 0.500020 0.620880 -0.595757
O6    O     O_R   0.569730 0.499980 0.379120 -0.574823
O7    O     O_R   0.430250 0.500030 0.379090 -0.538259
O8    O     O_R   0.569750 0.499970 0.620910 -0.571284
C3    C     C_R   0.407472 0.499630 0.501541 0.841699
C4    C     C_R   0.592244 0.498848 0.498812 0.882384
Cu1   Cu    Cu3+1 0.500010 0.499990 0.643150 1.002111
Cu2   Cu    Cu3+1 0.499990 0.500010 0.356850 1.034001
C5    C     C_R   0.176219 0.385200 0.574666 0.628349
C6    C     C_R   0.822890 0.608771 0.448342 0.630340
O9    O     O_2   0.201221 0.277246 0.587663 -0.500451
O10   O     O_2   0.797763 0.706790 0.396774 -0.500209
N1    N     N_R   0.200810 0.492915 0.544642 -0.446998
N2    N     N_R   0.798133 0.507595 0.500707 -0.446196
C7    C     C_R   0.177382 0.604556 0.525625 0.641340
C8    C     C_R   0.821478 0.401867 0.545196 0.638839
C9    C     C_R   0.275301 0.522356 0.404908 -0.173585
C10   C     C_R   0.723040 0.420614 0.418235 -0.179453
C11   C     C_R   0.325477 0.530235 0.391773 0.327321
C12   C     C_R   0.672846 0.411247 0.420077 0.313946
C13   C     C_R   0.331160 0.455190 0.633458 -0.319997
C14   C     C_R   0.668228 0.587489 0.579548 -0.322690
C15   C     C_R   0.280944 0.457138 0.650207 0.401755
C16   C     C_R   0.718618 0.591353 0.585110 0.404717
C17   C     C_R   0.252677 0.489719 0.533566 0.159377
C18   C     C_R   0.746249 0.508096 0.500960 0.158358
C19   C     C_R   0.100575 0.499920 0.557091 -0.121364
C20   C     C_R   0.898298 0.500288 0.496052 -0.116979
C21   C     C_R   0.125356 0.386784 0.588074 0.000258
C22   C     C_R   0.873966 0.610285 0.449965 -0.000012
C23   C     C_R   0.098175 0.281909 0.635687 0.113340
C24   C     C_R   0.901888 0.714644 0.403749 0.121650
C25   C     C_R   0.126645 0.611589 0.535424 -0.172151
C26   C     C_R   0.871852 0.391746 0.531049 -0.178419
C27   C     C_R   0.354100 0.495719 0.507513 -0.218341
C28   C     C_R   0.645128 0.498933 0.497662 -0.193984
H1    H     H_    0.352475 0.424062 0.721050 0.211158
H2    H     H_    0.646683 0.652153 0.641999 0.194010
C29   C     C_R   0.973498 0.385203 0.541039 -0.003123
C30   C     C_R   0.024946 0.614623 0.518269 -0.004305
C31   C     C_R   0.975239 0.610098 0.485754 0.056683
C32   C     C_R   0.023686 0.388941 0.568440 0.056059
C33   C     C_R   0.949097 0.498595 0.508587 0.044333
C34   C     C_R   0.049654 0.501144 0.546945 0.041682
C35   C     C_R   0.946940 0.271801 0.535059 0.054148
C36   C     C_R   0.050585 0.728567 0.532310 0.051044
C37   C     C_R   0.896261 0.275859 0.544858 0.364217
C38   C     C_R   0.101333 0.726870 0.529999 0.376653
O11   O     O_2   0.795775 0.307959 0.605506 -0.431014
O12   O     O_2   0.203439 0.707757 0.494967 -0.439824
C39   C     C_R   0.047966 0.286989 0.630189 -0.181794
C40   C     C_R   0.951843 0.710901 0.418926 -0.183533
H3    H     H_    0.744704 0.355087 0.357440 0.216105
H4    H     H_    0.253374 0.548092 0.316140 0.212123
H5    H     H_    0.027806 0.210286 0.676416 0.167439
H6    H     H_    0.972736 0.787697 0.375694 0.167103
C41   C     C_3   0.541721 0.040669 0.551242 -0.110901
C42   C     C_3   0.457956 0.959122 0.449181 -0.163664
C43   C     C_3   0.537032 0.958526 0.418717 -0.135433
C44   C     C_3   0.462669 0.041362 0.581679 -0.179914
H7    H     H_    0.567238 0.923007 0.351383 0.202500
H8    H     H_    0.432494 0.077003 0.649053 0.196752
H9    H     H_    0.575731 0.075248 0.595041 0.216965
H10   H     H_    0.423907 0.923721 0.406343 0.204403
C45   C     C_3   0.500053 0.877246 0.500008 -0.060229
C46   C     C_3   0.499656 0.122636 0.500326 -0.045316
C47   C     C_3   0.504709 0.957993 0.631120 0.137455
C48   C     C_3   0.494980 0.041841 0.369243 0.157856
C49   C     C_3   0.499309 0.611120 0.046532 0.459971
C50   C     C_3   0.500704 0.389157 0.953390 0.444708
C51   C     C_3   0.462064 0.555353 0.952195 0.085283
C52   C     C_3   0.537908 0.445338 0.047307 0.040490
N3    N     N_3   0.500040 0.499970 0.858290 -0.231084
N4    N     N_3   0.499960 0.500030 0.141710 -0.231153
C53   C     C_3   0.537570 0.558062 0.944654 -0.172324
C54   C     C_3   0.462306 0.442303 0.055138 -0.142261
H11   H     H_    0.568768 0.607394 0.894860 0.172662
H12   H     H_    0.431093 0.392917 0.104743 0.186581
C55   C     C_3   0.510878 0.910364 0.781440 -0.619612
H13   H     H_    0.516226 0.989392 0.852919 0.294632
H14   H     H_    0.478242 0.859178 0.817466 0.226590
H15   H     H_    0.542771 0.847341 0.786277 0.224810
C56   C     C_3   0.488974 0.089772 0.218992 -0.610225
H16   H     H_    0.484157 0.010982 0.146908 0.291537
H17   H     H_    0.456898 0.152126 0.213796 0.220462
H18   H     H_    0.521508 0.141730 0.183870 0.233691
C57   C     C_3   0.417415 0.621777 0.898053 -0.612321
H19   H     H_    0.399974 0.676917 0.983190 0.283358
H20   H     H_    0.426984 0.685273 0.808854 0.218457
H21   H     H_    0.391281 0.551723 0.864392 0.235765
C58   C     C_3   0.583366 0.382427 0.098888 -0.574766
H22   H     H_    0.603146 0.338473 0.009390 0.248464
H23   H     H_    0.607183 0.453273 0.144157 0.234539
H24   H     H_    0.573824 0.309724 0.178275 0.262027
N5    N     N_R   0.498761 0.738039 0.099239 0.116419
O13   O     O_R   0.458619 0.788125 0.144676 -0.351896
O14   O     O_R   0.537906 0.803994 0.094121 -0.403178
N6    N     N_R   0.502271 0.262349 0.900527 0.118684
O15   O     O_R   0.542793 0.214955 0.853953 -0.379414
O16   O     O_R   0.463716 0.194130 0.906011 -0.404770
N7    N     N_R   0.259464 0.429535 0.786484 0.157260
O17   O     O_R   0.281570 0.356182 0.874770 -0.296242
O18   O     O_R   0.220847 0.488804 0.829572 -0.322653
N8    N     N_R   0.740869 0.677263 0.678545 0.159859
O19   O     O_R   0.718403 0.779293 0.715967 -0.291416
O20   O     O_R   0.781172 0.648247 0.738417 -0.317790
C59   C     C_3   0.120734 0.165677 0.698637 -0.591382
H25   H     H_    0.093363 0.099951 0.743023 0.201614
H26   H     H_    0.141471 0.114829 0.616135 0.309494
H27   H     H_    0.144557 0.191282 0.785660 0.257530
C60   C     C_3   0.880487 0.831935 0.339343 -0.609161
H28   H     H_    0.908428 0.901433 0.308169 0.196377
H29   H     H_    0.860948 0.808639 0.242759 0.256604
H30   H     H_    0.855953 0.878020 0.416970 0.305090
N9    N     N_R   0.651243 0.306582 0.353122 0.116097
O21   O     O_R   0.673155 0.253224 0.246906 -0.322186
O22   O     O_R   0.614513 0.250627 0.412774 -0.403141
N10   N     N_R   0.346137 0.580492 0.263573 0.132560
O23   O     O_R   0.329872 0.545649 0.143132 -0.329487
O24   O     O_R   0.372903 0.679532 0.267711 -0.321891
N11   N     N_R   0.870015 0.160467 0.549172 0.158952
O25   O     O_R   0.842619 0.131991 0.445387 -0.318988
O26   O     O_R   0.877883 0.077719 0.647849 -0.315401
N12   N     N_R   0.126502 0.843211 0.536856 0.153620
O27   O     O_R   0.121894 0.927126 0.437491 -0.340221
O28   O     O_R   0.149501 0.870589 0.649898 -0.313098
C61   C     C_3   0.970062 0.149462 0.489179 -0.807751
H31   H     H_    0.948584 0.106108 0.406006 0.248849
H32   H     H_    0.006360 0.162687 0.440296 0.240135
H33   H     H_    0.971695 0.083288 0.579904 0.251361
C62   C     C_3   0.025727 0.849054 0.576997 -0.802158
H34   H     H_    0.044947 0.891441 0.665438 0.250210
H35   H     H_    0.025719 0.916889 0.487597 0.248077
H36   H     H_    0.988538 0.833730 0.618370 0.244184

loop_
_geom_bond_atom_site_label_1
_geom_bond_atom_site_label_2
_geom_bond_distance
_ccdc_geom_bond_type
C40   H6    1.079862 S    
C44   H8    1.110058 S    
Cu1   N3    2.044400 S    
C50   N6    1.452365 S    
N5    O13   1.299420 A    
C13   C15   1.399709 A    
C50   N3    1.479962 S    
N1    C17   1.441814 S    
C49   N5    1.452844 S    
C41   C43   1.554233 S    
C58   H22   1.108908 S    
C32   C39   1.405614 A    
C31   C33   1.412320 A    
C55   H13   1.104860 S    
O5    C3    1.312509 A    
C62   H35   1.109060 S    
C19   C25   1.411404 A    
C16   N8    1.440074 S    
C20   C26   1.409924 A    
C48   C56   1.522608 S    
N1    C7    1.366332 A    
C10   C12   1.398067 A    
C1    C46   1.465133 S    
C60   H29   1.110107 S    
C52   N4    1.488230 S    
C29   C32   1.425237 A    
C25   C38   1.414532 A    
C23   C59   1.509454 S    
C29   C35   1.426960 A    
C30   C36   1.425739 A    
C42   C45   1.537762 S    
C5    C21   1.415110 A    
O4    Cu1   1.966340 S    
N8    O19   1.301519 A    
C4    C28   1.468443 S    
C37   N11   1.437762 S    
C53   H11   1.110421 S    
C5    N1    1.366806 A    
C24   C60   1.511122 S    
C44   C46   1.537632 S    
C41   H9    1.109866 S    
C43   H7    1.110036 S    
C61   H33   1.108947 S    
N7    O17   1.301624 A    
C12   N9    1.437842 S    
Cu2   N4    2.044400 S    
C56   H17   1.109701 S    
C49   N4    1.482742 S    
C6    N2    1.367688 A    
C59   H27   1.110466 S    
C55   H14   1.107169 S    
N5    O14   1.300303 A    
C51   C57   1.520753 S    
C24   C40   1.398542 A    
Cu1   Cu2   2.720593 S    
N7    O18   1.301277 A    
O2    C2    1.305242 A    
N11   O26   1.301048 A    
N6    O16   1.300192 A    
N6    O15   1.300386 A    
C58   H23   1.108198 S    
C36   C38   1.408939 A    
C51   N3    1.488913 S    
C9    H4    1.083531 S    
C38   N12   1.434962 S    
C62   H36   1.108586 S    
C46   C48   1.534650 S    
C60   H30   1.109432 S    
C11   C27   1.415761 A    
N3    C53   1.487779 S    
C49   C53   1.530493 S    
C41   C47   1.539961 S    
C19   C34   1.419763 A    
C43   C45   1.537245 S    
C44   C47   1.541329 S    
C14   H2    1.084033 S    
C43   C48   1.541347 S    
C35   C37   1.408531 A    
C9    C17   1.401659 A    
N12   O28   1.301417 A    
O7    Cu2   1.943061 S    
C10   C18   1.401592 A    
O7    C3    1.310552 A    
C13   C27   1.406419 A    
C7    C25   1.411233 A    
C29   C33   1.417559 A    
O6    C4    1.311287 A    
C8    C26   1.405460 A    
C52   C58   1.514308 S    
C36   C62   1.517203 S    
C57   H19   1.107220 S    
C56   H18   1.106589 S    
C32   C34   1.414593 A    
C49   C51   1.516788 S    
C47   C55   1.522795 S    
N9    O21   1.301741 A    
O3    Cu2   1.966338 S    
O8    C4    1.304179 A    
N4    C54   1.489718 S    
N2    C8    1.365310 A    
C57   H21   1.103427 S    
C42   H10   1.110251 S    
C61   H31   1.110758 S    
O1    C1    1.304992 A    
O4    C2    1.296876 A    
O1    Cu1   1.972278 S    
C50   C54   1.532658 S    
N11   O25   1.301497 A    
C58   H24   1.104651 S    
C12   C28   1.412135 A    
N10   O24   1.300452 A    
C59   H25   1.110923 S    
N2    C18   1.440793 S    
C55   H15   1.109737 S    
C5    O9    1.347510 S    
C30   C31   1.423415 A    
C20   C33   1.418658 A    
O6    Cu2   1.953513 S    
C21   C23   1.419344 A    
C6    O10   1.347216 S    
C50   C52   1.515350 S    
C2    C45   1.464258 S    
O3    C1    1.297553 A    
O8    Cu1   1.943061 S    
C7    O12   1.348958 S    
C39   H5    1.078967 S    
C8    O11   1.349584 S    
C62   H34   1.110753 S    
C30   C34   1.415086 A    
C54   H12   1.110288 S    
C22   C24   1.422225 A    
N12   O27   1.300982 A    
C14   C16   1.402706 A    
C15   C17   1.411933 A    
C60   H28   1.110845 S    
C6    C22   1.419145 A    
C31   C40   1.405607 A    
C16   C18   1.413761 A    
C35   C61   1.516906 S    
C52   C53   1.539658 S    
C51   C54   1.544035 S    
C10   H3    1.083321 S    
C14   C28   1.403349 A    
C19   C21   1.417338 A    
C3    C27   1.482818 S    
C20   C22   1.420438 A    
C9    C11   1.399117 A    
O2    Cu2   1.972277 S    
C11   N10   1.433127 S    
N8    O20   1.301260 A    
N9    O22   1.300655 A    
C13   H1    1.080338 S    
O5    Cu1   1.953513 S    
C41   C46   1.537883 S    
C57   H20   1.106945 S    
C26   C37   1.413176 A    
C45   C47   1.534518 S    
C61   H32   1.108733 S    
C42   C48   1.540728 S    
C15   N7    1.440027 S    
C56   H16   1.104321 S    
C23   C39   1.397203 A    
C42   C44   1.554701 S    
N10   O23   1.301271 A    
C59   H26   1.107345 S    
