data_mof_unit_18383.cif
_audit_creation_date              2012-12-11T16:26:35-0500
_audit_creation_method            fapswitch 2.2
_symmetry_space_group_name_H-M    P1
_symmetry_Int_Tables_number       1
_space_group_crystal_system       triclinic
_cell_length_a                    14.05844
_cell_length_b                    14.07233
_cell_length_c                    31.824006
_cell_angle_alpha                 90.082755
_cell_angle_beta                  89.94724
_cell_angle_gamma                 119.774473
_cell_volume                      5464.75426926

loop_
_atom_site_label
_atom_site_type_symbol
_atom_type_description
_atom_site_fract_x
_atom_site_fract_y
_atom_site_fract_z
_atom_type_partial_charge
C1    C     C_R   0.567275 0.444391 0.810424 0.548778
C2    C     C_R   0.444371 0.567364 0.189531 0.551438
C3    C     C_3   0.884016 0.674924 0.657569 -0.048651
C4    C     C_3   0.651665 0.947689 0.814888 -0.134210
C5    C     C_3   0.288925 0.279636 0.667536 -0.124628
C6    C     C_3   0.709719 0.988202 0.331491 -0.116126
C7    C     C_3   0.961888 0.669565 0.184112 -0.124576
C8    C     C_3   0.269141 0.292486 0.334735 -0.108925
C9    C     C_3   0.700648 0.055214 0.185144 -0.130507
C10   C     C_3   0.011412 0.725585 0.327446 -0.114069
C11   C     C_3   0.348171 0.294800 0.183096 -0.129416
C12   C     C_3   0.002859 0.712349 0.072103 -0.221334
C13   C     C_R   0.433457 0.878335 0.310016 0.557941
C14   C     C_3   0.113272 0.803086 0.055424 -0.266623
C15   C     C_3   0.113671 0.911001 0.049839 -0.461343
C16   C     C_3   0.652479 0.930853 0.439805 -0.228443
C17   C     C_3   0.599736 0.815222 0.458120 -0.286336
C18   C     C_3   0.685871 0.796801 0.479685 -0.475465
C19   C     C_3   0.290959 0.291589 0.071757 -0.232035
C20   C     C_3   0.180574 0.288922 0.072664 -0.256241
C21   C     C_3   0.094786 0.197221 0.045472 -0.490709
C22   C     C_3   0.056027 0.725127 0.436768 -0.225647
C23   C     C_3   0.170012 0.777141 0.456752 -0.285558
C24   C     C_R   0.123180 0.555963 0.189484 0.550468
C25   C     C_3   0.198063 0.883313 0.479121 -0.482780
C26   C     C_3   0.710834 0.002769 0.072575 -0.232459
C27   C     C_3   0.715587 0.896245 0.073411 -0.257919
C28   C     C_3   0.810900 0.904475 0.047690 -0.490742
C29   C     C_3   0.282840 0.359801 0.442151 -0.224152
C30   C     C_3   0.234210 0.425911 0.461608 -0.285747
C31   C     C_3   0.134035 0.352859 0.488027 -0.476553
C32   C     C_3   0.709987 0.043285 0.560850 -0.217034
C33   C     C_3   0.766055 0.150710 0.536228 -0.277415
C34   C     C_3   0.870643 0.167401 0.515266 -0.478948
C35   C     C_1   0.996368 0.535607 0.019359 -0.027346
C36   C     C_3   0.998067 0.709165 0.927913 -0.230523
C37   C     C_3   0.891969 0.714762 0.925830 -0.248696
C38   C     C_3   0.894877 0.801829 0.955147 -0.490517
C39   C     C_3   0.351530 0.285819 0.559480 -0.226208
C40   C     C_3   0.413397 0.233283 0.539577 -0.284491
C41   C     C_3   0.336840 0.133779 0.513691 -0.477528
C42   C     C_3   0.709199 0.997911 0.927555 -0.232150
C43   C     C_3   0.819237 0.105101 0.926846 -0.254610
C44   C     C_3   0.904601 0.100101 0.954760 -0.492177
C45   C     C_3   0.000801 0.699637 0.568712 -0.233282
C46   C     C_1   0.501209 0.986158 0.481858 -0.043894
C47   C     C_3   0.895159 0.691335 0.551149 -0.297098
C48   C     C_3   0.908737 0.804118 0.542898 -0.468820
C49   C     C_3   0.289658 0.292744 0.927704 -0.231970
C50   C     C_3   0.287711 0.182828 0.927818 -0.257837
C51   C     C_3   0.194426 0.097131 0.954440 -0.491838
C52   C     C_3   0.953558 0.274671 0.149183 -0.120532
C53   C     C_3   0.263830 0.005659 0.365354 -0.107722
C54   C     C_3   0.726746 0.685543 0.146455 -0.124034
C55   C     C_3   0.993546 0.261267 0.370596 -0.105917
C56   C     C_3   0.303592 0.030074 0.145625 -0.103159
C57   C     C_1   0.462377 0.466751 0.018585 -0.029455
C58   C     C_3   0.740938 0.735494 0.363507 -0.106748
C59   C     C_3   0.257943 0.000332 0.633354 -0.084168
C60   C     C_3   0.039456 0.315200 0.852282 -0.122812
C61   C     C_3   0.595244 0.700253 0.676122 -0.127965
C62   C     C_3   0.274381 0.958776 0.852120 -0.119949
C63   C     C_3   0.032969 0.299289 0.641959 -0.109267
C64   C     C_3   0.683263 0.724562 0.850906 -0.122044
C65   C     C_1   0.984083 0.517562 0.479415 -0.037979
C66   C     C_1   0.534587 0.996345 0.018671 -0.029989
C67   C     C_1   0.496265 0.496268 0.481198 -0.035507
C68   C     C_1   0.503261 0.989701 0.519637 -0.040484
C69   C     C_R   0.877292 0.432391 0.689595 0.561183
C70   C     C_1   0.991368 0.532889 0.981677 -0.031263
C71   C     C_1   0.498832 0.494582 0.518957 -0.039727
C72   C     C_1   0.537269 0.001615 0.980992 -0.030209
C73   C     C_1   0.980467 0.515757 0.517146 -0.039630
C74   C     C_1   0.464757 0.464286 0.980920 -0.029343
C75   C     C_R   0.935244 0.473414 0.851210 0.007002
C76   C     C_R   0.534412 0.059165 0.649824 0.015346
C77   C     C_R   0.525729 0.462782 0.850899 0.007614
C78   C     C_R   0.933611 0.469580 0.648364 0.023754
C79   C     C_R   0.537716 0.063238 0.850888 0.009191
C80   C     C_R   0.555734 0.122881 0.810435 0.551065
C81   C     C_R   0.525285 0.465397 0.650096 0.001824
C82   C     C_R   0.474568 0.937666 0.350399 0.024833
C83   C     C_R   0.063335 0.538584 0.149077 0.007913
C84   C     C_R   0.464234 0.525831 0.350405 0.023720
C85   C     C_R   0.472704 0.935293 0.148793 0.008928
C86   C     C_R   0.058832 0.537932 0.349935 0.023345
C87   C     C_R   0.462433 0.526359 0.148849 0.009738
C88   C     C_R   0.960228 0.577814 0.867005 0.244067
C89   C     C_R   0.622450 0.058917 0.628130 0.223069
C90   C     C_R   0.421278 0.383976 0.866706 0.243964
C91   C     C_R   0.566680 0.445064 0.690037 0.537461
C92   C     C_R   0.958030 0.572554 0.631597 0.218935
C93   C     C_R   0.616920 0.037591 0.866620 0.244908
C94   C     C_R   0.440621 0.376749 0.627818 0.227390
C95   C     C_R   0.558859 0.931133 0.372294 0.222917
C96   C     C_R   0.041335 0.620021 0.133006 0.239149
C97   C     C_R   0.373908 0.444678 0.373293 0.220778
C98   C     C_R   0.578152 0.962713 0.133281 0.244347
C99   C     C_R   0.060042 0.628535 0.370307 0.221377
C100  C     C_R   0.383279 0.422300 0.132901 0.242649
C101  C     C_R   0.981339 0.601356 0.910363 0.013599
C102  C     C_R   0.876932 0.432623 0.810478 0.553225
C103  C     C_R   0.612318 0.032596 0.585054 0.008891
C104  C     C_R   0.397069 0.383354 0.909932 0.013949
C105  C     C_R   0.978306 0.592286 0.587856 0.013457
C106  C     C_R   0.617996 0.014477 0.909863 0.014048
C107  C     C_R   0.429626 0.385978 0.584325 0.011824
C108  C     C_R   0.569671 0.948537 0.415899 0.014232
C109  C     C_R   0.014673 0.618888 0.090100 0.008710
C110  C     C_R   0.383721 0.433531 0.416680 0.013008
C111  C     C_R   0.602405 0.985055 0.090008 0.015191
C112  C     C_R   0.033230 0.622326 0.413169 0.012377
C113  C     C_R   0.555106 0.121693 0.689830 0.558814
C114  C     C_R   0.381995 0.398651 0.089588 0.013957
C115  C     C_R   0.984505 0.522449 0.936747 -0.050128
C116  C     C_R   0.511805 0.999619 0.564668 -0.044944
C117  C     C_R   0.475113 0.466678 0.936040 -0.049154
C118  C     C_R   0.976946 0.509798 0.562234 -0.044849
C119  C     C_R   0.534753 0.009747 0.936085 -0.049473
C120  C     C_R   0.497853 0.486482 0.564036 -0.049218
C121  C     C_R   0.502236 0.981192 0.436710 -0.045525
C122  C     C_R   0.005542 0.533481 0.064214 -0.046901
C123  C     C_R   0.486448 0.495630 0.436177 -0.045537
C124  C     C_R   0.444912 0.566789 0.310087 0.559657
C125  C     C_R   0.523468 0.988140 0.063566 -0.047508
C126  C     C_R   0.995104 0.522551 0.434440 -0.043704
C127  C     C_R   0.465062 0.476902 0.063480 -0.048955
C128  C     C_R   0.975575 0.427051 0.919797 -0.136056
C129  C     C_R   0.420175 0.981987 0.587727 -0.148245
C130  C     C_R   0.570366 0.552326 0.918984 -0.137265
C131  C     C_R   0.970740 0.417310 0.580279 -0.147521
C132  C     C_R   0.448707 0.019409 0.919080 -0.137092
C133  C     C_R   0.568526 0.578520 0.587544 -0.132792
C134  C     C_R   0.434836 0.008469 0.413575 -0.146889
C135  C     C_R   0.432387 0.876708 0.189464 0.551967
C136  C     C_R   0.013523 0.446720 0.081401 -0.137365
C137  C     C_R   0.579345 0.560672 0.412068 -0.146045
C138  C     C_R   0.426694 0.976506 0.080288 -0.140972
C139  C     C_R   0.976366 0.428700 0.412627 -0.144977
C140  C     C_R   0.551055 0.571855 0.080596 -0.136446
C141  C     C_R   0.953296 0.402840 0.877264 0.219859
C142  C     C_R   0.429797 0.011775 0.630540 0.239225
C143  C     C_R   0.595487 0.552347 0.876653 0.219244
C144  C     C_R   0.950029 0.396164 0.622977 0.229338
C145  C     C_R   0.448105 0.043718 0.876693 0.219479
C146  C     C_R   0.121780 0.555618 0.310173 0.560018
C147  C     C_R   0.580435 0.569706 0.630659 0.208622
C148  C     C_R   0.419214 0.986331 0.370100 0.241649
C149  C     C_R   0.039937 0.447211 0.123654 0.219410
C150  C     C_R   0.569580 0.578457 0.369040 0.239533
C151  C     C_R   0.401028 0.951758 0.122615 0.212713
C152  C     C_R   0.009146 0.434876 0.370233 0.241750
C153  C     C_R   0.551821 0.596317 0.123066 0.220452
C154  C     C_3   0.053084 0.702936 0.816115 -0.123234
C155  C     C_3   0.719564 0.006800 0.669442 -0.102993
C156  C     C_3   0.296060 0.348947 0.815385 -0.132050
Cr1   Cr    Cr6+3 0.504240 0.249200 0.750000 1.084048
Cr2   Cr    Cr6+3 0.744960 0.495760 0.750000 1.049154
Cr3   Cr    Cr6+3 0.750800 0.255040 0.750000 1.080258
Cr4   Cr    Cr6+3 0.249200 0.504240 0.250000 1.080647
Cr5   Cr    Cr6+3 0.495760 0.744960 0.250000 1.081160
Cr6   Cr    Cr6+3 0.255040 0.750800 0.250000 1.078977
H1    H     H_    0.004493 0.380200 0.061430 0.125646
H2    H     H_    0.383557 0.013077 0.939249 0.124982
H3    H     H_    0.821523 0.810405 0.949572 0.139900
H4    H     H_    0.881095 0.735752 0.893326 0.249828
H5    H     H_    0.820524 0.634287 0.934428 0.188164
H6    H     H_    0.027374 0.721379 0.960857 0.138327
H7    H     H_    0.063244 0.778125 0.909747 0.135058
H8    H     H_    0.272434 0.070505 0.534050 0.137372
H9    H     H_    0.297597 0.156049 0.488280 0.139698
H10   H     H_    0.385532 0.100414 0.499170 0.154358
H11   H     H_    0.479953 0.292488 0.518800 0.172720
H12   H     H_    0.451194 0.207824 0.564627 0.182825
H13   H     H_    0.976985 0.358027 0.560699 0.125892
H14   H     H_    0.284249 0.224762 0.579480 0.156499
H15   H     H_    0.310861 0.309305 0.535316 0.127315
H16   H     H_    0.881432 0.096547 0.988276 0.149029
H17   H     H_    0.912266 0.027425 0.946767 0.148578
H18   H     H_    0.985279 0.174952 0.949927 0.141098
H19   H     H_    0.850944 0.120536 0.894266 0.254592
H20   H     H_    0.808268 0.174418 0.937426 0.183159
H21   H     H_    0.690746 0.965898 0.960163 0.136752
H22   H     H_    0.715801 0.934995 0.908696 0.137499
H23   H     H_    0.948390 0.860068 0.569927 0.142201
H24   H     H_    0.628734 0.617544 0.939097 0.125743
H25   H     H_    0.957654 0.840468 0.514028 0.139408
H26   H     H_    0.826798 0.795341 0.538674 0.144194
H27   H     H_    0.871229 0.643207 0.521525 0.161606
H28   H     H_    0.826402 0.647559 0.573537 0.165871
H29   H     H_    0.039304 0.766207 0.592283 0.163922
H30   H     H_    0.062151 0.722453 0.543326 0.137898
H31   H     H_    0.209042 0.120502 0.988075 0.147874
H32   H     H_    0.115047 0.088769 0.944426 0.149761
H33   H     H_    0.190360 0.016718 0.950634 0.143068
H34   H     H_    0.275682 0.151728 0.895206 0.257799
H35   H     H_    0.049644 0.645158 0.791522 0.123683
H36   H     H_    0.366618 0.193629 0.939994 0.178811
H37   H     H_    0.275475 0.312290 0.960098 0.135983
H38   H     H_    0.220401 0.285466 0.908533 0.138739
H39   H     H_    0.898027 0.243537 0.121514 0.091116
H40   H     H_    0.914774 0.296775 0.175072 0.112101
H41   H     H_    0.966105 0.207224 0.160563 0.143262
H42   H     H_    0.219240 0.926261 0.382088 0.160931
H43   H     H_    0.207425 0.006419 0.341182 0.127602
H44   H     H_    0.284646 0.075467 0.386876 0.082634
H45   H     H_    0.759692 0.668480 0.117350 0.091174
H46   H     H_    0.128393 0.731249 0.835441 0.073244
H47   H     H_    0.707973 0.621131 0.170492 0.111084
H48   H     H_    0.791863 0.764393 0.159442 0.140754
H49   H     H_    0.065977 0.296375 0.391693 0.146500
H50   H     H_    0.001732 0.204203 0.348792 0.126270
H51   H     H_    0.916491 0.212403 0.388542 0.084528
H52   H     H_    0.322427 0.081530 0.116967 0.086642
H53   H     H_    0.364435 0.075409 0.170826 0.105532
H54   H     H_    0.222052 0.012721 0.157186 0.147949
H55   H     H_    0.704494 0.778025 0.380960 0.163246
H56   H     H_    0.795572 0.792819 0.339083 0.128205
H57   H     H_    0.059068 0.775513 0.799969 0.137257
H58   H     H_    0.792629 0.717034 0.384526 0.080876
H59   H     H_    0.204364 0.010028 0.656506 0.141311
H60   H     H_    0.293456 0.073647 0.612748 0.142301
H61   H     H_    0.205457 0.924779 0.615152 0.095918
H62   H     H_    0.093947 0.338485 0.880254 0.091628
H63   H     H_    0.079496 0.376026 0.826606 0.106055
H64   H     H_    0.026797 0.235265 0.840805 0.142099
H65   H     H_    0.549115 0.726680 0.655244 0.109721
H66   H     H_    0.654337 0.772421 0.694644 0.117182
H67   H     H_    0.538559 0.637558 0.698896 0.106802
H68   H     H_    0.799836 0.035793 0.685064 0.138375
H69   H     H_    0.242598 0.905624 0.880387 0.089979
H70   H     H_    0.294681 0.916925 0.826854 0.112296
H71   H     H_    0.207922 0.972361 0.840247 0.144979
H72   H     H_    0.018613 0.222682 0.657436 0.128660
H73   H     H_    0.091682 0.369030 0.661886 0.098831
H74   H     H_    0.069303 0.302657 0.610548 0.088535
H75   H     H_    0.659496 0.756887 0.878474 0.092175
H76   H     H_    0.622683 0.702990 0.825017 0.103648
H77   H     H_    0.763351 0.790955 0.839386 0.141673
H78   H     H_    0.706377 0.939554 0.647576 0.092430
H79   H     H_    0.655432 0.975107 0.694328 0.088726
H80   H     H_    0.353800 0.402421 0.790720 0.103482
H81   H     H_    0.393334 0.044839 0.429789 0.111135
H82   H     H_    0.266601 0.396019 0.834189 0.076037
H83   H     H_    0.224050 0.281680 0.799311 0.125266
H84   H     H_    0.807416 0.604569 0.644974 0.161324
H85   H     H_    0.905564 0.749758 0.639195 0.115796
H86   H     H_    0.866703 0.690883 0.690035 0.174887
H87   H     H_    0.599298 0.953424 0.790026 0.108038
H88   H     H_    0.603255 0.871278 0.833360 0.076110
H89   H     H_    0.718943 0.941917 0.799055 0.122313
H90   H     H_    0.236611 0.199369 0.682835 0.128034
H91   H     H_    0.237063 0.293186 0.644668 0.074182
H92   H     H_    0.615941 0.630498 0.060451 0.124878
H93   H     H_    0.318611 0.343461 0.692521 0.103018
H94   H     H_    0.764129 0.962050 0.316382 0.122301
H95   H     H_    0.760220 0.054946 0.354025 0.096766
H96   H     H_    0.677798 0.019740 0.306342 0.119748
H97   H     H_    0.962325 0.615358 0.209380 0.110480
H98   H     H_    0.884161 0.625963 0.165998 0.071365
H99   H     H_    0.964110 0.741580 0.199354 0.126397
H100  H     H_    0.188067 0.243479 0.319488 0.126833
H101  H     H_    0.278822 0.238865 0.357947 0.090314
H102  H     H_    0.332656 0.317743 0.309767 0.118479
H103  H     H_    0.939956 0.352037 0.429550 0.108929
H104  H     H_    0.641688 0.048203 0.209888 0.112817
H105  H     H_    0.726661 0.131140 0.166528 0.078321
H106  H     H_    0.774287 0.063059 0.201138 0.126811
H107  H     H_    0.041696 0.805729 0.311651 0.122326
H108  H     H_    0.943697 0.713277 0.348849 0.099569
H109  H     H_    0.979844 0.661205 0.302666 0.117137
H110  H     H_    0.405114 0.351838 0.207226 0.111120
H111  H     H_    0.391393 0.262875 0.163250 0.079358
H112  H     H_    0.280981 0.224196 0.199798 0.127981
H113  H     H_    0.049191 0.901210 0.027396 0.144170
H114  H     H_    0.367540 0.981144 0.059834 0.123221
H115  H     H_    0.099655 0.939928 0.080487 0.163933
H116  H     H_    0.194402 0.974049 0.037452 0.131912
H117  H     H_    0.179448 0.816503 0.077621 0.236245
H118  H     H_    0.132018 0.777775 0.024883 0.142030
H119  H     H_    0.941102 0.682484 0.046446 0.118285
H120  H     H_    0.971005 0.745719 0.096580 0.168309
H121  H     H_    0.746265 0.799589 0.456524 0.132521
H122  H     H_    0.729889 0.860955 0.503708 0.139025
H123  H     H_    0.646171 0.715985 0.495347 0.153792
H124  H     H_    0.535992 0.803516 0.481465 0.166927
H125  H     H_    0.658444 0.599965 0.427401 0.116497
H126  H     H_    0.559950 0.753617 0.432726 0.183953
H127  H     H_    0.722537 0.945410 0.419390 0.154209
H128  H     H_    0.688140 0.992089 0.465257 0.135359
H129  H     H_    0.116441 0.215391 0.011795 0.149013
H130  H     H_    0.088762 0.117778 0.053728 0.147804
H131  H     H_    0.013730 0.190945 0.050664 0.142073
H132  H     H_    0.149830 0.274739 0.105377 0.256465
H133  H     H_    0.190633 0.368282 0.061519 0.180760
H134  H     H_    0.309405 0.278343 0.039069 0.137072
H135  H     H_    0.284819 0.222101 0.090385 0.136559
H136  H     H_    0.342292 0.947905 0.571644 0.107578
H137  H     H_    0.206417 0.946354 0.456260 0.133879
H138  H     H_    0.134354 0.871487 0.502205 0.144956
H139  H     H_    0.276152 0.912083 0.496165 0.153030
H140  H     H_    0.173782 0.720001 0.479852 0.164755
H141  H     H_    0.232761 0.794419 0.432155 0.184587
H142  H     H_    0.050766 0.785001 0.415622 0.153366
H143  H     H_    0.992755 0.705497 0.461288 0.130441
H144  H     H_    0.797231 0.911619 0.013813 0.149629
H145  H     H_    0.889166 0.976182 0.057867 0.151649
H146  H     H_    0.816695 0.829310 0.052335 0.140155
H147  H     H_    0.981187 0.368126 0.940068 0.125833
H148  H     H_    0.726852 0.878453 0.106295 0.257126
H149  H     H_    0.637891 0.827336 0.061012 0.179373
H150  H     H_    0.724371 0.034575 0.039946 0.135742
H151  H     H_    0.779287 0.066109 0.091536 0.139425
H152  H     H_    0.073194 0.283655 0.468710 0.135474
H153  H     H_    0.156794 0.320032 0.515510 0.139876
H154  H     H_    0.096887 0.401250 0.499617 0.154883
H155  H     H_    0.295648 0.492532 0.481833 0.168120
H156  H     H_    0.209840 0.463723 0.436199 0.182974
H157  H     H_    0.219927 0.292695 0.422616 0.152465
H158  H     H_    0.617750 0.656860 0.572234 0.129153
H159  H     H_    0.304349 0.318365 0.466661 0.129179
H160  H     H_    0.932503 0.178490 0.539341 0.157224
H161  H     H_    0.854901 0.096651 0.495169 0.135902
H162  H     H_    0.903222 0.241478 0.495311 0.136168
H163  H     H_    0.710738 0.151524 0.511583 0.162862
H164  H     H_    0.786107 0.220027 0.557887 0.200786
H165  H     H_    0.770802 0.039956 0.582111 0.182426
H166  H     H_    0.682265 0.972573 0.539316 0.123933
H167  H     H_    0.893577 0.777032 0.988301 0.146550
H168  H     H_    0.969521 0.881984 0.949358 0.148330
O1    O     O_R   0.480350 0.140770 0.796330 -0.452573
O2    O     O_R   0.140770 0.480350 0.203670 -0.453413
O3    O     O_R   0.519650 0.660420 0.296330 -0.448781
O4    O     O_R   0.339580 0.859230 0.203670 -0.453454
O5    O     O_R   0.514930 0.348530 0.793250 -0.460987
O6    O     O_R   0.833600 0.485070 0.706750 -0.497593
O7    O     O_R   0.651470 0.166400 0.793250 -0.463694
O8    O     O_R   0.514930 0.348530 0.706750 -0.461396
O9    O     O_R   0.833600 0.485070 0.793250 -0.455207
O10   O     O_R   0.651470 0.166400 0.706750 -0.467735
O11   O     O_R   0.348530 0.514930 0.293250 -0.473088
O12   O     O_R   0.660420 0.519650 0.703670 -0.508420
O13   O     O_R   0.485070 0.833600 0.206750 -0.463014
O14   O     O_R   0.166400 0.651470 0.293250 -0.473573
O15   O     O_R   0.348530 0.514930 0.206750 -0.462971
O16   O     O_R   0.485070 0.833600 0.293250 -0.473032
O17   O     O_R   0.166400 0.651470 0.206750 -0.463327
O18   O     O_3   0.666667 0.333333 0.750000 -0.284102
O19   O     O_3   0.333333 0.666667 0.250000 -0.289172
O20   O     O_3   0.957372 0.655071 0.840988 -0.540375
O21   O     O_3   0.722608 0.095431 0.647603 -0.500630
O22   O     O_3   0.344693 0.302839 0.840898 -0.536719
O23   O     O_R   0.859230 0.339580 0.796330 -0.458638
O24   O     O_3   0.973830 0.656235 0.658902 -0.586229
O25   O     O_3   0.698018 0.041658 0.840725 -0.537529
O26   O     O_3   0.376596 0.276735 0.647164 -0.546529
O27   O     O_3   0.624143 0.897191 0.352172 -0.557811
O28   O     O_3   0.054637 0.706512 0.157919 -0.518980
O29   O     O_3   0.272355 0.383862 0.354517 -0.547469
O30   O     O_3   0.655860 0.960996 0.159459 -0.541765
O31   O     O_3   0.098948 0.727711 0.349882 -0.555743
O32   O     O_3   0.302353 0.345661 0.158716 -0.539729
O33   O     O_3   0.056115 0.364159 0.138350 -0.541224
O34   O     O_R   0.480350 0.140770 0.703670 -0.444865
O35   O     O_3   0.358453 0.018024 0.345012 -0.542671
O36   O     O_3   0.633901 0.695565 0.137861 -0.539609
O37   O     O_3   0.988452 0.342866 0.346622 -0.537436
O38   O     O_3   0.299133 0.929936 0.136683 -0.521628
O39   O     O_3   0.660504 0.639511 0.343476 -0.543302
O40   O     O_3   0.339446 0.990228 0.655432 -0.531093
O41   O     O_3   0.936798 0.303515 0.862617 -0.539769
O42   O     O_3   0.654391 0.662265 0.652364 -0.579858
O43   O     O_3   0.365662 0.061002 0.862027 -0.540098
O44   O     O_3   0.931755 0.296631 0.638398 -0.494165
O45   O     O_R   0.660420 0.519650 0.796330 -0.456185
O46   O     O_3   0.695092 0.634217 0.862061 -0.538809
O47   O     O_R   0.859230 0.339580 0.703670 -0.449629
O48   O     O_R   0.140770 0.480350 0.296330 -0.443371
O49   O     O_R   0.519650 0.660420 0.203670 -0.452865
O50   O     O_R   0.339580 0.859230 0.296330 -0.449557

loop_
_geom_bond_atom_site_label_1
_geom_bond_atom_site_label_2
_ccdc_geom_bond_type
C2    O15   A    
C1    C77   S    
C11   H110  S    
C7    H97   S    
C19   C20   S    
Cr3   O7    S    
C156  O22   S    
C11   O32   S    
C50   H36   S    
Cr1   O8    S    
Cr5   O16   S    
Cr6   O4    S    
C61   H65   S    
C33   H164  S    
C29   H159  S    
C48   H26   S    
C156  H83   S    
C58   H55   S    
C137  H125  S    
C139  C152  A    
C36   H6    S    
C53   H44   S    
C120  C133  A    
C38   H168  S    
Cr5   O49   S    
C11   H111  S    
C56   H53   S    
C118  C131  A    
C45   H29   S    
C54   H47   S    
C66   C72   T    
C81   C147  A    
C34   H161  S    
C111  C125  A    
C113  O34   A    
C87   C153  A    
C90   O22   S    
C8    H102  S    
C64   H76   S    
C151  O38   S    
C61   O42   S    
C9    O30   S    
C44   H17   S    
C9    H106  S    
C45   C47   S    
C94   C107  A    
C8    O29   S    
C80   O1    A    
C143  O46   S    
C4    O25   S    
C129  C142  A    
C13   C82   S    
C150  O39   S    
C19   H135  S    
C22   H142  S    
C43   C44   S    
C29   H157  S    
C37   C38   S    
C86   C152  A    
C13   O16   A    
C27   H148  S    
C100  C114  A    
C32   H166  S    
C15   H113  S    
C86   C99   A    
C42   C106  S    
C122  C136  A    
C156  H80   S    
C68   C116  S    
C155  H78   S    
C62   H70   S    
C10   H109  S    
C125  C138  A    
C105  C118  A    
C3    H86   S    
C107  C120  A    
C39   C40   S    
Cr3   O47   S    
Cr2   O18   S    
C104  C117  A    
C9    H104  S    
C142  O40   S    
C28   H144  S    
C15   H116  S    
C69   O6    A    
C67   C123  S    
C10   O31   S    
C144  O44   S    
C70   C115  S    
C96   C109  A    
C52   H41   S    
C78   C92   A    
C103  C116  A    
C51   H33   S    
C40   H12   S    
C146  O48   A    
C25   H138  S    
C91   O12   A    
C60   H64   S    
C95   C108  A    
C128  H147  S    
C20   C21   S    
C20   H133  S    
C22   C23   S    
Cr6   O50   S    
C154  H57   S    
C26   C111  S    
C31   H154  S    
C89   O21   S    
C38   H3    S    
C16   H127  S    
C69   O47   A    
C49   C104  S    
C41   H9    S    
C147  O42   S    
C6    H95   S    
C132  C145  A    
C36   C37   S    
Cr3   O18   S    
C30   H156  S    
C24   O17   A    
C5    H91   S    
C156  H82   S    
C63   H74   S    
C58   H58   S    
C102  O23   A    
C18   H121  S    
C10   H107  S    
C133  C147  A    
C3    H84   S    
C56   H52   S    
C76   C89   A    
C139  H103  S    
C89   C103  A    
C28   H146  S    
C5    H90   S    
C45   C105  S    
Cr4   O19   S    
C126  C139  A    
C21   H131  S    
C51   H31   S    
C44   H16   S    
Cr2   O9    S    
Cr6   O17   S    
C16   C17   S    
C60   O41   S    
C42   H22   S    
C43   H19   S    
C115  C128  A    
C36   C101  S    
C77   C143  A    
C46   C68   T    
C29   C30   S    
C130  C143  A    
C59   H60   S    
C78   C144  A    
C93   C106  A    
C17   C18   S    
C2    C87   S    
C21   H130  S    
C2    O49   A    
C31   H152  S    
C22   C112  S    
C52   H39   S    
C27   H149  S    
C137  C150  A    
C127  C140  A    
C87   C100  A    
C49   H37   S    
C6    O27   S    
C13   O50   A    
C82   C95   A    
C112  C126  A    
C146  O14   A    
Cr3   O10   S    
C57   C127  S    
C58   O39   S    
C82   C148  A    
C123  C137  A    
Cr1   O5    S    
C33   H163  S    
C65   C126  S    
C5    H93   S    
C47   H28   S    
C76   C113  S    
C48   H23   S    
C63   H72   S    
C17   H124  S    
C58   H56   S    
C83   C96   A    
C7    H99   S    
C52   H40   S    
C99   O31   S    
C102  O9    A    
C56   H54   S    
C54   H48   S    
C49   C50   S    
C34   H162  S    
C14   C15   S    
C24   O2    A    
C84   C150  A    
C14   H117  S    
Cr4   O2    S    
C106  C119  A    
C20   H132  S    
C108  C121  A    
C44   H18   S    
C136  C149  A    
Cr5   O13   S    
C37   H5    S    
Cr5   O3    S    
C26   C27   S    
C91   O8    A    
Cr1   O1    S    
C84   C97   A    
C24   C83   S    
C4    H87   S    
C59   O40   S    
C30   C31   S    
C1    O5    A    
C53   O35   S    
C55   H50   S    
C50   H34   S    
Cr1   O18   S    
C80   O7    A    
C26   H150  S    
C154  O20   S    
C61   H67   S    
C73   C118  S    
C121  C134  A    
C128  C141  A    
C100  O32   S    
C12   H119  S    
C62   H71   S    
C3    O24   S    
C7    H98   S    
C3    H85   S    
C98   O30   S    
C86   C146  S    
C39   H15   S    
C26   H151  S    
C77   C90   A    
C61   H66   S    
Cr2   O45   S    
C29   C110  S    
C15   H115  S    
C133  H158  S    
C48   H25   S    
C17   H126  S    
C19   C114  S    
C56   O38   S    
C135  O13   A    
C38   H167  S    
C132  H2    S    
C11   H112  S    
C55   H51   S    
C96   O28   S    
Cr2   O12   S    
C9    H105  S    
C45   H30   S    
C145  O43   S    
Cr2   O6    S    
C25   H137  S    
C50   C51   S    
C32   C103  S    
C6    H94   S    
C35   C122  S    
C8    H101  S    
C64   H75   S    
C59   H61   S    
C155  H79   S    
C42   H21   S    
C140  H92   S    
C42   C43   S    
Cr4   O48   S    
C31   H153  S    
C16   H128  S    
C4    H89   S    
C7    O28   S    
C119  C132  A    
C41   H8    S    
C155  H68   S    
Cr4   O15   S    
C6    H96   S    
C32   C33   S    
C23   H140  S    
Cr6   O14   S    
C114  C127  A    
C149  O33   S    
C131  H13   S    
C32   H165  S    
C67   C71   T    
C63   H73   S    
C81   C91   S    
C92   C105  A    
C18   H122  S    
C62   H69   S    
C10   H108  S    
C63   O44   S    
C154  H46   S    
C131  C144  A    
C83   C149  A    
C136  H1    S    
Cr5   O19   S    
C81   C94   A    
C5    O26   S    
C94   O26   S    
C85   C151  A    
C88   C101  A    
C79   C145  A    
C18   H123  S    
C39   C107  S    
C36   H7    S    
C97   O29   S    
C71   C120  S    
C22   H143  S    
Cr4   O11   S    
C79   C93   A    
C124  O11   A    
Cr3   O23   S    
C40   H11   S    
C110  C123  A    
C109  C122  A    
C148  O35   S    
C25   H139  S    
C129  H136  S    
C65   C73   T    
C60   H63   S    
C64   H77   S    
C85   C98   A    
C59   H59   S    
C55   O37   S    
C116  C129  A    
C35   C70   T    
C75   C102  S    
C53   H43   S    
C46   C121  S    
C21   H129  S    
C75   C141  A    
C155  O21   S    
C64   O46   S    
Cr6   O19   S    
C34   H160  S    
C69   C78   S    
C60   H62   S    
C12   C109  S    
C41   H10   S    
C53   H42   S    
C19   H134  S    
C92   O24   S    
C30   H155  S    
C154  H35   S    
C95   O27   S    
C138  H114  S    
C57   C74   T    
C47   H27   S    
Cr1   O34   S    
C47   C48   S    
C90   C104  A    
C33   C34   S    
C117  C130  A    
C152  O37   S    
C85   C135  S    
C40   C41   S    
C12   C14   S    
C138  C151  A    
C28   H145  S    
C8    H100  S    
C54   O36   S    
C1    O45   A    
C14   H118  S    
C74   C117  S    
C62   O43   S    
C98   C111  A    
C52   O33   S    
C39   H14   S    
C51   H32   S    
C130  H24   S    
C37   H4    S    
C124  O3    A    
C84   C124  S    
C134  C148  A    
C93   O25   S    
C43   H20   S    
C66   C125  S    
C4    H88   S    
C97   C110  A    
C141  O41   S    
C153  O36   S    
C135  O4    A    
C101  C115  A    
C99   C112  A    
C72   C119  S    
C23   C25   S    
C88   O20   S    
C134  H81   S    
C23   H141  S    
C16   C108  S    
C55   H49   S    
C79   C80   S    
C75   C88   A    
C54   H45   S    
C27   C28   S    
C140  C153  A    
C113  O10   A    
C12   H120  S    
C49   H38   S    
C76   C142  A    
