data_mof_unit_55999.cif
_audit_creation_date              2012-12-11T15:34:45-0500
_audit_creation_method            fapswitch 2.2
_symmetry_space_group_name_H-M    P1
_symmetry_Int_Tables_number       1
_space_group_crystal_system       triclinic
_cell_length_a                    17.041462
_cell_length_b                    17.041473
_cell_length_c                    17.163396
_cell_angle_alpha                 89.999902
_cell_angle_beta                  89.999896
_cell_angle_gamma                 90.064663
_cell_volume                      4984.44636922

loop_
_atom_site_label
_atom_site_type_symbol
_atom_type_description
_atom_site_fract_x
_atom_site_fract_y
_atom_site_fract_z
_atom_type_partial_charge
C1    C     C_R   0.829670 0.077909 0.355051 -0.132465
C2    C     C_R   0.198656 0.108261 0.399016 -0.148122
C3    C     C_R   0.922091 0.170330 0.644949 -0.132465
C4    C     C_R   0.077878 0.829688 0.355035 -0.135481
C5    C     C_R   0.199327 0.106994 0.599318 -0.131568
C6    C     C_R   0.801344 0.891740 0.399016 -0.148122
C7    C     C_R   0.077909 0.829670 0.644949 -0.132465
C8    C     C_R   0.922122 0.170312 0.355035 -0.135481
C9    C     C_R   0.300905 0.607535 0.900309 -0.149364
C10   C     C_R   0.699105 0.392352 0.099503 -0.139951
C11   C     C_R   0.422561 0.329957 0.855017 -0.120414
C12   C     C_R   0.170312 0.922122 0.644965 -0.135481
C13   C     C_R   0.578052 0.670056 0.145299 -0.154119
C14   C     C_R   0.699095 0.392465 0.900309 -0.149364
C15   C     C_R   0.300895 0.607648 0.099503 -0.139951
C16   C     C_R   0.577439 0.670043 0.855017 -0.120414
C17   C     C_R   0.421948 0.329944 0.145299 -0.154119
C18   C     C_R   0.329957 0.422561 0.144983 -0.120414
C19   C     C_R   0.670056 0.578052 0.854701 -0.154119
C20   C     C_R   0.392465 0.699095 0.099691 -0.149363
C21   C     C_R   0.607648 0.300895 0.900497 -0.139951
C22   C     C_R   0.670043 0.577439 0.144983 -0.120414
C23   C     C_R   0.893006 0.800673 0.400682 -0.131568
C24   C     C_R   0.329944 0.421948 0.854701 -0.154119
C25   C     C_R   0.607535 0.300905 0.099691 -0.149364
C26   C     C_R   0.392352 0.699105 0.900497 -0.139951
C27   C     C_R   0.250222 0.246453 0.630274 0.019362
C28   C     C_R   0.753547 0.749778 0.369726 0.019362
C29   C     C_R   0.838576 0.161436 0.770085 0.070060
C30   C     C_R   0.161437 0.838576 0.229915 0.070060
C31   C     C_R   0.749778 0.753547 0.630274 0.019362
C32   C     C_R   0.246453 0.250222 0.369726 0.019362
C33   C     C_R   0.161424 0.838563 0.770085 0.070060
C34   C     C_R   0.108260 0.198656 0.600984 -0.148121
C35   C     C_R   0.838564 0.161424 0.229915 0.070060
C36   C     C_R   0.661082 0.658948 0.271045 0.024043
C37   C     C_R   0.341051 0.338918 0.728954 0.024043
C38   C     C_R   0.251963 0.748082 0.129616 0.068446
C39   C     C_R   0.748082 0.251963 0.870384 0.068446
C40   C     C_R   0.338919 0.341052 0.271046 0.024043
C41   C     C_R   0.658948 0.661081 0.728954 0.024043
C42   C     C_R   0.748036 0.251918 0.129616 0.068446
C43   C     C_R   0.251917 0.748036 0.870384 0.068446
C44   C     C_R   0.864153 0.135850 0.308752 0.089151
C45   C     C_R   0.170330 0.922091 0.355051 -0.132465
C46   C     C_R   0.135850 0.864153 0.691248 0.089151
C47   C     C_R   0.813365 0.811581 0.387766 0.082285
C48   C     C_R   0.188419 0.186635 0.612234 0.082284
C49   C     C_R   0.135847 0.864150 0.308752 0.089151
C50   C     C_R   0.864150 0.135847 0.691248 0.089151
C51   C     C_R   0.186635 0.188419 0.387766 0.082284
C52   C     C_R   0.811581 0.813365 0.612234 0.082284
C53   C     C_R   0.312495 0.687444 0.888553 0.096018
C54   C     C_R   0.687444 0.312495 0.111447 0.096018
C55   C     C_R   0.365052 0.364435 0.808358 0.078349
C56   C     C_R   0.829688 0.077878 0.644965 -0.135481
C57   C     C_R   0.635565 0.634948 0.191642 0.078349
C58   C     C_R   0.687505 0.312556 0.888553 0.096018
C59   C     C_R   0.312556 0.687505 0.111447 0.096018
C60   C     C_R   0.634948 0.635565 0.808358 0.078350
C61   C     C_R   0.364435 0.365052 0.191642 0.078349
C62   C     C_R   0.276786 0.373331 0.689831 0.000945
C63   C     C_R   0.728071 0.625072 0.305115 -0.012028
C64   C     C_R   0.726976 0.172779 0.857119 -0.026510
C65   C     C_R   0.273071 0.827251 0.142909 -0.026651
C66   C     C_R   0.723214 0.626669 0.689831 0.000944
C67   C     C_R   0.106994 0.199327 0.400682 -0.131568
C68   C     C_R   0.271929 0.374928 0.305115 -0.012029
C69   C     C_R   0.273024 0.827221 0.857118 -0.026510
C70   C     C_R   0.726929 0.172750 0.142909 -0.026650
C71   C     C_R   0.172779 0.726976 0.142882 -0.026510
C72   C     C_R   0.827251 0.273071 0.857091 -0.026650
C73   C     C_R   0.626669 0.723214 0.310169 0.000945
C74   C     C_R   0.374928 0.271929 0.694885 -0.012029
C75   C     C_R   0.827221 0.273024 0.142881 -0.026510
C76   C     C_R   0.172749 0.726929 0.857091 -0.026650
C77   C     C_R   0.373331 0.276786 0.310169 0.000944
C78   C     C_R   0.891739 0.801344 0.600984 -0.148122
C79   C     C_R   0.625072 0.728071 0.694885 -0.012029
C80   C     C_R   0.672971 0.768548 0.360344 0.006036
C81   C     C_R   0.328600 0.224001 0.646674 -0.012646
C82   C     C_R   0.126962 0.773017 0.193394 -0.033560
C83   C     C_R   0.873063 0.226999 0.806598 -0.033335
C84   C     C_R   0.327029 0.231453 0.360345 0.006037
C85   C     C_R   0.671400 0.775999 0.646673 -0.012646
C86   C     C_R   0.873038 0.226984 0.193393 -0.033560
C87   C     C_R   0.126937 0.773000 0.806598 -0.033335
C88   C     C_R   0.773016 0.126962 0.806606 -0.033560
C89   C     C_R   0.800673 0.893006 0.599318 -0.131568
C90   C     C_R   0.226999 0.873063 0.193402 -0.033335
C91   C     C_R   0.231453 0.327029 0.639656 0.006036
C92   C     C_R   0.775999 0.671400 0.353326 -0.012646
C93   C     C_R   0.226983 0.873038 0.806606 -0.033560
C94   C     C_R   0.773001 0.126937 0.193402 -0.033335
C95   C     C_R   0.768547 0.672971 0.639655 0.006037
C96   C     C_R   0.224001 0.328600 0.353327 -0.012646
H1    H     H_    0.780964 0.040319 0.341531 0.112145
H2    H     H_    0.253489 0.077418 0.400716 0.082972
H3    H     H_    0.959681 0.219036 0.658469 0.112145
H4    H     H_    0.040200 0.781040 0.341485 0.111921
H5    H     H_    0.253483 0.075603 0.592996 0.102864
H6    H     H_    0.746511 0.922582 0.400716 0.082972
H7    H     H_    0.040318 0.780964 0.658469 0.112145
H8    H     H_    0.959800 0.218960 0.341485 0.111921
H9    H     H_    0.246263 0.576367 0.904570 0.107816
H10   H     H_    0.753794 0.423372 0.094899 0.105475
H11   H     H_    0.460454 0.281540 0.841793 0.108534
H12   H     H_    0.218960 0.959800 0.658515 0.111921
H13   H     H_    0.540846 0.718851 0.159331 0.094328
H14   H     H_    0.753737 0.423632 0.904570 0.107816
H15   H     H_    0.246205 0.576628 0.094899 0.105475
H16   H     H_    0.539546 0.718460 0.841792 0.108534
H17   H     H_    0.459154 0.281149 0.159332 0.094329
H18   H     H_    0.281540 0.460454 0.158208 0.108534
H19   H     H_    0.718851 0.540846 0.840668 0.094329
H20   H     H_    0.423633 0.753737 0.095430 0.107816
H21   H     H_    0.576628 0.246206 0.905100 0.105475
H22   H     H_    0.718460 0.539546 0.158207 0.108534
H23   H     H_    0.924397 0.746517 0.407004 0.102864
H24   H     H_    0.281149 0.459154 0.840668 0.094328
H25   H     H_    0.576368 0.246263 0.095430 0.107816
H26   H     H_    0.423372 0.753794 0.905101 0.105475
H27   H     H_    0.213031 0.465421 0.729907 0.090184
H28   H     H_    0.310021 0.487077 0.713269 0.115728
H29   H     H_    0.802177 0.538315 0.270407 0.084808
H30   H     H_    0.743204 0.514674 0.346747 0.111931
H31   H     H_    0.621129 0.118287 0.853707 0.087315
H32   H     H_    0.679662 0.091025 0.929073 0.100383
H33   H     H_    0.320461 0.908986 0.070988 0.100492
H34   H     H_    0.077418 0.253489 0.599284 0.082972
H35   H     H_    0.378927 0.881713 0.146393 0.087933
H36   H     H_    0.786969 0.534579 0.729906 0.090184
H37   H     H_    0.689979 0.512923 0.713269 0.115728
H38   H     H_    0.197824 0.461686 0.270407 0.084808
H39   H     H_    0.256796 0.485326 0.346748 0.111931
H40   H     H_    0.378871 0.881713 0.853706 0.087315
H41   H     H_    0.320338 0.908975 0.929072 0.100383
H42   H     H_    0.679539 0.091013 0.070989 0.100492
H43   H     H_    0.621073 0.118287 0.146395 0.087933
H44   H     H_    0.118287 0.621129 0.146294 0.087315
H45   H     H_    0.219036 0.959681 0.341531 0.112145
H46   H     H_    0.091025 0.679662 0.070928 0.100383
H47   H     H_    0.908987 0.320461 0.929011 0.100492
H48   H     H_    0.881713 0.378927 0.853605 0.087933
H49   H     H_    0.534579 0.786969 0.270093 0.090184
H50   H     H_    0.512923 0.689979 0.286731 0.115728
H51   H     H_    0.461685 0.197823 0.729593 0.084808
H52   H     H_    0.485326 0.256796 0.653253 0.111931
H53   H     H_    0.881713 0.378871 0.146293 0.087315
H54   H     H_    0.908975 0.320338 0.070927 0.100383
H55   H     H_    0.091013 0.679539 0.929012 0.100492
H56   H     H_    0.781040 0.040199 0.658516 0.111921
H57   H     H_    0.118286 0.621073 0.853606 0.087933
H58   H     H_    0.465421 0.213031 0.270094 0.090184
H59   H     H_    0.487077 0.310021 0.286731 0.115728
H60   H     H_    0.538314 0.802176 0.729592 0.084808
H61   H     H_    0.514674 0.743203 0.653252 0.111931
H62   H     H_    0.665583 0.837592 0.457931 0.112590
H63   H     H_    0.628642 0.878246 0.373563 0.088816
H64   H     H_    0.410897 0.168927 0.580820 0.104527
H65   H     H_    0.379096 0.117012 0.659402 0.089294
H66   H     H_    0.016124 0.758785 0.152473 0.108638
H67   H     H_    0.075603 0.253483 0.407004 0.102864
H68   H     H_    0.040823 0.697534 0.226659 0.087530
H69   H     H_    0.959231 0.302444 0.773351 0.088679
H70   H     H_    0.983887 0.241194 0.847547 0.108476
H71   H     H_    0.334416 0.162408 0.457932 0.112590
H72   H     H_    0.371359 0.121754 0.373563 0.088816
H73   H     H_    0.589103 0.831073 0.580820 0.104527
H74   H     H_    0.620903 0.882988 0.659401 0.089294
H75   H     H_    0.983876 0.241216 0.152473 0.108638
H76   H     H_    0.959176 0.302467 0.226659 0.087530
H77   H     H_    0.040770 0.697555 0.773351 0.088679
H78   H     H_    0.922582 0.746511 0.599284 0.082972
H79   H     H_    0.016112 0.758805 0.847547 0.108476
H80   H     H_    0.758783 0.016124 0.847526 0.108638
H81   H     H_    0.697533 0.040824 0.773341 0.087530
H82   H     H_    0.302445 0.959230 0.226649 0.088679
H83   H     H_    0.241195 0.983887 0.152453 0.108476
H84   H     H_    0.162408 0.334416 0.542068 0.112590
H85   H     H_    0.121754 0.371358 0.626437 0.088817
H86   H     H_    0.831073 0.589103 0.419180 0.104527
H87   H     H_    0.882988 0.620904 0.340598 0.089294
H88   H     H_    0.241216 0.983876 0.847526 0.108638
H89   H     H_    0.746517 0.924397 0.592996 0.102864
H90   H     H_    0.302466 0.959176 0.773341 0.087530
H91   H     H_    0.697555 0.040770 0.226649 0.088679
H92   H     H_    0.758806 0.016113 0.152453 0.108476
H93   H     H_    0.837592 0.665584 0.542068 0.112590
H94   H     H_    0.878246 0.628641 0.626436 0.088817
H95   H     H_    0.168927 0.410897 0.419180 0.104527
H96   H     H_    0.117012 0.379096 0.340599 0.089294
N1    N     N_R   0.868470 0.074730 0.422590 -0.045004
N2    N     N_R   0.131530 0.074730 0.422590 -0.035304
N3    N     N_R   0.925270 0.131530 0.577410 -0.045004
N4    N     N_R   0.074730 0.868470 0.422590 -0.045487
N5    N     N_R   0.131530 0.074730 0.577410 -0.039005
N6    N     N_R   0.868470 0.925270 0.422590 -0.035304
N7    N     N_R   0.074730 0.868470 0.577410 -0.045004
N8    N     N_R   0.925270 0.131530 0.422590 -0.045487
N9    N     N_R   0.368470 0.574730 0.922590 -0.038454
N10   N     N_R   0.631530 0.425270 0.077410 -0.039744
N11   N     N_R   0.425270 0.368470 0.922590 -0.045875
N12   N     N_R   0.131530 0.925270 0.577410 -0.045487
N13   N     N_R   0.574730 0.631530 0.077410 -0.040273
N14   N     N_R   0.631530 0.425270 0.922590 -0.038454
N15   N     N_R   0.368470 0.574730 0.077410 -0.039744
N16   N     N_R   0.574730 0.631530 0.922590 -0.045875
N17   N     N_R   0.425270 0.368470 0.077410 -0.040273
N18   N     N_R   0.368470 0.425270 0.077410 -0.045875
N19   N     N_R   0.631530 0.574730 0.922590 -0.040273
N20   N     N_R   0.425270 0.631530 0.077410 -0.038454
N21   N     N_R   0.574730 0.368470 0.922590 -0.039744
N22   N     N_R   0.631530 0.574730 0.077410 -0.045875
N23   N     N_R   0.925270 0.868470 0.422590 -0.039005
N24   N     N_R   0.368470 0.425270 0.922590 -0.040273
N25   N     N_R   0.574730 0.368470 0.077410 -0.038454
N26   N     N_R   0.425270 0.631530 0.922590 -0.039744
N27   N     N_3   0.261073 0.456059 0.693245 -0.207018
N28   N     N_3   0.745522 0.543618 0.293119 -0.219500
N29   N     N_3   0.660681 0.138592 0.895685 -0.223527
N30   N     N_3   0.339406 0.861413 0.104386 -0.223633
N31   N     N_3   0.738926 0.543941 0.693245 -0.207018
N32   N     N_3   0.254478 0.456383 0.293120 -0.219500
N33   N     N_3   0.339318 0.861408 0.895684 -0.223527
N34   N     N_R   0.074730 0.131530 0.577410 -0.035304
N35   N     N_3   0.660594 0.138587 0.104387 -0.223633
N36   N     N_3   0.138592 0.660681 0.104316 -0.223527
N37   N     N_3   0.861413 0.339406 0.895613 -0.223633
N38   N     N_3   0.543941 0.738926 0.306755 -0.207018
N39   N     N_3   0.456383 0.254478 0.706880 -0.219500
N40   N     N_3   0.861408 0.339319 0.104315 -0.223527
N41   N     N_3   0.138587 0.660594 0.895614 -0.223633
N42   N     N_3   0.456059 0.261074 0.306755 -0.207018
N43   N     N_3   0.543617 0.745521 0.706880 -0.219500
N44   N     N_3   0.634464 0.827076 0.406584 -0.211220
N45   N     N_R   0.131530 0.925270 0.422590 -0.045004
N46   N     N_3   0.361719 0.154121 0.614094 -0.232864
N47   N     N_3   0.045680 0.754912 0.205673 -0.219117
N48   N     N_3   0.954353 0.245068 0.794335 -0.219547
N49   N     N_3   0.365536 0.172925 0.406585 -0.211220
N50   N     N_3   0.638281 0.845879 0.614094 -0.232864
N51   N     N_3   0.954319 0.245089 0.205673 -0.219117
N52   N     N_3   0.045647 0.754931 0.794335 -0.219547
N53   N     N_3   0.754911 0.045681 0.794327 -0.219118
N54   N     N_3   0.245069 0.954352 0.205665 -0.219547
N55   N     N_3   0.172924 0.365535 0.593416 -0.211221
N56   N     N_R   0.868470 0.074730 0.577410 -0.045487
N57   N     N_3   0.845879 0.638281 0.385906 -0.232864
N58   N     N_3   0.245088 0.954319 0.794326 -0.219117
N59   N     N_3   0.754932 0.045648 0.205665 -0.219547
N60   N     N_3   0.827075 0.634465 0.593415 -0.211220
N61   N     N_3   0.154121 0.361719 0.385906 -0.232864
N62   N     N_R   0.074730 0.131530 0.422590 -0.039005
N63   N     N_R   0.925270 0.868470 0.577410 -0.035304
N64   N     N_R   0.868470 0.925270 0.577410 -0.039005
Ni1   Ni    Ni4+2 0.869670 0.000000 0.500000 0.206630
Ni2   Ni    Ni4+2 0.130330 0.000000 0.500000 0.206630
Ni3   Ni    Ni4+2 1.000000 0.869670 0.500000 0.206630
Ni4   Ni    Ni4+2 1.000000 0.130330 0.500000 0.206630
Ni5   Ni    Ni4+2 0.369670 0.500000 0.000000 0.207081
Ni6   Ni    Ni4+2 0.630330 0.500000 0.000000 0.207081
Ni7   Ni    Ni4+2 0.500000 0.369670 0.000000 0.207081
Ni8   Ni    Ni4+2 0.500000 0.630330 0.000000 0.207081

loop_
_geom_bond_atom_site_label_1
_geom_bond_atom_site_label_2
_ccdc_geom_bond_type
C27   C48   S    
H40   N33   S    
C28   C47   S    
C73   C80   A    
C31   C85   A    
C26   N26   A    
H36   N31   S    
N26   Ni8   S    
H63   N44   S    
C80   N44   S    
C25   N25   A    
N3    Ni4   S    
H77   N52   S    
H73   N50   S    
C30   C90   A    
C94   N59   S    
C18   H18   S    
C37   C74   A    
C37   C62   A    
C17   H17   S    
C28   C80   A    
C23   N23   A    
C92   N57   S    
N5    Ni2   S    
C24   C55   A    
H39   N32   S    
C56   N56   A    
C42   C75   A    
H95   N61   S    
H64   N46   S    
N21   Ni7   S    
H93   N60   S    
N25   Ni7   S    
C78   N63   A    
N10   N25   A    
C18   N18   A    
H86   N57   S    
N9    Ni5   S    
N24   Ni5   S    
C29   C83   A    
C17   N17   A    
N56   Ni1   S    
C23   H23   S    
C35   C86   A    
N11   Ni7   S    
C67   N62   A    
C13   C57   A    
H60   N43   S    
C9    H9    S    
H55   N41   S    
C42   C70   A    
N4    Ni3   S    
H54   N40   S    
C81   N46   S    
C20   N20   A    
H43   N35   S    
C71   N36   S    
N23   Ni3   S    
C77   N42   S    
C4    N4    A    
C65   N30   S    
C29   C88   A    
C13   H13   S    
C1    C44   A    
H62   N44   S    
C88   N53   S    
C38   C71   A    
H51   N39   S    
C43   C53   S    
C18   C61   A    
H81   N53   S    
H76   N51   S    
C86   N51   S    
H71   N49   S    
H49   N38   S    
C63   C92   A    
N1    Ni1   S    
C39   C72   A    
C27   C91   A    
C76   N41   S    
N62   Ni4   S    
C56   H56   S    
C36   C63   A    
N19   Ni6   S    
C31   C52   S    
C6    N6    A    
C45   N45   A    
N4    N45   A    
C71   C82   A    
C17   C61   A    
N5    N34   A    
N18   Ni5   S    
C6    H6    S    
H28   N27   S    
C43   C69   A    
H91   N59   S    
C7    H7    S    
C82   N47   S    
C45   H45   S    
C33   C46   S    
C52   C89   A    
C65   C90   A    
C9    C53   A    
N12   Ni2   S    
C70   N35   S    
C22   C57   A    
C52   C78   A    
N6    N23   A    
N10   Ni6   S    
C73   N38   S    
C3    C50   A    
H30   N28   S    
N8    Ni4   S    
C91   N55   S    
C29   C50   S    
N64   Ni1   S    
H79   N52   S    
C14   C58   A    
C5    C48   A    
C5    H5    S    
H44   N36   S    
C23   C47   A    
C72   N37   S    
C24   H24   S    
C72   C83   A    
C7    C46   A    
C15   H15   S    
H48   N37   S    
C27   C81   A    
C78   H78   S    
C25   C54   A    
C41   C60   S    
H42   N35   S    
C12   C46   A    
C36   C57   S    
C6    C47   A    
C1    H1    S    
C20   H20   S    
N9    N26   A    
H61   N43   S    
C11   N11   A    
H65   N46   S    
H59   N42   S    
C39   C58   S    
H27   N27   S    
C89   N64   A    
C3    N3    A    
C40   C61   S    
N2    N62   A    
C69   N33   S    
C2    N2    A    
H88   N58   S    
C63   N28   S    
C30   C82   A    
H92   N59   S    
C1    N1    A    
H87   N57   S    
C32   C51   S    
H32   N29   S    
C39   C64   A    
C67   H67   S    
N14   Ni6   S    
N11   N24   A    
C75   C86   A    
H72   N49   S    
C10   N10   A    
C38   C65   A    
C45   C49   A    
H84   N55   S    
C62   C91   A    
H58   N42   S    
H68   N47   S    
H94   N60   S    
N17   N18   A    
H57   N41   S    
C28   C92   A    
H52   N39   S    
C51   C67   A    
N16   Ni8   S    
H47   N37   S    
C20   C59   A    
C35   C44   S    
C8    H8    S    
C76   C87   A    
C34   H34   S    
C84   N49   S    
C9    N9    A    
C16   C60   A    
N14   N21   A    
C32   C96   A    
C30   C49   S    
N13   N22   A    
H38   N32   S    
C14   N14   A    
C11   H11   S    
N15   N20   A    
C19   N19   A    
C21   N21   A    
C10   H10   S    
C34   C48   A    
C74   C81   A    
N34   Ni4   S    
N63   N64   A    
C26   C53   A    
C79   C85   A    
H83   N54   S    
C11   C55   A    
C93   N58   S    
C16   H16   S    
C12   H12   S    
H50   N38   S    
C35   C94   A    
C43   C76   A    
C14   H14   S    
C22   H22   S    
C83   N48   S    
N20   Ni8   S    
H69   N48   S    
C15   C59   A    
H75   N51   S    
H53   N40   S    
C89   H89   S    
N22   Ni6   S    
C8    C44   A    
C32   C84   A    
H33   N30   S    
C16   N16   A    
C33   C93   A    
C95   N60   S    
C41   C79   A    
C5    N5    A    
H85   N55   S    
N63   Ni3   S    
H46   N36   S    
C41   C66   A    
N17   Ni7   S    
C19   C60   A    
C34   N34   A    
N1    N8    A    
N3    N56   A    
C68   C96   A    
C69   C93   A    
C77   C84   A    
C4    H4    S    
C4    C49   A    
C74   N39   S    
C62   N27   S    
C22   N22   A    
C33   C87   A    
H80   N53   S    
C79   N43   S    
C21   C58   A    
C42   C54   S    
H70   N48   S    
H66   N47   S    
C24   N24   A    
C19   H19   S    
C87   N52   S    
N7    N12   A    
N16   N19   A    
C31   C95   A    
C90   N54   S    
C85   N50   S    
H37   N31   S    
N13   Ni8   S    
C64   N29   S    
H35   N30   S    
C13   N13   A    
C12   N12   A    
C7    N7    A    
C75   N40   S    
C10   C54   A    
H41   N33   S    
C50   C56   A    
H90   N58   S    
C21   H21   S    
C8    N8    A    
C2    C51   A    
H31   N29   S    
H82   N54   S    
N7    Ni3   S    
C38   C59   S    
C37   C55   S    
H29   N28   S    
C3    H3    S    
H74   N50   S    
C2    H2    S    
H96   N61   S    
C40   C68   A    
C68   N32   S    
N45   Ni2   S    
C70   C94   A    
C40   C77   A    
C66   N31   S    
C26   H26   S    
N2    Ni2   S    
N15   Ni5   S    
C25   H25   S    
C36   C73   A    
C64   C88   A    
N6    Ni1   S    
C15   N15   A    
C96   N61   S    
C66   C95   A    
