data_mof_unit_56558.cif
_audit_creation_date              2012-10-26T19:04:20-0400
_audit_creation_method            fapswitch 2.2
_symmetry_space_group_name_H-M    P1
_symmetry_Int_Tables_number       1
_space_group_crystal_system       triclinic
_cell_length_a                    14.825419
_cell_length_b                    16.055931
_cell_length_c                    9.644748
_cell_angle_alpha                 89.193745
_cell_angle_beta                  93.82135
_cell_angle_gamma                 89.470323
_cell_volume                      2290.34599275

loop_
_atom_site_label
_atom_site_type_symbol
_atom_type_description
_atom_site_fract_x
_atom_site_fract_y
_atom_site_fract_z
_atom_type_partial_charge
C1    C     C_R   0.382246 0.879801 0.498555 0.567577
C2    C     C_R   0.697165 0.230304 0.380792 -0.034909
C3    C     C_R   0.168633 0.246884 0.400496 -0.087549
C4    C     C_R   0.197165 0.730304 0.380792 -0.034910
C5    C     C_R   0.668408 0.798989 0.515593 0.003287
C6    C     C_R   0.676005 0.193593 0.506243 0.018566
C7    C     C_R   0.168408 0.298990 0.515593 0.003287
C8    C     C_R   0.176005 0.693593 0.506243 0.018566
C9    C     C_R   0.660745 0.008923 0.169770 0.182142
C10   C     C_R   0.160745 0.508923 0.169770 0.182142
C11   C     C_R   0.721468 0.066112 0.128988 0.336877
C12   C     C_R   0.380494 0.118801 0.495758 0.564684
C13   C     C_R   0.221468 0.566112 0.128988 0.336877
C14   C     C_R   0.741762 0.060969 0.991452 0.086046
C15   C     C_R   0.241762 0.560969 0.991452 0.086046
C16   C     C_R   0.675867 0.028011 0.890770 0.030129
C17   C     C_R   0.175867 0.528011 0.890770 0.030129
C18   C     C_R   0.583892 0.008646 0.935560 0.076790
C19   C     C_R   0.083892 0.508646 0.935560 0.076790
C20   C     C_R   0.580902 0.002519 0.085187 0.059549
C21   C     C_R   0.080902 0.502519 0.085187 0.059548
C22   C     C_R   0.423006 0.997663 0.064992 0.025478
C23   C     C_R   0.882246 0.379801 0.498555 0.567577
C24   C     C_R   0.923006 0.497663 0.064992 0.025478
C25   C     C_R   0.613792 0.122610 0.501777 0.590568
C26   C     C_R   0.611731 0.875444 0.504191 0.590233
C27   C     C_R   0.113792 0.622610 0.501777 0.590568
C28   C     C_R   0.111731 0.375444 0.504191 0.590233
C29   C     C_R   0.422861 0.995221 0.918062 0.024612
C30   C     C_R   0.922861 0.495221 0.918062 0.024612
C31   C     C_R   0.392071 0.262926 0.678190 0.100918
C32   C     C_R   0.352209 0.774866 0.750225 0.130685
C33   C     C_R   0.892071 0.762926 0.678190 0.100918
C34   C     C_R   0.880494 0.618801 0.495758 0.564685
C35   C     C_R   0.852209 0.274866 0.750225 0.130684
C36   C     C_R   0.385838 0.288858 0.814296 -0.069550
C37   C     C_R   0.313366 0.768883 0.877446 -0.057161
C38   C     C_R   0.885838 0.788858 0.814296 -0.069550
C39   C     C_R   0.813366 0.268883 0.877446 -0.057161
C40   C     C_R   0.800766 0.804226 0.861822 -0.099610
C41   C     C_R   0.723601 0.245331 0.881505 -0.113111
C42   C     C_R   0.300766 0.304226 0.861822 -0.099610
C43   C     C_R   0.223601 0.745331 0.881505 -0.113111
C44   C     C_R   0.724844 0.807182 0.767268 -0.058747
C45   C     C_R   0.237529 0.188066 0.389072 0.086530
C46   C     C_R   0.676758 0.218940 0.760706 -0.081528
C47   C     C_R   0.224844 0.307182 0.767268 -0.058747
C48   C     C_R   0.176758 0.718940 0.760706 -0.081529
C49   C     C_R   0.732943 0.783291 0.628190 0.030101
C50   C     C_R   0.715904 0.225623 0.631230 0.028584
C51   C     C_R   0.232943 0.283291 0.628190 0.030101
C52   C     C_R   0.215904 0.725623 0.631230 0.028583
C53   C     C_R   0.312995 0.242674 0.598539 0.026644
C54   C     C_R   0.297320 0.769654 0.625344 0.026200
C55   C     C_R   0.812995 0.742674 0.598539 0.026644
C56   C     C_R   0.260168 0.793407 0.377954 0.099431
C57   C     C_R   0.797320 0.269655 0.625344 0.026200
C58   C     C_R   0.312379 0.186542 0.488129 0.018388
C59   C     C_R   0.316411 0.810628 0.498298 0.018640
C60   C     C_R   0.812379 0.686542 0.488129 0.018388
C61   C     C_R   0.816411 0.310628 0.498298 0.018640
C62   C     C_R   0.737529 0.688066 0.389072 0.086530
C63   C     C_R   0.760168 0.293407 0.377954 0.099431
C64   C     C_R   0.668633 0.746884 0.400496 -0.087549
Cu1   Cu    Cu3+1 0.499990 0.000000 0.640660 1.002044
Cu2   Cu    Cu3+1 0.999990 0.500000 0.640660 1.002044
Cu3   Cu    Cu3+1 0.500010 0.000000 0.359340 1.038776
Cu4   Cu    Cu3+1 0.000010 0.500000 0.359340 1.038777
F1    F     F_    0.784479 0.093663 0.226026 -0.580567
F2    F     F_    0.284479 0.593663 0.226026 -0.580567
H1    H     H_    0.359123 0.991493 0.857101 0.143663
H2    H     H_    0.192901 0.739156 0.979629 0.146439
H3    H     H_    0.662618 0.830555 0.803919 0.181137
H4    H     H_    0.608779 0.197437 0.770623 0.157912
H5    H     H_    0.162618 0.330555 0.803919 0.181137
H6    H     H_    0.108779 0.697437 0.770623 0.157912
H7    H     H_    0.616010 0.753370 0.317394 0.177129
H8    H     H_    0.659681 0.214099 0.284851 0.165098
H9    H     H_    0.116010 0.253370 0.317394 0.177129
H10   H     H_    0.159681 0.714099 0.284851 0.165099
H11   H     H_    0.359721 0.998025 0.112429 0.173958
H12   H     H_    0.859123 0.491493 0.857101 0.143663
H13   H     H_    0.859721 0.498025 0.112429 0.173958
H14   H     H_    0.446026 0.303447 0.878777 0.151734
H15   H     H_    0.354726 0.775446 0.973303 0.179415
H16   H     H_    0.946026 0.803447 0.878777 0.151734
H17   H     H_    0.854726 0.275446 0.973303 0.179415
H18   H     H_    0.795449 0.823288 0.966923 0.171158
H19   H     H_    0.692901 0.239156 0.979629 0.146439
H20   H     H_    0.295449 0.323288 0.966923 0.171158
I1    I     I_    0.221742 0.109750 0.215160 -0.266686
I2    I     I_    0.491978 0.749124 0.754293 -0.288699
I3    I     I_    0.996926 0.813657 0.568371 -0.310142
I4    I     I_    0.991978 0.249123 0.754293 -0.288699
I5    I     I_    0.742749 0.900098 0.206559 -0.262302
I6    I     I_    0.242750 0.400098 0.206559 -0.262302
I7    I     I_    0.248736 0.865249 0.193007 -0.349553
I8    I     I_    0.721742 0.609750 0.215160 -0.266687
I9    I     I_    0.748736 0.365250 0.193007 -0.349553
I10   I     I_    0.885475 0.075021 0.971872 -0.125519
I11   I     I_    0.385475 0.575021 0.971872 -0.125520
I12   I     I_    0.748296 0.001348 0.708533 -0.207084
I13   I     I_    0.248296 0.501348 0.708533 -0.207083
I14   I     I_    0.496926 0.313657 0.568371 -0.310142
N1    N     N_R   0.501200 0.000000 0.147910 -0.250071
N2    N     N_R   0.001200 0.500000 0.147910 -0.250071
N3    N     N_R   0.501270 0.000000 0.852040 -0.231657
N4    N     N_R   0.001270 0.500000 0.852040 -0.231658
O1    O     O_R   0.409820 0.909830 0.618810 -0.505580
O2    O     O_R   0.590170 0.909830 0.618760 -0.485640
O3    O     O_R   0.090170 0.590170 0.618760 -0.499569
O4    O     O_R   0.090170 0.409830 0.618760 -0.485640
O5    O     O_R   0.590190 0.090180 0.381190 -0.499008
O6    O     O_R   0.590190 0.909820 0.381190 -0.482025
O7    O     O_R   0.090190 0.590180 0.381190 -0.499008
O8    O     O_R   0.090190 0.409820 0.381190 -0.482025
O9    O     O_R   0.409820 0.090170 0.618810 -0.511020
O10   O     O_R   0.909820 0.409830 0.618810 -0.505580
O11   O     O_R   0.909820 0.590170 0.618810 -0.511020
O12   O     O_R   0.409840 0.909830 0.381240 -0.474705
O13   O     O_R   0.409840 0.090170 0.381240 -0.479129
O14   O     O_R   0.909840 0.409830 0.381240 -0.474705
O15   O     O_R   0.909840 0.590170 0.381240 -0.479129
O16   O     O_R   0.590170 0.090170 0.618760 -0.499569

loop_
_geom_bond_atom_site_label_1
_geom_bond_atom_site_label_2
_ccdc_geom_bond_type
C44   C49   A    
C33   C55   A    
Cu2   Cu4   S    
C37   C43   A    
C43   H2    S    
C22   C29   A    
C64   H7    S    
C48   H6    S    
C36   C42   A    
C39   H17   S    
C4    C8    A    
C3    H9    S    
C23   O10   A    
C39   C41   A    
C28   O4    A    
C34   O15   A    
C38   H16   S    
C37   H15   S    
C19   C21   A    
C24   H13   S    
C4    H10   S    
C3    C7    A    
C1    C59   S    
C11   C14   A    
C35   I4    S    
C6    C25   S    
C13   F2    S    
C60   C62   A    
Cu1   O16   S    
C61   C63   A    
C18   N3    A    
C62   C64   A    
C28   O8    A    
C1    O1    A    
C62   I8    S    
C12   O13   A    
Cu1   Cu3   S    
C63   I9    S    
C41   C46   A    
Cu2   O3    S    
Cu3   O12   S    
C8    C52   A    
C40   C44   A    
C21   N2    A    
C12   C58   S    
C19   N4    A    
C27   O3    A    
C55   C60   A    
C4    C56   A    
C34   C60   S    
C5    C49   A    
C2    C6    A    
Cu4   N2    S    
C56   I7    S    
Cu3   O13   S    
Cu4   O15   S    
C32   C54   A    
C52   C54   A    
C23   O14   A    
C54   C59   A    
C10   C21   A    
C45   C58   A    
C22   H11   S    
Cu4   O14   S    
Cu3   N1    S    
C47   C51   A    
C49   C55   A    
C3    C45   A    
C15   I11   S    
C7    C28   S    
C5    C26   S    
C5    C64   A    
C42   H20   S    
C1    O12   A    
C30   H12   S    
C35   C39   A    
C26   O6    A    
C2    H8    S    
C25   O5    A    
C9    C20   A    
C10   I6    S    
C32   C37   A    
C31   C53   A    
C14   I10   S    
C9    C11   A    
Cu1   O1    S    
Cu4   O8    S    
C16   I12   S    
Cu2   O11   S    
C13   C15   A    
C14   C16   A    
C24   N2    A    
C46   H4    S    
C2    C63   A    
C20   N1    A    
C43   C48   A    
C23   C61   S    
C34   O11   A    
C15   C17   A    
C26   O2    A    
C6    C50   A    
C30   N4    A    
C41   H19   S    
C50   C57   A    
Cu3   O6    S    
Cu2   N4    S    
C10   C13   A    
C33   I3    S    
C53   C58   A    
C11   F1    S    
C57   C61   A    
C22   N1    A    
C46   C50   A    
C33   C38   A    
C56   C59   A    
C35   C57   A    
Cu2   O4    S    
C31   I14   S    
C9    I5    S    
C17   I13   S    
C47   H5    S    
C38   C40   A    
C40   H18   S    
C32   I2    S    
C36   H14   S    
C17   C19   A    
C18   C20   A    
C42   C47   A    
Cu3   O5    S    
C44   H3    S    
C45   I1    S    
C25   O16   A    
C24   C30   A    
Cu1   O2    S    
Cu4   O7    S    
C7    C51   A    
C12   O9    A    
C48   C52   A    
C16   C18   A    
Cu2   O10   S    
C8    C27   S    
Cu1   O9    S    
C31   C36   A    
C29   N3    A    
C51   C53   A    
Cu1   N3    S    
C29   H1    S    
C27   O7    A    
