data_mof_unit_21348.cif
_audit_creation_date              2012-12-11T14:56:23-0500
_audit_creation_method            fapswitch 2.2
_symmetry_space_group_name_H-M    P1
_symmetry_Int_Tables_number       1
_space_group_crystal_system       triclinic
_cell_length_a                    10.510428
_cell_length_b                    10.693008
_cell_length_c                    17.077577
_cell_angle_alpha                 80.098432
_cell_angle_beta                  89.942606
_cell_angle_gamma                 119.528048
_cell_volume                      1636.896203

loop_
_atom_site_label
_atom_site_type_symbol
_atom_type_description
_atom_site_fract_x
_atom_site_fract_y
_atom_site_fract_z
_atom_type_partial_charge
C1    C     C_R   0.216553 0.850955 0.127503 0.534189
C2    C     C_1   0.651304 0.345579 0.707608 0.058007
C3    C     C_R   0.614873 0.702815 0.809790 0.370399
C4    C     C_R   0.610928 0.211703 0.102916 0.545939
C5    C     C_R   0.582334 0.694581 0.731494 -0.077895
C6    C     C_R   0.669790 0.818541 0.669952 -0.092619
C7    C     C_R   0.781942 0.948857 0.690181 0.375965
C8    C     C_R   0.803945 0.958701 0.770328 -0.062397
C9    C     C_R   0.705076 0.839713 0.829737 -0.089975
C10   C     C_R   0.247476 0.967334 0.757435 0.298029
C11   C     C_R   0.248445 0.956456 0.678136 0.016536
C12   C     C_R   0.709883 0.235708 0.314300 0.398790
C13   C     C_R   0.175845 0.816829 0.658948 -0.060858
C14   C     C_R   0.133463 0.689236 0.719240 -0.097206
C15   C     C_R   0.133206 0.700773 0.800074 -0.059159
C16   C     C_R   0.643983 0.855373 0.124146 0.545662
C17   C     C_R   0.188376 0.840799 0.818581 0.008218
C18   C     C_R   0.711730 0.771861 0.353624 0.542655
C19   C     C_R   0.677706 0.377387 0.402855 0.570265
C20   C     C_R   0.048683 0.789485 0.352670 0.515154
C21   C     C_R   0.678169 0.797652 0.587774 0.592107
C22   C     C_R   0.678125 0.381684 0.624483 0.567871
C23   C     C_R   0.715898 0.223008 0.235029 -0.030193
C24   C     C_R   0.103777 0.802391 0.585031 0.579483
C25   C     C_R   0.223972 0.864165 0.898778 0.604146
C26   C     C_R   0.638122 0.286258 0.861106 0.630233
C27   C     C_R   0.651349 0.864422 0.901548 0.555149
C28   C     C_R   0.499333 0.254753 0.220915 -0.028678
C29   C     C_R   0.504367 0.279150 0.299687 -0.083966
C30   C     C_R   0.621756 0.286689 0.341805 -0.024754
C31   C     C_2   0.375518 0.250170 0.177555 0.362654
C32   C     C_2   0.325524 0.093418 0.616370 0.300959
C33   C     C_2   0.088442 0.545058 0.697484 0.274271
C34   C     C_R   0.612193 0.236527 0.185807 -0.102701
C35   C     C_2   0.077179 0.567726 0.864746 0.314447
C36   C     C_2   0.387226 0.293792 0.339643 0.284133
C37   C     C_2   0.840715 0.208025 0.205724 0.307379
C38   C     C_2   0.450062 0.559290 0.717322 0.309845
C39   C     C_2   0.934718 0.086330 0.792099 0.351614
C40   C     C_1   0.685622 0.830098 0.201564 0.014624
C41   C     C_1   0.703893 0.805410 0.270354 0.023416
C42   C     C_1   0.150971 0.811350 0.207404 -0.028408
C43   C     C_1   0.103632 0.800367 0.273830 -0.032485
C44   C     C_1   0.644613 0.324739 0.778247 0.106900
Cr1   Cr    Cr6+3 0.402240 0.783890 0.019450 1.131016
Cr2   Cr    Cr6+3 0.382360 0.097900 0.991800 1.149665
Cr3   Cr    Cr6+3 0.715380 0.118170 0.988700 1.056481
Cr4   Cr    Cr6+3 0.936650 0.882420 0.465510 1.166396
Cr5   Cr    Cr6+3 0.605770 0.565620 0.493360 1.056118
Cr6   Cr    Cr6+3 0.921340 0.550490 0.496380 1.123314
F1    F     F_    0.804201 0.215682 0.362512 -0.537743
F2    F     F_    0.540264 0.581607 0.868754 -0.554442
F3    F     F_    0.870260 0.065721 0.631538 -0.544609
F4    F     F_    0.312830 0.103929 0.774649 -0.613789
H1    H     H_    0.266002 0.155806 0.193403 0.123206
H2    H     H_    0.341601 0.195997 0.628982 0.185730
H3    H     H_    0.146816 0.539943 0.646817 0.140342
H4    H     H_    0.100245 0.481073 0.859316 0.163352
H5    H     H_    0.356599 0.252031 0.403368 0.162327
H6    H     H_    0.905774 0.271791 0.149557 0.151093
H7    H     H_    0.382007 0.566250 0.671183 0.106143
H8    H     H_    0.957347 0.087274 0.853976 0.118962
O1    O     O_R   0.521780 0.757110 0.108900 -0.460008
O2    O     O_R   0.805020 0.410040 0.421340 -0.425465
O3    O     O_R   0.049240 0.685450 0.403290 -0.476349
O4    O     O_R   0.275160 0.783810 0.101120 -0.475836
O5    O     O_R   0.077520 0.903010 0.551800 -0.460437
O6    O     O_R   0.802980 0.872780 0.546830 -0.405268
O7    O     O_R   0.578090 0.681300 0.569920 -0.547753
O8    O     O_R   0.608530 0.436370 0.586530 -0.510988
O9    O     O_R   0.798770 0.401880 0.597100 -0.446541
O10   O     O_R   0.043450 0.677890 0.566230 -0.520382
O11   O     O_3   0.821250 0.666180 0.485090 -0.341382
O12   O     O_R   0.513330 0.228330 0.898660 -0.412383
O13   O     O_R   0.237900 0.972600 0.090980 -0.542593
O14   O     O_R   0.511190 0.220540 0.061620 -0.445180
O15   O     O_R   0.736920 0.257720 0.063840 -0.503939
O16   O     O_R   0.710450 0.984050 0.081720 -0.529265
O17   O     O_R   0.524090 0.765520 0.933110 -0.422651
O18   O     O_R   0.277300 0.791600 0.938160 -0.493481
O19   O     O_R   0.240210 0.981010 0.915190 -0.443011
O20   O     O_2   0.394265 0.355517 0.127346 -0.419338
O21   O     O_2   0.375729 0.093729 0.551759 -0.526248
O22   O     O_2   0.982564 0.432378 0.733282 -0.471050
O23   O     O_R   0.739230 0.266130 0.888050 -0.483107
O24   O     O_2   0.002726 0.553097 0.924227 -0.476160
O25   O     O_2   0.327446 0.355683 0.303104 -0.447091
O26   O     O_2   0.879879 0.130766 0.247208 -0.434182
O27   O     O_2   0.413278 0.439040 0.758183 -0.385072
O28   O     O_2   0.023244 0.188953 0.741197 -0.368140
O29   O     O_R   0.712580 0.991850 0.918770 -0.540604
O30   O     O_3   0.499990 0.999980 0.999980 -0.321430
O31   O     O_R   0.083770 0.911170 0.376030 -0.498167
O32   O     O_R   0.808770 0.880340 0.383890 -0.424363
O33   O     O_R   0.584340 0.689460 0.394160 -0.475122
O34   O     O_R   0.614320 0.443940 0.423590 -0.538323

loop_
_geom_bond_atom_site_label_1
_geom_bond_atom_site_label_2
_ccdc_geom_bond_type
C20   O31   A    
C25   O18   A    
Cr6   O2    S    
Cr3   O30   S    
C37   O26   D    
C36   H5    S    
C12   F1    S    
C14   C33   S    
Cr2   O14   S    
C26   C44   S    
C7    C8    A    
C12   C23   A    
C24   O10   A    
C31   O20   D    
Cr4   O32   S    
C35   H4    S    
Cr3   O23   S    
C28   C29   A    
C27   O17   A    
C5    C6    A    
C35   O24   D    
Cr2   O30   S    
C10   C17   A    
C32   O21   D    
Cr1   O30   S    
Cr6   O10   S    
C24   O5    A    
C2    C44   T    
C8    C9    A    
C2    C22   S    
C27   O29   A    
C16   O1    A    
C39   O28   D    
C38   H7    S    
C28   C34   A    
Cr5   O34   S    
Cr5   O7    S    
C13   C14   A    
C25   O19   A    
C18   O33   A    
C15   C35   S    
Cr2   O13   S    
Cr6   O3    S    
C36   O25   D    
C4    C34   S    
Cr4   O31   S    
C1    O13   A    
C20   O3    A    
Cr6   O11   S    
C23   C37   S    
C6    C21   S    
Cr1   O1    S    
Cr5   O33   S    
C13   C24   S    
C21   O7    A    
Cr6   O9    S    
C29   C30   A    
C3    C9    A    
Cr2   O19   S    
C29   C36   S    
C19   O2    A    
C23   C34   A    
C1    O4    A    
Cr1   O17   S    
Cr4   O6    S    
C16   C40   S    
C40   C41   T    
C8    C39   S    
C11   C32   S    
Cr5   O8    S    
C21   O6    A    
C18   O32   A    
Cr5   O11   S    
C18   C41   S    
C42   C43   T    
Cr3   O15   S    
C22   O9    A    
Cr2   O12   S    
C20   C43   S    
C9    C27   S    
C15   C17   A    
C39   H8    S    
C33   H3    S    
C12   C30   A    
Cr3   O29   S    
Cr4   O11   S    
C28   C31   S    
C3    C5    A    
C3    F2    S    
C6    C7    A    
C38   O27   D    
C17   C25   S    
C4    O15   A    
C11   C13   A    
C26   O23   A    
C26   O12   A    
C32   H2    S    
Cr1   O18   S    
C16   O16   A    
Cr4   O5    S    
C10   F4    S    
C33   O22   D    
C4    O14   A    
C37   H6    S    
C10   C11   A    
C1    C42   S    
Cr1   O4    S    
C7    F3    S    
C14   C15   A    
Cr3   O16   S    
C31   H1    S    
C5    C38   S    
C19   C30   S    
C22   O8    A    
C19   O34   A    
