data_mof_unit_7665.cif
_audit_creation_date              2013-03-05T16:15:21-0500
_audit_creation_method            fapswitch 2.2
_symmetry_space_group_name_H-M    P1
_symmetry_Int_Tables_number       1
_space_group_crystal_system       triclinic
_cell_length_a                    27.808625
_cell_length_b                    10.740546
_cell_length_c                    9.510664
_cell_angle_alpha                 90.745962
_cell_angle_beta                  91.309052
_cell_angle_gamma                 90.384993
_cell_volume                      2839.59135814

loop_
_atom_site_label
_atom_site_type_symbol
_atom_site_description
_atom_site_fract_x
_atom_site_fract_y
_atom_site_fract_z
_atom_type_partial_charge
O1    O     O_R   0.500020 0.316850 0.620870 -0.498842
O2    O     O_R   0.499980 0.683150 0.379130 -0.508018
O3    O     O_R   0.500000 0.316860 0.379090 -0.592174
O4    O     O_R   0.500000 0.683140 0.620910 -0.590813
C1    C     C_R   0.501207 0.259802 0.499800 0.904558
C2    C     C_R   0.500671 0.740528 0.500790 0.892332
O5    O     O_R   0.430270 0.500020 0.620880 -0.568603
O6    O     O_R   0.569730 0.499980 0.379120 -0.588505
O7    O     O_R   0.430250 0.500030 0.379090 -0.528547
O8    O     O_R   0.569750 0.499970 0.620910 -0.568160
C3    C     C_R   0.407739 0.501485 0.498596 0.941599
C4    C     C_R   0.592345 0.501561 0.501105 0.872577
Cu1   Cu    Cu3+1 0.500010 0.499990 0.643150 1.043178
Cu2   Cu    Cu3+1 0.499990 0.500010 0.356850 1.040786
C5    C     C_R   0.175865 0.401332 0.478173 0.614389
C6    C     C_R   0.823870 0.625428 0.506007 0.629347
O9    O     O_2   0.198045 0.303310 0.418631 -0.496429
O10   O     O_2   0.799506 0.732163 0.486094 -0.492113
N1    N     N_R   0.201464 0.508392 0.507838 -0.436904
N2    N     N_R   0.798875 0.515274 0.510084 -0.442595
C7    C     C_R   0.179151 0.611952 0.560053 0.590369
C8    C     C_R   0.822291 0.404471 0.524353 0.589674
C9    C     C_R   0.278083 0.593768 0.413463 -0.029806
C10   C     C_R   0.721757 0.449731 0.391578 -0.033547
C11   C     C_R   0.329112 0.596996 0.420985 -0.102542
C12   C     C_R   0.671170 0.437035 0.398594 -0.130001
C13   C     C_R   0.328601 0.411343 0.567542 -0.056433
C14   C     C_R   0.671557 0.583738 0.599239 -0.038667
C15   C     C_R   0.278834 0.419064 0.573872 -0.243020
C16   C     C_R   0.721668 0.580692 0.602196 -0.223561
C17   C     C_R   0.253137 0.507163 0.496557 0.333634
C18   C     C_R   0.747017 0.515949 0.499828 0.328608
C19   C     C_R   0.102429 0.503490 0.544235 -0.119962
C20   C     C_R   0.899208 0.512936 0.529327 -0.120624
C21   C     C_R   0.126691 0.393430 0.509331 -0.212500
C22   C     C_R   0.874644 0.627283 0.520359 -0.186438
C23   C     C_R   0.101893 0.278737 0.515814 0.415321
C24   C     C_R   0.901286 0.739351 0.520590 0.406317
C25   C     C_R   0.128955 0.613747 0.570613 0.039567
C26   C     C_R   0.872580 0.400957 0.525780 0.041755
C27   C     C_R   0.354526 0.503345 0.495592 -0.045357
C28   C     C_R   0.645598 0.506012 0.501732 -0.086190
H1    H     H_    0.259257 0.352207 0.635563 0.139546
H2    H     H_    0.741673 0.633652 0.682127 0.147575
C29   C     C_R   0.974413 0.392872 0.537725 0.108922
C30   C     C_R   0.027427 0.618240 0.568250 0.113204
C31   C     C_R   0.976751 0.622873 0.547554 -0.135438
C32   C     C_R   0.025716 0.389560 0.544656 -0.145515
C33   C     C_R   0.950270 0.509681 0.539944 0.022180
C34   C     C_R   0.051615 0.503582 0.551699 0.014927
C35   C     C_R   0.946209 0.283974 0.517089 -0.202858
C36   C     C_R   0.054958 0.723870 0.610079 -0.164401
C37   C     C_R   0.896469 0.287602 0.517617 -0.183135
C38   C     C_R   0.104900 0.721687 0.611232 -0.186034
O11   O     O_2   0.796886 0.297699 0.536170 -0.562866
O12   O     O_2   0.205373 0.712786 0.600857 -0.574765
C39   C     C_R   0.052932 0.277028 0.548968 0.323097
C40   C     C_R   0.951823 0.736478 0.523721 0.281278
H3    H     H_    0.876694 0.201009 0.504671 0.184319
H4    H     H_    0.124436 0.805592 0.641738 0.175220
H5    H     H_    0.961270 0.194030 0.496458 0.206612
H6    H     H_    0.038510 0.808303 0.646862 0.200794
C41   C     C_3   0.515572 0.042187 0.627226 0.541225
C42   C     C_3   0.488491 0.958803 0.376445 0.529904
C43   C     C_3   0.546937 0.959312 0.533275 -0.330989
C44   C     C_3   0.457157 0.042108 0.470364 -0.302700
H7    H     H_    0.583730 0.926155 0.558650 0.200570
H8    H     H_    0.420957 0.079565 0.445406 0.187123
C45   C     C_3   0.501837 0.877950 0.502388 -0.083648
C46   C     C_3   0.502166 0.122951 0.500757 -0.080200
C47   C     C_3   0.470684 0.960211 0.598617 -0.253353
C48   C     C_3   0.533201 0.040840 0.404911 -0.266354
H9    H     H_    0.445718 0.924834 0.678518 0.157939
H10   H     H_    0.557776 0.074783 0.323363 0.201814
C49   C     C_3   0.525452 0.590168 0.053089 0.592784
C50   C     C_3   0.475202 0.408882 0.945456 0.557040
C51   C     C_3   0.482139 0.602084 0.949010 -0.225651
C52   C     C_3   0.517873 0.396978 0.049929 -0.273813
H11   H     H_    0.467783 0.686964 0.899087 0.146097
H12   H     H_    0.532744 0.311165 0.097172 0.166397
N3    N     N_3   0.500040 0.499970 0.858290 -0.221685
N4    N     N_3   0.499960 0.500030 0.141710 -0.210722
C53   C     C_3   0.543396 0.488868 0.952710 -0.050624
C54   C     C_3   0.456713 0.509406 0.044499 -0.044568
C55   C     C_2   0.351370 0.301200 0.631385 0.366247
H13   H     H_    0.332551 0.249322 0.710690 0.060122
O13   O     O_2   0.389887 0.262976 0.590823 -0.567893
C56   C     C_2   0.649058 0.675172 0.695786 0.422495
H14   H     H_    0.669105 0.709111 0.787986 0.087375
O14   O     O_2   0.609451 0.718795 0.670982 -0.601522
O15   O     O_3   0.529344 0.094047 0.759227 -0.561807
C57   C     C_3   0.544013 0.998119 0.850212 0.079644
H15   H     H_    0.578614 0.957784 0.815700 0.171512
H16   H     H_    0.516426 0.922709 0.854938 0.150010
C58   C     C_3   0.551597 0.051700 0.997701 -0.744629
H17   H     H_    0.517776 0.093309 0.035491 0.247743
H18   H     H_    0.562323 0.976368 0.070010 0.238420
H19   H     H_    0.580297 0.124136 0.998420 0.230678
O16   O     O_3   0.478295 0.906184 0.242674 -0.535556
C59   C     C_3   0.432609 0.943208 0.193449 0.095996
H20   H     H_    0.434184 0.040976 0.158526 0.132232
H21   H     H_    0.404631 0.934656 0.274103 0.177170
C60   C     C_3   0.417382 0.857378 0.073385 -0.803905
H22   H     H_    0.421390 0.761338 0.110406 0.261227
H23   H     H_    0.379260 0.873019 0.041854 0.195576
H24   H     H_    0.440889 0.870734 0.982542 0.230371
O17   O     O_3   0.546479 0.698584 0.115154 -0.554587
C61   C     C_3   0.596399 0.684117 0.137108 0.110893
H25   H     H_    0.615224 0.712181 0.040624 0.180662
H26   H     H_    0.606413 0.587293 0.164885 0.171816
C62   C     C_3   0.613865 0.768666 0.257824 -0.752208
H27   H     H_    0.594884 0.745838 0.355506 0.254107
H28   H     H_    0.653049 0.755429 0.276640 0.212549
H29   H     H_    0.607388 0.867659 0.232723 0.238001
O18   O     O_3   0.453041 0.308024 0.872059 -0.518451
C63   C     C_3   0.418013 0.250037 0.952831 0.105177
H30   H     H_    0.383653 0.301368 0.942031 0.175041
H31   H     H_    0.429403 0.243144 0.065540 0.152287
C64   C     C_3   0.409341 0.119374 0.895320 -0.804657
H32   H     H_    0.442905 0.065675 0.906088 0.259622
H33   H     H_    0.379798 0.075012 0.953207 0.198389
H34   H     H_    0.399079 0.119139 0.782732 0.287108
C65   C     C_2   0.590890 0.446275 0.898552 0.385514
H35   H     H_    0.592168 0.361552 0.835380 0.123384
O19   O     O_2   0.628144 0.502179 0.927139 -0.626414
C66   C     C_2   0.404763 0.519913 0.083817 0.340429
H36   H     H_    0.382786 0.592962 0.039264 0.049856
O20   O     O_2   0.385371 0.440580 0.153867 -0.560352
O21   O     O_3   0.125218 0.166981 0.492409 -0.521292
C67   C     C_3   0.147211 0.126129 0.619026 0.090704
H37   H     H_    0.120205 0.078344 0.683696 0.159973
H38   H     H_    0.164130 0.203607 0.682367 0.111985
C68   C     C_3   0.186329 0.032898 0.584417 -0.690349
H39   H     H_    0.216175 0.079933 0.530065 0.265105
H40   H     H_    0.200812 0.991335 0.682805 0.205486
H41   H     H_    0.171443 0.957589 0.514822 0.264751
O22   O     O_3   0.877945 0.852102 0.504666 -0.523601
C69   C     C_3   0.884765 0.927595 0.626842 0.099622
H42   H     H_    0.911140 0.002301 0.604106 0.173240
H43   H     H_    0.898073 0.876305 0.721429 0.108784
C70   C     C_3   0.837218 0.987670 0.663881 -0.704480
H44   H     H_    0.811471 0.915426 0.698516 0.253821
H45   H     H_    0.843080 0.056789 0.750544 0.199968
H46   H     H_    0.821521 0.035482 0.570946 0.282303
C71   C     C_2   0.645610 0.350939 0.297851 0.341908
H47   H     H_    0.654131 0.350921 0.187114 0.076853
O23   O     O_2   0.615716 0.276865 0.338815 -0.567093
C72   C     C_2   0.355653 0.699975 0.354444 0.329609
H48   H     H_    0.343848 0.735848 0.253534 0.053636
O24   O     O_2   0.390353 0.748157 0.414718 -0.586276
C73   C     C_2   0.748183 0.392563 0.272640 0.413994
H49   H     H_    0.734881 0.308304 0.220729 0.066631
O25   O     O_2   0.784785 0.440715 0.229284 -0.533056
C74   C     C_2   0.251088 0.681267 0.321141 0.412591
H50   H     H_    0.265433 0.772981 0.299704 0.051702
O26   O     O_2   0.212657 0.650838 0.265804 -0.526728
O27   O     O_3   0.034297 0.165768 0.596403 -0.580987
C75   C     C_3   0.027420 0.176347 0.743214 0.051851
H51   H     H_    0.996297 0.237244 0.765886 0.163370
H52   H     H_    0.059984 0.214916 0.799502 0.125052
C76   C     C_3   0.017077 0.048372 0.802472 -0.784322
H53   H     H_    0.049160 0.988332 0.792787 0.230911
H54   H     H_    0.008324 0.057262 0.915487 0.201187
H55   H     H_    0.986159 0.004202 0.744911 0.257362
O28   O     O_3   0.975963 0.845626 0.493433 -0.592755
C77   C     C_3   0.986435 0.845266 0.348782 0.071097
H56   H     H_    0.952645 0.849652 0.283914 0.165213
H57   H     H_    0.006950 0.760775 0.317954 0.149371
C78   C     C_3   0.017206 0.958671 0.317235 -0.685514
H58   H     H_    0.050724 0.958134 0.383097 0.282821
H59   H     H_    0.026882 0.957344 0.204589 0.183635
H60   H     H_    0.996992 0.045101 0.339561 0.249338

loop_
_geom_bond_atom_site_label_1
_geom_bond_atom_site_label_2
_geom_bond_distance
_ccdc_geom_bond_type
C2    C45   1.475997 S    
C44   H8    1.108426 S    
C41   C43   1.541703 S    
C49   O17   1.415439 S    
O28   C77   1.412663 S    
C30   C36   1.412165 A    
C13   C15   1.389634 A    
C78   H58   1.111166 S    
C56   O14   1.219130 D    
C67   H38   1.116002 S    
C58   H17   1.109230 S    
C35   H5    1.073055 S    
C42   C48   1.535988 S    
N1    C17   1.443525 S    
C50   C54   1.523302 S    
C71   H47   1.084774 S    
C37   H3    1.081487 S    
C58   H19   1.110653 S    
C32   C39   1.430909 A    
C31   C33   1.417316 A    
C38   H4    1.082062 S    
C55   H13   1.085490 S    
C63   H30   1.109772 S    
O5    C3    1.308708 A    
C66   H36   1.082553 S    
O1    C1    1.298468 A    
N1    C7    1.370328 A    
C50   C52   1.537259 S    
O21   C67   1.414369 S    
C70   H45   1.110552 S    
C52   H12   1.108960 S    
C29   C32   1.427381 A    
C25   C38   1.396920 A    
C29   C35   1.412925 A    
O18   C63   1.401901 S    
Cu1   N3    2.046109 S    
C50   O18   1.411453 S    
C61   H25   1.110842 S    
C45   C47   1.547301 S    
C14   C28   1.420994 A    
O4    Cu1   1.981207 S    
C13   C55   1.476575 S    
C40   O28   1.383819 S    
C13   C27   1.412455 A    
C59   H20   1.106362 S    
C4    C28   1.481214 S    
C75   C76   1.520494 S    
N3    C53   1.493146 S    
C24   C40   1.405579 A    
C52   C53   1.541772 S    
C75   H52   1.115914 S    
C42   O16   1.407506 S    
C62   H28   1.110578 S    
C62   H27   1.108324 S    
C61   H26   1.111981 S    
C43   H7    1.108061 S    
C14   C56   1.486626 S    
C68   H41   1.110301 S    
C66   O20   1.218899 D    
O17   C61   1.409026 S    
C76   H54   1.110526 S    
C51   N3    1.482377 S    
C62   H29   1.107759 S    
C74   O26   1.221080 D    
O6    C4    1.306817 A    
C73   O25   1.221138 D    
C73   H49   1.084033 S    
Cu1   Cu2   2.722892 S    
C15   H1    1.084706 S    
C77   H57   1.114738 S    
C78   H59   1.110500 S    
C16   H2    1.084485 S    
O2    C2    1.303545 A    
C5    C21   1.408054 A    
C71   O23   1.220599 D    
C36   C38   1.388955 A    
C76   H53   1.109160 S    
C64   H33   1.107837 S    
C54   C66   1.505111 S    
C55   O13   1.218713 D    
C63   C64   1.515346 S    
C65   H35   1.085104 S    
C72   H48   1.083616 S    
O4    C2    1.305586 A    
C70   H46   1.110266 S    
C11   C27   1.421234 A    
O15   C57   1.410497 S    
C47   H9    1.109937 S    
C51   C54   1.535889 S    
C19   C34   1.416471 A    
C69   C70   1.521673 S    
C57   C58   1.518919 S    
O27   C75   1.416832 S    
C35   C37   1.384125 A    
C9    C17   1.416519 A    
C75   H51   1.111670 S    
C59   C60   1.509407 S    
C12   C71   1.488388 S    
C5    N1    1.371122 A    
O7    Cu2   1.955673 S    
C10   C18   1.414347 A    
C44   C47   1.553862 S    
C1    C46   1.470422 S    
C10   C73   1.490833 S    
O7    C3    1.310006 A    
C52   N4    1.495761 S    
O16   C59   1.405640 S    
C7    C25   1.402014 A    
C41   C46   1.532708 S    
C29   C33   1.427044 A    
C6    N2    1.369590 A    
C8    C26   1.399002 A    
C57   H16   1.113867 S    
C51   H11   1.106100 S    
C60   H23   1.109601 S    
C19   C25   1.407661 A    
C42   C45   1.528956 S    
C56   H14   1.085902 S    
C49   C51   1.548490 S    
C74   H50   1.083838 S    
C41   C47   1.539763 S    
O3    Cu2   1.981206 S    
O8    C4    1.313940 A    
C72   O24   1.219773 D    
C48   H10   1.108901 S    
N2    C8    1.367228 A    
N4    C54   1.504824 S    
C77   H56   1.113827 S    
C78   H60   1.109109 S    
C20   C26   1.407764 A    
C67   C68   1.522101 S    
O1    Cu1   1.975663 S    
Cu2   N4    2.046109 S    
C76   H55   1.109176 S    
C12   C28   1.427157 A    
C59   H21   1.109202 S    
N2    C18   1.443246 S    
C64   H34   1.101811 S    
C5    O9    1.348592 S    
C39   O27   1.384373 S    
C30   C31   1.419761 A    
C20   C33   1.421958 A    
O6    Cu2   1.946091 S    
C21   C23   1.410427 A    
C10   C12   1.415603 A    
O3    C1    1.308242 A    
O8    Cu1   1.955673 S    
C50   N3    1.469588 S    
C7    O12   1.349363 S    
C64   H32   1.103970 S    
C58   H18   1.106760 S    
C49   N4    1.479700 S    
C8    O11   1.350166 S    
C69   H43   1.118098 S    
C43   C48   1.553745 S    
O22   C69   1.416662 S    
C30   C34   1.415869 A    
C61   C62   1.523189 S    
C22   C24   1.409116 A    
C67   H37   1.109005 S    
C14   C16   1.393758 A    
C15   C17   1.396385 A    
C36   H6    1.076386 S    
C70   H44   1.110497 S    
C6    C22   1.415401 A    
C31   C40   1.425522 A    
C16   C18   1.395937 A    
C49   C53   1.531731 S    
C68   H39   1.109969 S    
C43   C45   1.544235 S    
C32   C34   1.416624 A    
C57   H15   1.112462 S    
C19   C21   1.404814 A    
C24   O22   1.386222 S    
C63   H31   1.114329 S    
C3    C27   1.479675 S    
C60   H24   1.105490 S    
C20   C22   1.411938 A    
C9    C11   1.419377 A    
O2    Cu2   1.975662 S    
C65   O19   1.217484 D    
C69   H42   1.110128 S    
O5    Cu1   1.946091 S    
C44   C46   1.538311 S    
C77   C78   1.520883 S    
C6    O10   1.348827 S    
C26   C37   1.392985 A    
C9    C74   1.489494 S    
C41   O15   1.410659 S    
C60   H22   1.099832 S    
C68   H40   1.110477 S    
C46   C48   1.542338 S    
C53   C65   1.500675 S    
C11   C72   1.482299 S    
C23   O21   1.386040 S    
C23   C39   1.404643 A    
C42   C44   1.543657 S    
