data_mof_unit_63963.cif
_audit_creation_date              2013-03-05T15:44:58-0500
_audit_creation_method            fapswitch 2.2
_symmetry_space_group_name_H-M    P1
_symmetry_Int_Tables_number       1
_space_group_crystal_system       triclinic
_cell_length_a                    15.191986
_cell_length_b                    15.135325
_cell_length_c                    15.386722
_cell_angle_alpha                 96.848379
_cell_angle_beta                  82.934
_cell_angle_gamma                 89.902359
_cell_volume                      3485.55321169

loop_
_atom_site_label
_atom_site_type_symbol
_atom_site_description
_atom_site_fract_x
_atom_site_fract_y
_atom_site_fract_z
_atom_type_partial_charge
Zn1   Zn    Zn3+2 0.563990 0.442880 0.581560 1.065860
Zn2   Zn    Zn3+2 0.442900 0.409640 0.427210 1.128081
Zn3   Zn    Zn3+2 0.583480 0.566840 0.426280 1.114441
Zn4   Zn    Zn3+2 0.409620 0.580640 0.564950 1.136294
O1    O     O_3   0.500000 0.500000 0.500000 -0.568306
O2    O     O_R   0.291500 0.546870 0.537740 -0.594762
O3    O     O_R   0.690030 0.469590 0.564810 -0.632878
O4    O     O_R   0.466830 0.291510 0.457690 -0.605713
O5    O     O_R   0.551640 0.692030 0.439770 -0.600993
O6    O     O_R   0.486020 0.413600 0.304760 -0.622463
O7    O     O_R   0.410760 0.579600 0.689750 -0.576933
O8    O     O_R   0.584420 0.523620 0.304110 -0.569910
O9    O     O_R   0.518800 0.483180 0.701380 -0.642683
O10   O     O_R   0.551580 0.314770 0.565720 -0.603584
O11   O     O_R   0.429950 0.701690 0.536820 -0.612711
O12   O     O_R   0.314790 0.427190 0.441330 -0.584585
O13   O     O_R   0.703670 0.556350 0.456130 -0.594680
C1    C     C_R   0.261532 0.484932 0.486669 0.940013
C2    C     C_R   0.737119 0.517068 0.514305 0.895179
C3    C     C_R   0.512686 0.261704 0.512540 0.932437
C4    C     C_R   0.487692 0.737724 0.485625 0.853423
C5    C     C_R   0.544175 0.459484 0.263411 0.911383
C6    C     C_R   0.455878 0.538110 0.737726 0.904587
C7    C     C_R   0.583425 0.321773 0.042799 0.290319
C8    C     C_R   0.560566 0.437655 0.167771 -0.206760
C9    C     C_R   0.388094 0.631339 0.876805 0.204048
C10   C     C_R   0.370620 0.645858 0.969353 0.251099
C11   C     C_R   0.407243 0.587231 0.019022 -0.146164
C12   C     C_R   0.462579 0.515196 0.978855 0.044052
C13   C     C_R   0.460516 0.488763 0.888279 -0.080788
C14   C     C_R   0.512818 0.464380 0.027891 -0.035882
C15   C     C_R   0.547252 0.379101 0.989003 -0.144751
C16   C     C_R   0.540961 0.352295 0.898510 0.164501
C17   C     C_R   0.484974 0.399907 0.853859 0.254568
C18   C     C_R   0.531599 0.497076 0.113954 0.228165
C19   C     C_R   0.587224 0.350549 0.132425 0.065657
C20   C     C_R   0.433108 0.552020 0.835219 -0.180811
H1    H     H_    0.390571 0.598001 0.089630 0.228745
C21   C     C_R   0.166295 0.482553 0.477932 -0.285584
C22   C     C_R   0.831312 0.522362 0.522269 -0.219971
C23   C     C_R   0.947778 0.542606 0.616460 0.296502
C24   C     C_R   0.858172 0.546651 0.605476 0.055545
C25   C     C_R   0.893074 0.495131 0.448577 0.273498
C26   C     C_R   0.984117 0.486866 0.458653 -0.156494
C27   C     C_R   0.012376 0.514012 0.543091 -0.146828
C28   C     C_R   0.104235 0.511864 0.551497 0.256549
C29   C     C_R   0.137910 0.452038 0.396261 0.186640
C30   C     C_R   0.047550 0.451605 0.387038 0.250942
C31   C     C_R   0.524867 0.165718 0.510336 -0.224101
C32   C     C_R   0.482199 0.833009 0.483111 -0.130122
C33   C     C_R   0.393231 0.961902 0.472527 -0.088647
C34   C     C_R   0.402931 0.870448 0.465307 0.135296
C35   C     C_R   0.553694 0.887097 0.504435 0.154153
C36   C     C_R   0.547991 0.979931 0.499677 -0.070740
C37   C     C_R   0.464327 0.017531 0.489960 -0.053973
C38   C     C_R   0.452340 0.110201 0.498658 0.262549
C39   C     C_R   0.610351 0.129075 0.509588 0.055628
C40   C     C_R   0.622126 0.036465 0.504610 0.276021
H2    H     H_    0.329590 0.988617 0.462850 0.217160
I1    I     I_    0.631227 0.260275 0.216276 -0.021439
N1    N     N_R   0.201099 0.423083 0.320848 0.253121
O14   O     O_R   0.255895 0.479562 0.287182 -0.339262
O15   O     O_R   0.201081 0.341427 0.283166 -0.239834
N2    N     N_R   0.970886 0.563666 0.703914 0.246318
O16   O     O_R   0.970606 0.646266 0.739050 -0.239663
O17   O     O_R   0.975789 0.500416 0.753518 -0.255353
N3    N     N_R   0.021571 0.411795 0.304952 0.260188
O18   O     O_R   0.046064 0.446805 0.232728 -0.224577
O19   O     O_R   0.987950 0.332615 0.300048 -0.243144
I2    I     I_    0.763246 0.593107 0.717145 -0.076244
N4    N     N_R   0.862243 0.478475 0.363689 0.236357
O20   O     O_R   0.810871 0.411516 0.346668 -0.339330
O21   O     O_R   0.874327 0.537766 0.308903 -0.263402
N5    N     N_R   0.365921 0.148444 0.497346 0.210841
O22   O     O_R   0.332355 0.146059 0.423275 -0.304876
O23   O     O_R   0.326033 0.195090 0.567717 -0.294034
I3    I     I_    0.725681 0.211273 0.500244 -0.024901
N6    N     N_R   0.710752 0.000609 0.491125 0.233245
O24   O     O_R   0.763755 0.018522 0.551010 -0.273961
O25   O     O_R   0.740377 0.954371 0.416413 -0.283388
I4    I     I_    0.293524 0.792902 0.428686 -0.057030
I5    I     I_    0.639300 0.266040 0.818045 0.038320
I6    I     I_    0.655455 0.827945 0.566449 -0.063493
N7    N     N_R   0.601522 0.229682 0.011902 0.230023
O26   O     O_R   0.537194 0.177687 0.991378 -0.277613
O27   O     O_R   0.680828 0.196265 0.009966 -0.267630
N8    N     N_R   0.530722 0.591101 0.143381 0.209352
O28   O     O_R   0.483159 0.623995 0.216305 -0.369309
O29   O     O_R   0.574860 0.644727 0.094670 -0.290824
N9    N     N_R   0.357731 0.695661 0.825606 0.254293
O30   O     O_R   0.273488 0.704140 0.819818 -0.217441
O31   O     O_R   0.413854 0.748668 0.788224 -0.314836
N10   N     N_R   0.319369 0.721777 0.014174 0.254309
O32   O     O_R   0.323116 0.797750 0.982337 -0.226854
O33   O     O_R   0.275777 0.717894 0.091898 -0.275781
N11   N     N_R   0.438386 0.353388 0.785707 0.225925
O34   O     O_R   0.464722 0.275197 0.746757 -0.315908
O35   O     O_R   0.359519 0.380791 0.775199 -0.322260
N12   N     N_R   0.135972 0.539829 0.634325 0.242064
O36   O     O_R   0.148818 0.623956 0.657183 -0.248313
O37   O     O_R   0.167408 0.480993 0.678022 -0.275179

loop_
_geom_bond_atom_site_label_1
_geom_bond_atom_site_label_2
_geom_bond_distance
_ccdc_geom_bond_type
C28   N12   1.434946 S    
N10   O32   1.301188 A    
C23   C24   1.394349 A    
N8    O28   1.301953 A    
N9    O30   1.300979 A    
C35   C36   1.418721 A    
O6    C5    1.279365 A    
C9    C10   1.406687 A    
C3    C31   1.460046 S    
N5    O23   1.301094 A    
Zn1   O1    1.955340 S    
C11   C12   1.409159 A    
C17   N11   1.450696 S    
N6    O25   1.301389 A    
O8    C5    1.288224 A    
C24   I2    2.150615 S    
C31   C39   1.409474 A    
O9    C6    1.293291 A    
N1    O15   1.301065 A    
C1    C21   1.469545 S    
Zn3   O8    1.913599 S    
C18   N8    1.440547 S    
C22   C25   1.400509 A    
N12   O36   1.301526 A    
C5    C8    1.459573 S    
N11   O35   1.302183 A    
C32   C34   1.400777 A    
Zn2   O12   1.945784 S    
C16   I5    2.149871 S    
C22   C24   1.399130 A    
N10   O33   1.301650 A    
C34   I4    2.130028 S    
C4    C32   1.449825 S    
O2    C1    1.271770 A    
C32   C35   1.408613 A    
C38   N5    1.437275 S    
N5    O22   1.301358 A    
C13   C17   1.416773 A    
C33   C34   1.381533 A    
C29   C30   1.397267 A    
O10   C3    1.275785 A    
N7    O26   1.301297 A    
Zn4   O2    1.947719 S    
N4    O21   1.300964 A    
N6    O24   1.301784 A    
C19   I1    2.146586 S    
C6    C20   1.486959 S    
N3    O18   1.301381 A    
C13   C20   1.423114 A    
N3    O19   1.301065 A    
N2    O17   1.300966 A    
C25   C26   1.417577 A    
C7    C15   1.421831 A    
C12   C13   1.407539 A    
Zn3   O5    1.935373 S    
C39   I3    2.150897 S    
N9    O31   1.301221 A    
C14   C15   1.426235 A    
C11   H1    1.077473 S    
N11   O34   1.300018 A    
C37   C38   1.402388 A    
C16   C17   1.405179 A    
O4    C3    1.278849 A    
Zn4   O7    1.924409 S    
C8    C18   1.397880 A    
C21   C28   1.408266 A    
N12   O37   1.301334 A    
O3    C2    1.276791 A    
N8    O29   1.301315 A    
C14   C18   1.420229 A    
C10   N10   1.441538 S    
Zn2   O1    1.937802 S    
C33   H2    1.081142 S    
Zn2   O6    1.925093 S    
C26   C27   1.432351 A    
C21   C29   1.404997 A    
C36   C40   1.419579 A    
C36   C37   1.423483 A    
C25   N4    1.435737 S    
Zn1   O3    1.949969 S    
Zn2   O4    1.946417 S    
N7    O27   1.301446 A    
Zn4   O1    1.933770 S    
Zn3   O1    1.960254 S    
C29   N1    1.436405 S    
C9    C20   1.422904 A    
C9    N9    1.432459 S    
C31   C38   1.402945 A    
C7    C19   1.403992 A    
C35   I6    2.159604 S    
C15   C16   1.417965 A    
Zn4   O11   1.948742 S    
C7    N7    1.432790 S    
N4    O20   1.301702 A    
C12   C14   1.421764 A    
N2    O16   1.301338 A    
O5    C4    1.277745 A    
C39   C40   1.404549 A    
O7    C6    1.281658 A    
O13   C2    1.284820 A    
Zn3   O13   1.947535 S    
C33   C37   1.402848 A    
C30   N3    1.433882 S    
N1    O14   1.301533 A    
C2    C22   1.452696 S    
C40   N6    1.432578 S    
C8    C19   1.403906 A    
C27   C28   1.417928 A    
O11   C4    1.273393 A    
Zn1   O9    1.913468 S    
O12   C1    1.272167 A    
C10   C11   1.394869 A    
C23   C27   1.426297 A    
Zn1   O10   1.937644 S    
C23   N2    1.431737 S    
C26   C30   1.422836 A    
