data_mof_unit_11090.cif
_audit_creation_date              2012-12-10T17:42:51-0500
_audit_creation_method            fapswitch 2.2
_symmetry_space_group_name_H-M    P1
_symmetry_Int_Tables_number       1
_space_group_crystal_system       triclinic
_cell_length_a                    15.054022
_cell_length_b                    13.882107
_cell_length_c                    15.912411
_cell_angle_alpha                 90.222356
_cell_angle_beta                  87.325014
_cell_angle_gamma                 90.947113
_cell_volume                      3321.30676381

loop_
_atom_site_label
_atom_site_type_symbol
_atom_type_description
_atom_site_fract_x
_atom_site_fract_y
_atom_site_fract_z
_atom_type_partial_charge
C1    C     C_R   0.329356 0.499274 0.498909 0.798814
C2    C     C_3   0.581682 0.510186 0.945521 -0.534883
C3    C     C_3   0.589446 0.491651 0.041721 -0.080728
C4    C     C_1   0.488407 0.499353 0.824063 0.183649
C5    C     C_1   0.493586 0.497590 0.176262 0.074919
C6    C     C_1   0.496926 0.499058 0.251425 0.115779
C7    C     C_R   0.816421 0.503658 0.423131 -0.135698
C8    C     C_R   0.767472 0.502912 0.500258 -0.199686
C9    C     C_R   0.811130 0.506256 0.576436 -0.046175
C10   C     C_R   0.904586 0.522212 0.574089 -0.024757
C11   C     C_R   0.953728 0.503073 0.497441 0.064175
C12   C     C_R   0.499878 0.499819 0.340566 0.919123
C13   C     C_R   0.908785 0.486582 0.422266 -0.002820
C14   C     C_R   0.950011 0.556861 0.645043 -0.048979
C15   C     C_R   0.043820 0.560121 0.642402 -0.103804
C16   C     C_R   0.092100 0.530240 0.568693 0.054219
C17   C     C_R   0.047350 0.501347 0.495924 0.084190
C18   C     C_R   0.096554 0.472038 0.421547 -0.036085
C19   C     C_R   0.050672 0.454504 0.346410 -0.051943
C20   C     C_R   0.956964 0.457093 0.347989 -0.094785
C21   C     C_R   0.185040 0.533793 0.564737 -0.215786
C22   C     C_R   0.233123 0.497995 0.495633 -0.064223
C23   C     C_R   0.670679 0.500777 0.500807 0.877806
C24   C     C_R   0.190153 0.461092 0.425731 -0.049396
C25   C     C_R   0.444305 0.792221 0.556406 0.123400
C26   C     C_R   0.440444 0.206484 0.552947 0.114643
C27   C     C_R   0.553818 0.795246 0.443640 0.113699
C28   C     C_R   0.556552 0.206182 0.446127 0.107725
C29   C     C_R   0.554299 0.897892 0.443793 -0.009244
C30   C     C_R   0.555663 0.103605 0.445141 -0.013538
C31   C     C_R   0.496015 0.948287 0.499905 0.079300
C32   C     C_R   0.496929 0.051657 0.500876 0.083317
C33   C     C_R   0.437018 0.895371 0.554378 -0.075036
C34   C     C_R   0.440390 0.102939 0.557856 -0.078090
C35   C     C_R   0.612712 0.951432 0.389565 -0.142604
C36   C     C_R   0.613322 0.051667 0.390173 -0.157537
C37   C     C_R   0.383735 0.048819 0.615515 -0.079851
C38   C     C_R   0.375175 0.947429 0.607177 -0.079228
C39   C     C_R   0.497630 0.500078 0.659438 0.837791
C40   C     C_3   0.445640 0.596795 0.053914 -0.243905
C41   C     C_3   0.434958 0.399661 0.053438 -0.233259
C42   C     C_3   0.442690 0.395729 0.949897 -0.170841
C43   C     C_3   0.427991 0.587533 0.954158 -0.187272
C44   C     C_1   0.492908 0.500079 0.748714 0.018792
C45   C     C_3   0.489525 0.496234 0.083671 -0.043522
C46   C     C_3   0.483867 0.497741 0.916866 0.142453
Cu1   Cu    Cu3+1 0.499990 0.597420 0.500010 1.019481
Cu2   Cu    Cu3+1 0.499990 0.402580 0.500010 1.016944
H1    H     H_    0.222039 0.561264 0.616624 0.116820
H2    H     H_    0.659446 0.916527 0.346152 0.174700
H3    H     H_    0.660384 0.087909 0.347088 0.168153
H4    H     H_    0.604600 0.584370 0.929281 0.236973
H5    H     H_    0.630026 0.466925 0.907346 0.205046
N1    N     N_R   0.499930 0.743810 0.499960 -0.249367
N2    N     N_R   0.499930 0.256190 0.499960 -0.246173
O1    O     O_R   0.370250 0.582280 0.500020 -0.610466
O2    O     O_R   0.370250 0.417720 0.500020 -0.570297
O3    O     O_R   0.499990 0.582310 0.379440 -0.568796
O4    O     O_R   0.499990 0.417690 0.379440 -0.537202
O5    O     O_R   0.629730 0.582260 0.499990 -0.586925
O6    O     O_R   0.629730 0.417740 0.499990 -0.606572
O7    O     O_R   0.499980 0.582240 0.620570 -0.554034
O8    O     O_R   0.499980 0.417760 0.620570 -0.614469
C47   C     C_2   0.329497 0.572022 0.936238 0.354076
H6    H     H_    0.281496 0.547091 0.984319 0.109723
O9    O     O_2   0.302985 0.582426 0.865343 -0.515409
C48   C     C_2   0.353032 0.374933 0.908609 0.322186
H7    H     H_    0.289229 0.380276 0.941906 0.152428
O10   O     O_2   0.350542 0.355704 0.833627 -0.550259
C49   C     C_2   0.091787 0.595157 0.716867 0.445692
H8    H     H_    0.144864 0.553025 0.741274 0.115208
O11   O     O_2   0.073770 0.672307 0.750037 -0.474449
C50   C     C_2   0.243206 0.404774 0.362452 0.870365
O12   O     O_2   0.303831 0.443708 0.320877 -0.621055
O13   O     O_R   0.223404 0.307063 0.350829 -0.686260
H9    H     H_    0.263949 0.276357 0.306027 0.376029
C51   C     C_2   0.099095 0.441792 0.263775 0.935023
O14   O     O_2   0.142940 0.508817 0.232903 -0.554095
O15   O     O_R   0.093560 0.353752 0.221217 -0.692662
H10   H     H_    0.128465 0.354483 0.165204 0.375045
C52   C     C_2   0.908508 0.419268 0.274724 0.491921
H11   H     H_    0.851877 0.370736 0.285528 0.081228
O16   O     O_2   0.928383 0.445185 0.202946 -0.464456
C53   C     C_2   0.401170 0.737646 0.626653 0.478150
H12   H     H_    0.346880 0.687719 0.616523 0.074481
O17   O     O_2   0.425380 0.750302 0.698073 -0.480845
C54   C     C_2   0.368867 0.260889 0.596596 0.474206
H13   H     H_    0.381895 0.304815 0.651074 0.113601
O18   O     O_2   0.292957 0.254109 0.572992 -0.494176
C55   C     C_2   0.614376 0.743670 0.384229 0.450348
H14   H     H_    0.673763 0.710941 0.406020 0.081862
O19   O     O_2   0.600306 0.741758 0.309336 -0.475697
C56   C     C_2   0.617035 0.259230 0.386416 0.463884
H15   H     H_    0.679229 0.289451 0.406884 0.062991
O20   O     O_2   0.599821 0.264506 0.312383 -0.468577
C57   C     C_2   0.339758 0.094788 0.690597 0.895829
O21   O     O_2   0.258593 0.097292 0.698336 -0.495248
O22   O     O_R   0.392083 0.135503 0.752177 -0.740464
H16   H     H_    0.355057 0.163240 0.801007 0.364614
C58   C     C_2   0.295545 0.898605 0.647719 0.893797
O23   O     O_2   0.283514 0.899334 0.724287 -0.497529
O24   O     O_R   0.235508 0.849899 0.597524 -0.748143
H17   H     H_    0.184843 0.817980 0.631839 0.363098
C59   C     C_2   0.360686 0.623870 0.105243 0.304230
H18   H     H_    0.346145 0.593785 0.167272 0.137950
O25   O     O_2   0.313812 0.689120 0.082648 -0.488337
C60   C     C_2   0.336874 0.399407 0.085477 0.272433
H19   H     H_    0.303232 0.461548 0.108991 0.110903
O26   O     O_2   0.292246 0.324858 0.085277 -0.518346
C61   C     C_2   0.468522 0.309155 0.101082 0.971276
O27   O     O_2   0.453955 0.303376 0.177378 -0.513804
O28   O     O_R   0.513110 0.232710 0.061528 -0.784610
H20   H     H_    0.529670 0.180456 0.102047 0.372167
C62   C     C_2   0.507813 0.682743 0.077944 0.887437
O29   O     O_2   0.510266 0.707700 0.151827 -0.503496
O30   O     O_R   0.564826 0.730489 0.019232 -0.773520
H21   H     H_    0.601714 0.783524 0.045311 0.361571
C63   C     C_2   0.497190 0.310488 0.914976 0.502350
H22   H     H_    0.469726 0.238015 0.922730 0.155538
O31   O     O_2   0.565284 0.319754 0.870915 -0.563772
C64   C     C_2   0.449253 0.683616 0.909373 0.608224
H23   H     H_    0.410989 0.746534 0.927965 0.128105
O32   O     O_2   0.507785 0.692986 0.854107 -0.480344
C65   C     C_2   0.656651 0.564322 0.075392 0.461195
H24   H     H_    0.701886 0.603904 0.032446 0.089716
O33   O     O_2   0.665324 0.575049 0.150718 -0.480892
C66   C     C_2   0.635262 0.396236 0.054978 0.408560
H25   H     H_    0.655300 0.350587 0.002298 0.135168
O34   O     O_2   0.652817 0.370098 0.125536 -0.449030
C67   C     C_2   0.774307 0.538037 0.346338 0.826477
O35   O     O_2   0.704920 0.501513 0.323775 -0.572550
O36   O     O_R   0.815748 0.612798 0.299839 -0.705084
H26   H     H_    0.781101 0.632504 0.249904 0.390801
C68   C     C_2   0.759854 0.486149 0.656768 0.827282
O37   O     O_2   0.694279 0.533195 0.676776 -0.578603
O38   O     O_R   0.788292 0.414382 0.710221 -0.719441
H27   H     H_    0.748730 0.407848 0.763307 0.355927
C69   C     C_2   0.900837 0.598634 0.719389 0.945356
O39   O     O_2   0.851202 0.666288 0.710258 -0.534953
O40   O     O_R   0.912039 0.561019 0.799524 -0.706677
H28   H     H_    0.874878 0.595296 0.844842 0.350396

loop_
_geom_bond_atom_site_label_1
_geom_bond_atom_site_label_2
_ccdc_geom_bond_type
C8    C9    A    
Cu2   N2    S    
C54   H13   S    
C56   H15   S    
C27   C29   A    
C34   C37   A    
C50   O13   S    
C41   C42   S    
C19   C20   A    
C26   N2    A    
Cu1   O7    S    
C21   H1    S    
C62   O29   D    
Cu2   O6    S    
C27   N1    A    
C7    C8    A    
C4    C46   S    
C51   O14   D    
C2    C46   S    
C16   C21   A    
C18   C24   A    
C1    O1    A    
C53   O17   D    
C6    C12   S    
C5    C6    T    
C3    C66   S    
C24   C50   S    
C15   C16   A    
C8    C23   S    
O30   H21   S    
C27   C55   S    
C18   C19   A    
C50   O12   D    
C19   C51   S    
C61   O27   D    
O28   H20   S    
C7    C67   S    
Cu1   O5    S    
C63   H22   S    
C12   O4    A    
C26   C34   A    
C40   C43   S    
C40   C62   S    
C14   C69   S    
C26   C54   S    
C57   O22   S    
C25   C53   S    
C60   H19   S    
C31   C33   A    
C49   H8    S    
C9    C10   A    
C43   C64   S    
C12   O3    A    
C9    C68   S    
C1    C22   S    
C56   O20   D    
C21   C22   A    
C60   O26   D    
C40   C45   S    
C59   O25   D    
C59   H18   S    
C52   O16   D    
C28   N2    A    
C43   C47   S    
C52   H11   S    
C61   O28   S    
C51   O15   S    
C23   O5    A    
C48   H7    S    
C15   C49   S    
Cu2   O2    S    
O40   H28   S    
C38   C58   S    
C10   C14   A    
O36   H26   S    
Cu2   O8    S    
C68   O38   S    
C4    C44   T    
C5    C45   S    
C3    C45   S    
C37   C57   S    
C28   C56   S    
C48   O10   D    
C35   C36   A    
C32   C34   A    
C67   O36   S    
O13   H9    S    
C66   O34   D    
C37   C38   A    
C1    O2    A    
C40   C59   S    
C55   O19   D    
Cu1   Cu2   S    
C7    C13   A    
C57   O21   D    
C35   H2    S    
C58   O24   S    
C17   C18   A    
C53   H12   S    
C64   H23   S    
C68   O37   D    
C36   H3    S    
C2    H4    S    
C25   N1    A    
Cu1   N1    S    
C41   C61   S    
C54   O18   D    
C42   C46   S    
C42   C48   S    
C22   C24   A    
C66   H25   S    
C3    C65   S    
Cu2   O4    S    
C65   O33   D    
C39   O7    A    
C11   C17   A    
C41   C60   S    
C13   C20   A    
C31   C32   A    
C42   C63   S    
O38   H27   S    
C2    H5    S    
C62   O30   S    
C39   C44   S    
C69   O40   S    
C39   O8    A    
C29   C35   A    
C33   C38   A    
C30   C36   A    
C47   H6    S    
C28   C30   A    
C2    C3    S    
C29   C31   A    
Cu1   O3    S    
C30   C32   A    
C11   C13   A    
C55   H14   S    
C16   C17   A    
C58   O23   D    
C67   O35   D    
O24   H17   S    
C43   C46   S    
C63   O31   D    
C64   O32   D    
C10   C11   A    
O15   H10   S    
C23   O6    A    
O22   H16   S    
C25   C33   A    
C41   C45   S    
C14   C15   A    
C65   H24   S    
C49   O11   D    
C20   C52   S    
C69   O39   D    
C47   O9    D    
Cu1   O1    S    
