data_mof_unit_60637.cif
_audit_creation_date              2012-12-10T19:07:54-0500
_audit_creation_method            fapswitch 2.2
_symmetry_space_group_name_H-M    P1
_symmetry_Int_Tables_number       1
_space_group_crystal_system       triclinic
_cell_length_a                    37.276846
_cell_length_b                    30.287723
_cell_length_c                    21.62813
_cell_angle_alpha                 89.999626
_cell_angle_beta                  54.300336
_cell_angle_gamma                 89.999982
_cell_volume                      19830.2087759

loop_
_atom_site_label
_atom_site_type_symbol
_atom_type_description
_atom_site_fract_x
_atom_site_fract_y
_atom_site_fract_z
_atom_type_partial_charge
C1    C     C_R   0.086256 0.499965 0.413737 0.861572
C2    C     C_R   0.913743 0.499965 0.586263 0.861587
C3    C     C_R   0.586256 0.999965 0.413737 0.861523
C4    C     C_R   0.413743 0.999964 0.586263 0.861531
C5    C     C_R   0.000582 0.499001 0.813974 -0.079559
C6    C     C_R   0.999416 0.499001 0.186031 -0.079601
C7    C     C_R   0.500586 0.998996 0.813962 -0.079695
C8    C     C_R   0.499414 0.998997 0.186038 -0.079693
C9    C     C_R   0.973213 0.526539 0.807951 0.165987
C10   C     C_R   0.026840 0.526487 0.191999 0.165994
C11   C     C_R   0.473068 0.026386 0.808087 0.166099
C12   C     C_R   0.526931 0.026387 0.191913 0.166122
C13   C     C_3   0.938583 0.561289 0.847484 -0.464922
C14   C     C_3   0.061538 0.561168 0.152393 -0.464839
C15   C     C_3   0.438240 0.060938 0.847818 -0.464602
C16   C     C_3   0.561760 0.060938 0.152181 -0.464590
C17   C     C_3   0.939351 0.562089 0.775464 -0.501572
C18   C     C_3   0.060774 0.561969 0.224410 -0.501664
C19   C     C_3   0.439004 0.061743 0.775801 -0.501903
C20   C     C_3   0.560996 0.061743 0.224198 -0.501914
C21   C     C_R   0.203126 0.461800 0.279504 -0.176178
C22   C     C_R   0.796871 0.461781 0.720420 -0.176185
C23   C     C_R   0.703127 0.961800 0.279503 -0.176187
C24   C     C_R   0.296872 0.961789 0.720456 -0.176191
C25   C     C_R   0.157329 0.461753 0.325449 -0.193289
C26   C     C_R   0.842669 0.461735 0.674476 -0.193273
C27   C     C_R   0.657329 0.961753 0.325448 -0.193315
C28   C     C_R   0.342670 0.961743 0.674512 -0.193311
C29   C     C_R   0.134225 0.499931 0.365907 -0.031691
C30   C     C_R   0.865773 0.499931 0.634093 -0.031723
C31   C     C_R   0.634225 0.999931 0.365906 -0.031704
C32   C     C_R   0.365774 0.999931 0.634094 -0.031719
C33   C     C_R   0.157244 0.538048 0.360470 -0.189843
C34   C     C_R   0.842753 0.538066 0.639608 -0.189851
C35   C     C_R   0.657245 0.038048 0.360468 -0.189844
C36   C     C_R   0.342754 0.038058 0.639575 -0.189844
C37   C     C_R   0.203043 0.537879 0.315254 -0.176662
C38   C     C_R   0.796955 0.537897 0.684824 -0.176671
C39   C     C_R   0.703043 0.037879 0.315252 -0.176665
C40   C     C_R   0.296956 0.037889 0.684791 -0.176671
C41   C     C_R   0.225992 0.499810 0.274569 0.109764
C42   C     C_R   0.774006 0.499810 0.725432 0.109768
C43   C     C_R   0.725992 0.999811 0.274567 0.109761
C44   C     C_R   0.274006 0.999810 0.725434 0.109766
C45   C     C_R   0.000105 0.499950 0.619842 0.889361
C46   C     C_R   0.999897 0.499951 0.380157 0.889354
C47   C     C_R   0.500102 0.999950 0.619842 0.889330
C48   C     C_R   0.499898 0.999950 0.380158 0.889330
C49   C     C_R   0.296737 0.512471 0.257056 -0.174716
C50   C     C_R   0.703262 0.512519 0.742966 -0.174710
C51   C     C_R   0.796736 0.012470 0.257056 -0.174720
C52   C     C_R   0.203263 0.012500 0.742958 -0.174716
C53   C     C_R   0.342544 0.512251 0.211289 -0.189199
C54   C     C_R   0.657454 0.512298 0.788733 -0.189206
C55   C     C_R   0.842544 0.012250 0.211290 -0.189207
C56   C     C_R   0.157455 0.012280 0.788724 -0.189210
C57   C     C_R   0.365703 0.499884 0.134609 -0.031354
C58   C     C_R   0.634296 0.499884 0.865392 -0.031329
C59   C     C_R   0.865703 0.999884 0.134609 -0.031356
C60   C     C_R   0.134296 0.999883 0.865392 -0.031340
C61   C     C_R   0.342734 0.487447 0.104190 -0.190660
C62   C     C_R   0.657264 0.487400 0.895790 -0.190662
C63   C     C_R   0.842735 0.987448 0.104189 -0.190654
C64   C     C_R   0.157264 0.987417 0.895799 -0.190654
C65   C     C_R   0.296942 0.487149 0.150242 -0.176680
C66   C     C_R   0.703056 0.487101 0.849737 -0.176669
C67   C     C_R   0.796942 0.987150 0.150240 -0.176681
C68   C     C_R   0.203056 0.987119 0.849747 -0.176672
C69   C     C_R   0.273931 0.499795 0.226604 0.110145
C70   C     C_R   0.726067 0.499794 0.773397 0.110132
C71   C     C_R   0.773931 0.999795 0.226603 0.110149
C72   C     C_R   0.226068 0.999794 0.773398 0.110142
C73   C     C_R   0.000001 0.633868 0.999999 -0.203405
C74   C     C_R   0.499999 0.133867 0.999999 -0.203374
C75   C     C_R   0.999993 0.725809 0.000007 0.050880
C76   C     C_R   0.499991 0.225808 0.000005 0.050844
C77   C     C_R   0.500000 0.725991 0.999999 0.110694
C78   C     C_R   1.000000 0.225992 0.999999 0.110697
C79   C     C_R   1.000000 0.413635 1.000000 0.842440
C80   C     C_R   0.500000 0.913635 0.000000 0.842437
C81   C     C_R   0.022716 0.657058 0.929825 -0.045514
C82   C     C_R   0.977284 0.657055 0.070177 -0.045492
C83   C     C_R   0.522614 0.157055 0.929832 -0.045556
C84   C     C_R   0.477379 0.157052 0.070168 -0.045527
C85   C     C_R   0.000080 0.499687 0.879974 0.939308
C86   C     C_R   0.999920 0.499685 0.120028 0.939317
C87   C     C_R   0.500080 0.999679 0.879970 0.939538
C88   C     C_R   0.499920 0.999679 0.120030 0.939539
C89   C     C_R   0.000000 0.585996 0.999999 0.988840
C90   C     C_R   0.500000 0.085995 0.999999 0.989213
C91   C     C_R   0.499996 0.365716 0.000003 -0.034434
C92   C     C_R   0.999996 0.865715 0.000004 -0.034460
C93   C     C_R   0.499999 0.413689 0.000001 0.872197
C94   C     C_R   0.999999 0.913688 0.000001 0.872217
C95   C     C_R   0.413678 0.499971 0.086424 0.869324
C96   C     C_R   0.586322 0.499971 0.913576 0.869315
C97   C     C_R   0.913678 0.999971 0.086424 0.869334
C98   C     C_R   0.086322 0.999971 0.913576 0.869329
C99   C     C_R   0.507850 0.342646 0.047199 -0.190346
C100  C     C_R   0.492139 0.342648 0.952810 -0.190334
C101  C     C_R   0.007766 0.842645 0.047309 -0.190352
C102  C     C_R   0.992223 0.842646 0.952704 -0.190344
C103  C     C_R   0.500000 0.586274 1.000000 0.868149
C104  C     C_R   0.000000 0.086275 1.000000 0.868157
C105  C     C_R   0.038009 0.296831 0.979800 -0.178183
C106  C     C_R   0.961990 0.296831 0.020198 -0.178181
C107  C     C_R   0.538012 0.796830 0.979787 -0.178183
C108  C     C_R   0.461988 0.796830 0.020211 -0.178180
C109  C     C_R   0.038118 0.342613 0.979325 -0.192499
C110  C     C_R   0.961881 0.342613 0.020674 -0.192498
C111  C     C_R   0.538121 0.842613 0.979313 -0.192499
C112  C     C_R   0.461879 0.842613 0.020686 -0.192499
C113  C     C_R   1.000000 0.365672 1.000000 -0.022853
C114  C     C_R   0.500000 0.865672 1.000000 -0.022829
C115  C     C_R   0.507979 0.296894 0.047011 -0.169925
C116  C     C_R   0.492004 0.296896 0.953003 -0.169931
C117  C     C_R   0.007893 0.796893 0.047124 -0.169946
C118  C     C_R   0.992090 0.796894 0.952895 -0.169955
C119  C     C_R   1.000000 0.273924 0.999999 0.110529
C120  C     C_R   0.500000 0.773923 0.999999 0.110535
C121  C     C_R   0.487392 0.703084 0.959351 -0.176717
C122  C     C_R   0.512607 0.703084 0.040647 -0.176718
C123  C     C_R   0.987402 0.203085 0.959337 -0.176721
C124  C     C_R   0.012598 0.203085 0.040662 -0.176718
C125  C     C_R   0.487653 0.657301 0.958939 -0.190881
C126  C     C_R   0.512347 0.657301 0.041060 -0.190879
C127  C     C_R   0.987663 0.157302 0.958925 -0.190882
C128  C     C_R   0.012337 0.157302 0.041074 -0.190883
C129  C     C_R   0.500000 0.634240 0.999999 -0.031683
C130  C     C_R   1.000000 0.134241 0.999999 -0.031686
C131  C     C_R   0.499991 0.273889 0.000007 0.137138
C132  C     C_R   0.999991 0.773889 0.000010 0.137155
C133  C     C_R   0.023038 0.702986 0.931031 -0.205006
C134  C     C_R   0.976953 0.702982 0.068979 -0.205007
C135  C     C_R   0.522939 0.202984 0.931032 -0.204944
C136  C     C_R   0.477046 0.202981 0.068974 -0.204948
C137  C     C_R   0.974168 0.527529 0.745086 0.122383
C138  C     C_R   0.025887 0.527480 0.254862 0.122335
C139  C     C_R   0.474019 0.027384 0.745226 0.122210
C140  C     C_R   0.525980 0.027385 0.254774 0.122204
C141  C     C_R   0.001171 0.499693 0.684278 -0.099693
C142  C     C_R   0.998830 0.499696 0.315724 -0.099595
C143  C     C_R   0.501172 0.999695 0.684269 -0.099425
C144  C     C_R   0.498828 0.999696 0.315731 -0.099425
C145  C     C_R   0.029245 0.470581 0.688164 -0.211090
C146  C     C_R   0.970698 0.470639 0.311900 -0.211138
C147  C     C_R   0.529404 0.970735 0.687989 -0.211213
C148  C     C_R   0.470596 0.970735 0.312011 -0.211210
C149  C     C_R   0.029470 0.470751 0.752727 -0.228005
C150  C     C_R   0.970473 0.470808 0.247338 -0.227912
C151  C     C_R   0.529628 0.970904 0.752553 -0.227821
C152  C     C_R   0.470372 0.970904 0.247446 -0.227830
H1    H     H_    0.051067 0.448396 0.641493 0.161129
H2    H     H_    0.948834 0.448498 0.358617 0.161074
H3    H     H_    0.551345 0.948671 0.641193 0.160978
H4    H     H_    0.448656 0.948669 0.358807 0.160979
H5    H     H_    0.220602 0.567481 0.311277 0.134984
H6    H     H_    0.779395 0.567513 0.688862 0.134984
H7    H     H_    0.720602 0.067482 0.311274 0.134989
H8    H     H_    0.279397 0.067499 0.688802 0.134988
H9    H     H_    0.279062 0.522074 0.316268 0.135508
H10   H     H_    0.720937 0.522159 0.683772 0.135511
H11   H     H_    0.779061 0.022072 0.316268 0.135501
H12   H     H_    0.220938 0.022126 0.683757 0.135503
H13   H     H_    0.359786 0.522102 0.235609 0.155392
H14   H     H_    0.640212 0.522186 0.764432 0.155372
H15   H     H_    0.859785 0.022100 0.235610 0.155388
H16   H     H_    0.140213 0.022154 0.764416 0.155375
H17   H     H_    0.360115 0.477634 0.045144 0.154116
H18   H     H_    0.639883 0.477549 0.954819 0.154095
H19   H     H_    0.860115 0.977635 0.045143 0.154118
H20   H     H_    0.139883 0.977581 0.954834 0.154105
H21   H     H_    0.279435 0.477540 0.126276 0.133321
H22   H     H_    0.720563 0.477454 0.873685 0.133328
H23   H     H_    0.779436 0.977541 0.126274 0.133317
H24   H     H_    0.220563 0.977486 0.873703 0.133318
H25   H     H_    0.514749 0.279463 0.082904 0.133961
H26   H     H_    0.485233 0.279467 0.917111 0.133965
H27   H     H_    0.014594 0.779461 0.083106 0.133963
H28   H     H_    0.985387 0.779463 0.916914 0.133961
H29   H     H_    0.514264 0.359885 0.083697 0.156844
H30   H     H_    0.485727 0.359889 0.916311 0.156849
H31   H     H_    0.014113 0.859884 0.083893 0.156872
H32   H     H_    0.985878 0.859886 0.916117 0.156873
H33   H     H_    0.067610 0.279253 0.963714 0.134336
H34   H     H_    0.932390 0.279253 0.036284 0.134337
H35   H     H_    0.567614 0.779253 0.963691 0.134331
H36   H     H_    0.432386 0.779252 0.036306 0.134332
H37   H     H_    0.067794 0.359915 0.963480 0.155079
H38   H     H_    0.932206 0.359915 0.036519 0.155082
H39   H     H_    0.567798 0.859915 0.963458 0.155071
H40   H     H_    0.432201 0.859915 0.036541 0.155072
H41   H     H_    0.051389 0.448628 0.755347 0.158411
H42   H     H_    0.948509 0.448728 0.244765 0.158460
H43   H     H_    0.551669 0.948899 0.755047 0.158546
H44   H     H_    0.448332 0.948899 0.244952 0.158547
H45   H     H_    0.040736 0.721270 0.877966 0.174411
H46   H     H_    0.959253 0.721262 0.122048 0.174388
H47   H     H_    0.540565 0.221267 0.877968 0.174461
H48   H     H_    0.459418 0.221260 0.122041 0.174429
H49   H     H_    0.477829 0.720662 0.927442 0.133872
H50   H     H_    0.522171 0.720662 0.072557 0.133872
H51   H     H_    0.977846 0.220663 0.927416 0.133870
H52   H     H_    0.022154 0.220663 0.072582 0.133870
H53   H     H_    0.477865 0.640001 0.927146 0.154877
H54   H     H_    0.522135 0.640001 0.072853 0.154878
H55   H     H_    0.977883 0.140002 0.927121 0.154878
H56   H     H_    0.022117 0.140001 0.072878 0.154880
H57   H     H_    0.907211 0.548368 0.898669 0.203064
H58   H     H_    0.092884 0.548185 0.101233 0.203056
H59   H     H_    0.406942 0.047837 0.898926 0.203022
H60   H     H_    0.593058 0.047837 0.101074 0.203015
H61   H     H_    0.951249 0.592118 0.856263 0.228124
H62   H     H_    0.048932 0.592022 0.143552 0.228050
H63   H     H_    0.450732 0.091838 0.856775 0.227958
H64   H     H_    0.549270 0.091839 0.143223 0.227984
H65   H     H_    0.908529 0.549350 0.784955 0.201430
H66   H     H_    0.091572 0.549168 0.214941 0.201421
H67   H     H_    0.408258 0.048824 0.785215 0.201416
H68   H     H_    0.591742 0.048824 0.214785 0.201416
H69   H     H_    0.952222 0.593469 0.742884 0.218437
H70   H     H_    0.047967 0.593376 0.256924 0.218450
H71   H     H_    0.451694 0.093195 0.743401 0.218471
H72   H     H_    0.548307 0.093196 0.256598 0.218475
H73   H     H_    0.220748 0.432164 0.248399 0.135246
H74   H     H_    0.779250 0.432131 0.751463 0.135250
H75   H     H_    0.720747 0.932164 0.248399 0.135250
H76   H     H_    0.279251 0.932145 0.751527 0.135251
H77   H     H_    0.140053 0.432079 0.328796 0.155697
H78   H     H_    0.859944 0.432046 0.671068 0.155723
H79   H     H_    0.640053 0.932079 0.328796 0.155702
H80   H     H_    0.359946 0.932061 0.671131 0.155716
H81   H     H_    0.139898 0.567766 0.391587 0.156697
H82   H     H_    0.860099 0.567799 0.608553 0.156719
H83   H     H_    0.639898 0.067766 0.391584 0.156707
H84   H     H_    0.360100 0.067784 0.608492 0.156719
O1    O     O_R   0.065460 0.536930 0.434540 -0.626302
O2    O     O_R   0.934540 0.536930 0.565460 -0.626310
O3    O     O_R   0.565460 0.036930 0.434540 -0.626292
O4    O     O_R   0.434540 0.036930 0.565460 -0.626297
O5    O     O_R   0.434510 0.499990 0.117200 -0.622904
O6    O     O_R   0.565490 0.499990 0.882800 -0.622894
O7    O     O_R   0.934510 0.999990 0.117200 -0.622912
O8    O     O_R   0.065490 0.999990 0.882800 -0.622906
O9    O     O_R   0.434500 0.499990 0.013770 -0.626968
O10   O     O_R   0.565500 0.499990 0.986230 -0.626958
O11   O     O_R   0.934500 0.999990 0.013770 -0.626962
O12   O     O_R   0.065500 0.999990 0.986230 -0.626955
O13   O     O_R   0.500010 0.565450 0.051710 -0.625172
O14   O     O_R   0.499990 0.565450 0.948290 -0.625177
O15   O     O_R   0.000010 0.065450 0.051710 -0.625175
O16   O     O_R   0.999990 0.065450 0.948290 -0.625178
O17   O     O_R   0.065420 0.463020 0.434580 -0.626504
O18   O     O_R   0.934580 0.463020 0.565420 -0.626513
O19   O     O_R   0.565420 0.963020 0.434580 -0.626511
O20   O     O_R   0.434580 0.963020 0.565420 -0.626517
O21   O     O_R   0.000000 0.536930 0.591610 -0.618536
O22   O     O_R   1.000000 0.536930 0.408390 -0.618516
O23   O     O_R   0.500000 0.036930 0.591610 -0.618506
O24   O     O_R   0.500000 0.036930 0.408390 -0.618500
O25   O     O_R   0.999960 0.463020 0.591650 -0.624291
O26   O     O_R   0.000040 0.463020 0.408350 -0.624287
O27   O     O_R   0.499960 0.963020 0.591650 -0.624255
O28   O     O_R   0.500040 0.963020 0.408350 -0.624260
O29   O     O_R   0.963030 0.434450 0.036960 -0.635095
O30   O     O_R   0.036970 0.434450 0.963040 -0.635102
O31   O     O_R   0.463030 0.934450 0.036960 -0.635121
O32   O     O_R   0.536970 0.934450 0.963040 -0.635124
O33   O     O_R   0.963010 0.499910 0.945370 -0.637915
O34   O     O_R   0.036990 0.499910 0.054630 -0.637913
O35   O     O_R   0.463010 0.999910 0.945370 -0.637887
O36   O     O_R   0.536990 0.999910 0.054630 -0.637887
O37   O     O_R   0.036930 0.499960 0.871460 -0.600549
O38   O     O_R   0.963070 0.499960 0.128540 -0.600601
O39   O     O_R   0.536930 0.999960 0.871460 -0.600709
O40   O     O_R   0.463070 0.999960 0.128540 -0.600729
O41   O     O_R   0.963000 0.565380 0.037000 -0.605299
O42   O     O_R   0.037000 0.565380 0.963000 -0.605238
O43   O     O_R   0.463000 0.065380 0.037000 -0.605311
O44   O     O_R   0.537000 0.065380 0.963000 -0.605275
O45   O     O_R   0.499940 0.434520 0.051770 -0.625630
O46   O     O_R   0.500060 0.434520 0.948230 -0.625626
O47   O     O_R   0.999940 0.934520 0.051770 -0.625645
O48   O     O_R   0.000060 0.934520 0.948230 -0.625642
Zn1   Zn    Zn3+2 1.000000 0.549330 0.500000 0.950627
Zn2   Zn    Zn3+2 0.500000 0.049330 0.500000 0.950714
Zn3   Zn    Zn3+2 0.000000 0.450620 0.500000 0.948164
Zn4   Zn    Zn3+2 0.500000 0.950620 0.500000 0.948205
Zn5   Zn    Zn3+2 0.950620 0.499900 0.049380 0.977554
Zn6   Zn    Zn3+2 0.049380 0.499900 0.950620 0.977580
Zn7   Zn    Zn3+2 0.450620 0.999900 0.049380 0.977450
Zn8   Zn    Zn3+2 0.549380 0.999900 0.950620 0.977460
Zn9   Zn    Zn3+2 0.499980 0.499990 0.069090 0.947333
Zn10  Zn    Zn3+2 0.500020 0.499990 0.930910 0.947333
Zn11  Zn    Zn3+2 0.999980 0.999990 0.069090 0.947311
Zn12  Zn    Zn3+2 0.000020 0.999990 0.930910 0.947311
C153  C     C_2   0.045211 0.634993 0.854330 0.900428
O49   O     O_2   0.031386 0.600001 0.847815 -0.659583
O50   O     O_R   0.081548 0.655304 0.789726 -0.808749
H85   H     H_    0.093728 0.637511 0.741608 0.345866
C154  C     C_2   0.954802 0.634984 0.145664 0.900491
O51   O     O_2   0.968651 0.600006 0.152170 -0.659546
O52   O     O_R   0.918451 0.655276 0.210273 -0.808744
H86   H     H_    0.906283 0.637483 0.258387 0.345869
C155  C     C_2   0.544994 0.134987 0.854360 0.900367
O53   O     O_2   0.531153 0.099972 0.847962 -0.659597
O54   O     O_R   0.581237 0.155322 0.789647 -0.808771
H87   H     H_    0.593339 0.137528 0.741558 0.345891
C156  C     C_2   0.455001 0.134980 0.145636 0.900392
O55   O     O_2   0.468863 0.099979 0.152035 -0.659632
O56   O     O_R   0.418737 0.155295 0.210343 -0.808751
H88   H     H_    0.406637 0.137498 0.258429 0.345887

loop_
_geom_bond_atom_site_label_1
_geom_bond_atom_site_label_2
_ccdc_geom_bond_type
C111  H39   S    
C55   C59   A    
C80   O31   A    
C142  C146  A    
C74   C83   A    
C68   H24   S    
C154  O51   D    
C26   H78   S    
O4    Zn2   S    
C16   C20   S    
C116  H26   S    
C135  H47   S    
C76   C131  S    
C83   C155  S    
C29   C33   A    
C23   C43   A    
C48   C144  S    
C13   H61   S    
C117  C132  A    
C108  C120  A    
C150  H42   S    
C77   C122  A    
C146  C150  A    
C11   C15   S    
C12   C16   S    
C43   C71   S    
C91   C100  A    
O32   Zn8   S    
C147  H3    S    
C98   O8    A    
C82   C154  S    
C92   C102  A    
C49   C69   A    
O29   Zn5   S    
C51   C71   A    
C2    O18   A    
O35   Zn7   S    
C25   C29   A    
C62   H18   S    
C27   C31   A    
C28   C32   A    
C152  H44   S    
C106  H34   S    
C15   H63   S    
C62   C66   A    
O8    Zn12  S    
C126  C129  A    
O19   Zn4   S    
C110  H38   S    
C90   O43   A    
C103  O13   A    
C82   C134  A    
C6    C10   A    
C52   C72   A    
O52   H86   S    
C146  H2    S    
C36   C40   A    
C68   C72   A    
C92   C94   S    
C20   H72   S    
C3    C31   S    
C4    C32   S    
C95   O5    A    
C143  C147  A    
C61   H17   S    
C123  C127  A    
C41   C69   S    
C52   H12   S    
C48   O24   A    
C133  H45   S    
C108  H36   S    
C97   O11   A    
C57   C61   A    
C73   C89   S    
C59   C63   A    
C123  H51   S    
C60   C64   A    
C74   C90   S    
C50   C70   A    
C101  C117  A    
C99   C115  A    
C122  H50   S    
C66   C70   A    
C49   C53   A    
C125  H53   S    
C44   C72   S    
C51   C55   A    
C136  H48   S    
C17   H69   S    
C121  H49   S    
C61   C65   A    
C19   C139  S    
C66   H22   S    
C17   C137  S    
C128  H56   S    
O24   Zn2   S    
C117  H27   S    
O25   Zn3   S    
C118  H28   S    
C46   O22   A    
C104  O16   A    
C47   C143  S    
C50   H10   S    
C112  C114  A    
C107  C120  A    
C75   C134  A    
C5    C149  A    
C5    C9    A    
C14   H62   S    
C64   C68   A    
C8    C152  A    
O39   Zn8   S    
O41   Zn5   S    
C151  H43   S    
C42   C70   S    
C18   C138  S    
C37   H5    S    
C9    C13   S    
C149  H41   S    
C139  C143  A    
O47   Zn11  S    
C155  O54   S    
C28   H80   S    
C49   H9    S    
C5    C85   S    
C153  O50   S    
C87   O39   A    
C93   O46   A    
C76   C135  A    
C156  O56   S    
C30   C34   A    
O28   Zn4   S    
C13   H57   S    
C10   C14   S    
C47   O23   A    
C1    O1    A    
O11   Zn12  S    
O12   Zn11  S    
C8    C88   S    
O23   Zn2   S    
C147  C151  A    
C98   O12   A    
C125  C129  A    
C45   O25   A    
O9    Zn10  S    
C8    C12   A    
C89   O41   A    
O30   Zn6   S    
C78   C123  A    
O2    Zn1   S    
C26   C30   A    
C79   C113  S    
C35   H83   S    
C4    O20   A    
C18   H66   S    
C33   H81   S    
C75   C132  S    
C21   C25   A    
C80   O32   A    
C107  C111  A    
C24   C28   A    
C74   C84   A    
C81   C133  A    
C22   H74   S    
C141  C145  A    
C36   H84   S    
O13   Zn9   S    
C6    C86   S    
C13   C17   S    
C2    C30   S    
C95   O9    A    
C85   O37   A    
C37   C41   A    
C99   H29   S    
C77   C121  A    
C40   C44   A    
C104  C130  S    
C91   C99   A    
C94   O47   A    
C58   C62   A    
C106  C119  A    
C100  C116  A    
C55   H15   S    
C77   C120  S    
O1    Zn1   S    
C46   C142  S    
O18   Zn3   S    
C15   C19   S    
C25   H77   S    
C50   C54   A    
O22   Zn1   S    
O5    Zn9   S    
O48   Zn12  S    
C79   O30   A    
C10   C138  A    
O20   Zn4   S    
C90   O44   A    
C85   O33   A    
C16   H64   S    
C11   C139  A    
C105  C109  A    
O40   Zn7   S    
C9    C137  A    
C7    C87   S    
C67   H23   S    
C12   C140  A    
C51   H11   S    
C100  H30   S    
C101  H31   S    
C124  C128  A    
C34   C38   A    
C45   C141  S    
C54   H14   S    
C96   O10   A    
C1    O17   A    
C154  O52   S    
O42   Zn6   S    
O54   H87   S    
C148  C152  A    
C19   H71   S    
C38   H6    S    
C138  C142  A    
C53   C57   A    
O46   Zn10  S    
C33   C37   A    
C56   C60   A    
C64   H20   S    
C35   C39   A    
O50   H85   S    
C112  H40   S    
C63   H19   S    
O21   Zn1   S    
C4    O4    A    
C118  C132  A    
C103  C129  S    
C92   C101  A    
C73   C81   A    
C7    C151  A    
C53   H13   S    
C24   C44   A    
C31   C35   A    
O37   Zn6   S    
C32   C36   A    
C73   C82   A    
C137  C141  A    
C84   C136  A    
O27   Zn4   S    
C39   H7    S    
C40   H8    S    
C140  C144  A    
C128  C130  A    
O34   Zn6   S    
C75   C133  A    
C45   O21   A    
O10   Zn9   S    
O15   Zn11  S    
C20   C140  S    
O31   Zn7   S    
C78   C119  S    
C84   C156  S    
C126  H54   S    
C65   C69   A    
C111  C114  A    
C67   C71   A    
C18   H70   S    
C6    C150  A    
C108  C112  A    
C155  O53   D    
C22   C26   A    
C60   C98   S    
C105  C119  A    
C148  H4    S    
C145  C149  A    
C3    O3    A    
O56   H88   S    
O14   Zn10  S    
C153  O49   D    
C14   C18   S    
C144  C148  A    
C93   O45   A    
C76   C136  A    
C115  C131  A    
C156  O55   D    
C7    C11   A    
O44   Zn8   S    
C124  H52   S    
C86   O38   A    
C38   C42   A    
C91   C93   S    
O7    Zn11  S    
C107  H35   S    
C105  H33   S    
C58   C96   S    
C15   H59   S    
C87   O35   A    
C121  C125  A    
C88   O36   A    
C109  H37   S    
C23   C27   A    
C78   C124  A    
C83   C135  A    
C102  C118  A    
C109  C113  A    
O45   Zn9   S    
O26   Zn3   S    
C104  O15   A    
C20   H68   S    
C1    C29   S    
O6    Zn10  S    
C63   C67   A    
C14   H58   S    
C16   H60   S    
C127  H55   S    
C86   O34   A    
C2    O2    A    
C39   C43   A    
C47   O27   A    
C48   O28   A    
C122  C126  A    
C81   C153  S    
C97   O7    A    
C56   H16   S    
C115  H25   S    
C110  C113  A    
C96   O6    A    
C27   H79   S    
O3    Zn2   S    
C80   C114  S    
O43   Zn7   S    
C59   C97   S    
C21   C41   A    
C19   H67   S    
C34   H82   S    
C17   H65   S    
C94   O48   A    
C54   C58   A    
C134  H46   S    
C65   H21   S    
O16   Zn12  S    
C103  O14   A    
C23   H75   S    
O17   Zn3   S    
C46   O26   A    
C21   H73   S    
C102  H32   S    
C88   O40   A    
C127  C130  A    
C145  H1    S    
O36   Zn8   S    
O33   Zn5   S    
C22   C42   A    
C116  C131  A    
C89   O42   A    
C79   O29   A    
O38   Zn5   S    
C3    O19   A    
C106  C110  A    
C57   C95   S    
C24   H76   S    
C52   C56   A    
