data_mof_unit_53815.cif
_audit_creation_date              2012-12-10T19:45:04-0500
_audit_creation_method            fapswitch 2.2
_symmetry_space_group_name_H-M    P1
_symmetry_Int_Tables_number       1
_space_group_crystal_system       triclinic
_cell_length_a                    15.062188
_cell_length_b                    10.900914
_cell_length_c                    13.685005
_cell_angle_alpha                 89.514589
_cell_angle_beta                  89.714176
_cell_angle_gamma                 89.257024
_cell_volume                      2246.6667976

loop_
_atom_site_label
_atom_site_type_symbol
_atom_type_description
_atom_site_fract_x
_atom_site_fract_y
_atom_site_fract_z
_atom_type_partial_charge
C1    C     C_R   0.495048 0.262091 0.500405 0.856964
C2    C     C_R   0.499442 0.737857 0.499879 0.857313
C3    C     C_R   0.047886 0.443467 0.328726 -0.215792
C4    C     C_R   0.952461 0.547450 0.674381 -0.220908
C5    C     C_R   0.333181 0.255974 0.230550 -0.130226
C6    C     C_R   0.727817 0.811838 0.713457 -0.150527
C7    C     C_R   0.357407 0.200549 0.319168 -0.133457
C8    C     C_R   0.673211 0.868636 0.643683 -0.139948
C9    C     C_R   0.434161 0.125926 0.324501 0.186752
C10   C     C_R   0.581170 0.877786 0.659358 0.212505
C11   C     C_R   0.485938 0.107790 0.240039 -0.081195
C12   C     C_R   0.544551 0.828640 0.745599 -0.069332
C13   C     C_R   0.461748 0.164213 0.151812 -0.156815
C14   C     C_R   0.599523 0.773594 0.815835 -0.129811
C15   C     C_R   0.385375 0.238012 0.147122 -0.115551
C16   C     C_R   0.691013 0.764620 0.799608 -0.124277
C17   C     C_R   0.454309 0.935071 0.422309 0.413312
C18   C     C_R   0.508398 0.062116 0.587849 0.400653
C19   C     C_R   0.494642 0.871531 0.500778 -0.246024
C20   C     C_R   0.486909 0.128015 0.501585 -0.254719
C21   C     C_R   0.524395 0.936191 0.583091 -0.177827
C22   C     C_R   0.459624 0.063498 0.417518 -0.182276
C23   C     C_R   0.328550 0.498270 0.500376 0.785790
C24   C     C_R   0.671531 0.500073 0.499899 0.820743
C25   C     C_R   0.570751 0.451245 0.793339 0.048061
C26   C     C_R   0.429170 0.548737 0.206530 0.077731
C27   C     C_R   0.428847 0.548405 0.793232 -0.008410
C28   C     C_R   0.571268 0.452138 0.206574 0.046237
C29   C     C_R   0.426287 0.548403 0.896439 -0.083630
C30   C     C_R   0.573766 0.452311 0.103313 -0.079131
C31   C     C_R   0.499693 0.500154 0.948117 0.008320
C32   C     C_R   0.500224 0.500464 0.051665 0.009799
C33   C     C_R   0.572502 0.451088 0.896149 -0.059731
C34   C     C_R   0.427161 0.548958 0.103606 -0.051759
C35   C     C_R   0.352654 0.595615 0.948944 0.429596
C36   C     C_R   0.647945 0.407122 0.050621 0.437027
C37   C     C_R   0.353429 0.595059 0.051894 -0.301270
C38   C     C_R   0.645571 0.403600 0.947622 -0.306018
C39   C     C_R   0.813929 0.523840 0.586946 -0.252520
C40   C     C_R   0.186147 0.470436 0.415097 -0.266334
C41   C     C_R   0.768361 0.499423 0.500160 -0.068646
C42   C     C_R   0.231858 0.495556 0.501377 -0.067670
C43   C     C_R   0.815445 0.473160 0.414101 -0.249463
C44   C     C_R   0.185040 0.519249 0.588232 -0.251951
C45   C     C_R   0.907927 0.470960 0.414212 0.109675
C46   C     C_R   0.092519 0.519954 0.588844 0.100341
C47   C     C_R   0.953645 0.496204 0.501364 0.066503
C48   C     C_R   0.046686 0.494937 0.501706 0.055639
C49   C     C_R   0.906424 0.522696 0.588099 0.106832
C50   C     C_R   0.093817 0.469275 0.414712 0.111361
C51   C     C_R   0.955424 0.443712 0.328710 -0.220763
C52   C     C_R   0.045081 0.545973 0.674770 -0.210065
Cu1   Cu    Cu3+1 0.500010 0.499980 0.597420 0.942119
Cu2   Cu    Cu3+1 0.499990 0.500020 0.402580 0.957516
H1    H     H_    0.777507 0.544289 0.653532 0.156526
H2    H     H_    0.222373 0.452512 0.348082 0.144576
H3    H     H_    0.083433 0.422971 0.261640 0.142659
H4    H     H_    0.916848 0.567934 0.741428 0.136679
H5    H     H_    0.366844 0.281919 0.078997 0.139817
H6    H     H_    0.733284 0.720543 0.853542 0.118406
H7    H     H_    0.316464 0.215175 0.383425 0.103357
H8    H     H_    0.702475 0.904781 0.577137 0.121509
H9    H     H_    0.502184 0.150823 0.087065 0.142788
H10   H     H_    0.571063 0.736539 0.882346 0.129652
N1    N     N_R   0.499960 0.499900 0.743810 -0.201431
N2    N     N_R   0.500040 0.500100 0.256190 -0.190392
O1    O     O_R   0.500000 0.319630 0.582270 -0.542779
O2    O     O_R   0.500000 0.680370 0.417730 -0.531286
O3    O     O_R   0.499990 0.319660 0.417730 -0.579331
O4    O     O_R   0.500010 0.680340 0.582270 -0.591930
O5    O     O_R   0.370260 0.499960 0.582280 -0.606492
O6    O     O_R   0.629740 0.500040 0.417720 -0.603266
O7    O     O_R   0.370250 0.499990 0.417740 -0.605487
O8    O     O_R   0.629750 0.500010 0.582260 -0.590452
O9    O     O_3   0.413755 0.870665 0.347914 -0.593274
C53   C     C_3   0.320410 0.891152 0.350320 0.048469
H11   H     H_    0.296590 0.895730 0.273649 0.161951
H12   H     H_    0.299534 0.978958 0.385177 0.128362
C54   C     C_3   0.273778 0.785913 0.403075 -0.345659
H13   H     H_    0.285372 0.700060 0.361927 0.226696
H14   H     H_    0.301258 0.774582 0.477865 0.203714
C55   C     C_3   0.173925 0.810317 0.410611 -0.912138
H15   H     H_    0.160433 0.896427 0.451217 0.252943
H16   H     H_    0.141727 0.733885 0.450559 0.272442
H17   H     H_    0.144396 0.817839 0.336555 0.253992
O10   O     O_3   0.514732 0.120701 0.676919 -0.582247
C56   C     C_3   0.431442 0.111549 0.725360 0.063971
H18   H     H_    0.428009 0.023204 0.765472 0.134542
H19   H     H_    0.373922 0.118168 0.674088 0.116561
C57   C     C_3   0.420909 0.214914 0.798876 -0.291386
H20   H     H_    0.479867 0.217351 0.847295 0.227365
H21   H     H_    0.415085 0.302192 0.757719 0.248338
C58   C     C_3   0.337357 0.200710 0.861129 -0.964305
H22   H     H_    0.277784 0.195815 0.813882 0.267668
H23   H     H_    0.329543 0.281568 0.909276 0.264288
H24   H     H_    0.342285 0.116518 0.907199 0.257222
H25   H     H_    0.625938 0.412137 0.752872 0.142663
H26   H     H_    0.373715 0.586915 0.246882 0.122547
H27   H     H_    0.374078 0.587169 0.752080 0.162773
H28   H     H_    0.626229 0.413495 0.247512 0.161050
O11   O     O_3   0.276434 0.631646 0.900187 -0.623298
C59   C     C_3   0.277135 0.760059 0.886591 0.028823
H29   H     H_    0.341248 0.790911 0.854183 0.121004
H30   H     H_    0.266078 0.806836 0.957752 0.150665
C60   C     C_3   0.202311 0.796232 0.816601 -0.315541
H31   H     H_    0.211485 0.746641 0.746541 0.213091
H32   H     H_    0.137512 0.769315 0.848973 0.221037
C61   C     C_3   0.200906 0.933862 0.795734 -0.941874
H33   H     H_    0.191923 0.985720 0.864676 0.261747
H34   H     H_    0.144985 0.957059 0.746061 0.260811
H35   H     H_    0.263831 0.961497 0.759741 0.248296
O12   O     O_3   0.721836 0.362700 0.099882 -0.625905
C62   C     C_3   0.795538 0.439597 0.082066 0.034032
H36   H     H_    0.810272 0.488974 0.150604 0.144909
H37   H     H_    0.784761 0.511469 0.024392 0.128880
C63   C     C_3   0.875887 0.360532 0.053156 -0.326810
H38   H     H_    0.891525 0.294502 0.113157 0.221727
H39   H     H_    0.859753 0.307428 0.986723 0.221295
C64   C     C_3   0.957202 0.438815 0.031955 -0.932949
H40   H     H_    0.944143 0.501571 0.969113 0.254261
H41   H     H_    0.014644 0.378389 0.013390 0.261737
H42   H     H_    0.974488 0.493835 0.096912 0.254232
H43   H     H_    0.295829 0.629638 0.091205 0.148920
H44   H     H_    0.701864 0.365474 0.908081 0.152893
H45   H     H_    0.780227 0.453433 0.347231 0.153639
H46   H     H_    0.220447 0.538894 0.654972 0.159616
H47   H     H_    0.921065 0.422449 0.262008 0.149726
H48   H     H_    0.079584 0.565392 0.742090 0.154586
H49   H     H_    0.273947 0.312836 0.226274 0.114679
H50   H     H_    0.798650 0.804281 0.700675 0.134022
H51   H     H_    0.545120 0.050387 0.242771 0.132671
H52   H     H_    0.473547 0.829159 0.757019 0.082669

loop_
_geom_bond_atom_site_label_1
_geom_bond_atom_site_label_2
_ccdc_geom_bond_type
C56   H18   S    
C58   H22   S    
C27   C29   A    
C34   C37   A    
Cu1   O8    S    
C53   C54   S    
C6    H50   S    
C43   H45   S    
C52   H48   S    
C39   C41   A    
Cu1   Cu2   S    
C63   H38   S    
C60   H32   S    
C44   H46   S    
C18   O10   S    
C23   C42   S    
C4    C52   A    
C35   C37   A    
C53   H12   S    
C2    O2    A    
C9    C22   S    
Cu2   O2    S    
C45   C51   A    
C18   C21   A    
C46   C52   A    
C61   H33   S    
C59   C60   S    
C16   H6    S    
C45   C47   A    
C7    H7    S    
C17   C19   A    
C37   H43   S    
C26   C34   A    
C39   H1    S    
C47   C48   A    
C61   H34   S    
C40   H2    S    
C36   O12   S    
C31   C33   A    
Cu1   N1    S    
C62   C63   S    
C28   H28   S    
C40   C42   A    
C58   H23   S    
C24   C41   S    
C41   C43   A    
C42   C44   A    
C23   O7    A    
Cu1   O1    S    
Cu1   O4    S    
O12   C62   S    
C3    C50   A    
C44   C46   A    
C64   H41   S    
C10   C21   S    
C60   C61   S    
C46   C48   A    
C26   N2    A    
O11   C59   S    
C23   O5    A    
C25   N1    A    
C53   H11   S    
C47   C49   A    
C54   H14   S    
C3    C51   A    
O10   C56   S    
C6    C8    A    
C1    O3    A    
C32   C34   A    
C28   N2    A    
O9    C53   S    
C27   N1    A    
Cu2   O7    S    
C43   C45   A    
C57   H21   S    
C31   C32   A    
C13   H9    S    
C14   H10   S    
C59   H30   S    
C9    C11   A    
C10   C12   A    
C26   H26   S    
C3    H3    S    
C25   H25   S    
C39   C49   A    
C12   C14   A    
C58   H24   S    
C55   H16   S    
C13   C15   A    
C14   C16   A    
C5    H49   S    
Cu1   O5    S    
C24   O6    A    
C57   C58   S    
C5    C7    A    
C62   H36   S    
C64   H42   S    
C7    C9    A    
C1    C20   S    
C12   H52   S    
C19   C21   A    
C2    C19   S    
C15   H5    S    
C33   C38   A    
C20   C22   A    
C35   O11   S    
C11   H51   S    
C54   C55   S    
C64   H40   S    
C63   C64   S    
Cu2   N2    S    
C55   H17   S    
C60   H31   S    
C29   C35   A    
C17   C22   A    
C61   H35   S    
C30   C36   A    
C4    C49   A    
C51   H47   S    
C36   C38   A    
C28   C30   A    
C29   C31   A    
C30   C32   A    
C11   C13   A    
C24   O8    A    
C57   H20   S    
Cu2   O3    S    
C40   C50   A    
C48   C50   A    
C1    O1    A    
C63   H39   S    
C18   C20   A    
C59   H29   S    
C27   H27   S    
C5    C15   A    
C25   C33   A    
C6    C16   A    
C54   H13   S    
Cu2   O6    S    
C8    C10   A    
C55   H15   S    
C56   C57   S    
C4    H4    S    
C17   O9    S    
C56   H19   S    
C2    O4    A    
C38   H44   S    
C8    H8    S    
C62   H37   S    
