data_mof_unit_6303.cif
_audit_creation_date              2012-12-10T17:19:26-0500
_audit_creation_method            fapswitch 2.2
_symmetry_space_group_name_H-M    P1
_symmetry_Int_Tables_number       1
_space_group_crystal_system       triclinic
_cell_length_a                    15.08379
_cell_length_b                    10.861289
_cell_length_c                    9.629616
_cell_angle_alpha                 88.882637
_cell_angle_beta                  90.272706
_cell_angle_gamma                 96.072419
_cell_volume                      1568.45814085

loop_
_atom_site_label
_atom_site_type_symbol
_atom_type_description
_atom_site_fract_x
_atom_site_fract_y
_atom_site_fract_z
_atom_type_partial_charge
C1    C     C_R   0.508625 0.263663 0.502027 0.834565
C2    C     C_R   0.906728 0.510306 0.373396 0.115145
C3    C     C_R   0.951938 0.467043 0.751089 -0.240774
C4    C     C_R   0.044426 0.467513 0.751017 0.648136
C5    C     C_R   0.091841 0.482426 0.625440 -0.025278
C6    C     C_R   0.045828 0.496828 0.499139 -0.087908
C7    C     C_R   0.092650 0.512228 0.372283 0.000441
C8    C     C_R   0.045964 0.526373 0.247472 -0.069273
C9    C     C_R   0.953613 0.525235 0.248066 -0.190652
C10   C     C_R   0.184336 0.483157 0.623653 -0.181918
C11   C     C_R   0.231401 0.498557 0.498069 -0.195901
C12   C     C_R   0.328618 0.498940 0.499480 0.843380
C13   C     C_R   0.185261 0.513372 0.372303 0.591212
C14   C     C_R   0.517358 0.106937 0.768348 0.406683
C15   C     C_R   0.473991 0.046096 0.881785 -0.305348
C16   C     C_R   0.419924 0.935877 0.864196 0.594436
C17   C     C_R   0.416350 0.878194 0.735586 0.306218
C18   C     C_R   0.467005 0.933475 0.622321 -0.183113
C19   C     C_R   0.502429 0.058879 0.632827 -0.073321
C20   C     C_R   0.519008 0.129646 0.507620 -0.197256
C21   C     C_R   0.526700 0.067271 0.382011 0.287356
C22   C     C_R   0.505969 0.940122 0.377539 0.594018
C23   C     C_R   0.491366 0.736367 0.499058 0.973396
C24   C     C_R   0.482119 0.870661 0.498158 -0.201331
C25   C     C_R   0.602989 0.693488 0.142337 0.607903
C26   C     C_R   0.630522 0.803463 0.075966 -0.172861
C27   C     C_R   0.626743 0.813242 0.935491 0.254253
C28   C     C_R   0.600776 0.707011 0.858588 0.280243
C29   C     C_R   0.550332 0.598030 0.923660 0.035907
C30   C     C_R   0.550548 0.595313 0.074054 0.037311
C31   C     C_R   0.452120 0.410645 0.075147 0.079664
C32   C     C_R   0.452340 0.410458 0.927840 0.054637
C33   C     C_R   0.670957 0.497573 0.500155 0.925124
C34   C     C_R   0.814464 0.509920 0.374583 -0.170330
C35   C     C_R   0.767618 0.495948 0.500284 -0.064625
C36   C     C_R   0.813372 0.481121 0.625679 -0.114078
C37   C     C_R   0.905791 0.481213 0.626189 0.007672
C38   C     C_R   0.952772 0.496045 0.499599 0.099052
Cu1   Cu    Cu3+1 0.499990 0.499990 0.640660 1.063719
Cu2   Cu    Cu3+1 0.500010 0.500010 0.359340 1.107245
H1    H     H_    0.779359 0.521459 0.277435 0.185289
H2    H     H_    0.482422 0.084240 0.984206 0.254110
H3    H     H_    0.412555 0.337090 0.131083 0.145145
H4    H     H_    0.664623 0.878717 0.134548 0.254829
H5    H     H_    0.777216 0.469568 0.722931 0.195374
H6    H     H_    0.413070 0.336731 0.874360 0.119098
H7    H     H_    0.916420 0.455676 0.848864 0.176748
H8    H     H_    0.219844 0.471483 0.720332 0.246528
H9    H     H_    0.080622 0.538371 0.149103 0.249557
H10   H     H_    0.918885 0.536275 0.150535 0.163609
N1    N     N_R   0.500860 0.501210 0.147910 -0.173806
N2    N     N_R   0.500890 0.501290 0.852040 -0.152251
O1    O     O_R   0.499990 0.319640 0.618810 -0.577515
O2    O     O_R   0.500000 0.319660 0.381240 -0.562108
O3    O     O_R   0.370250 0.499960 0.618800 -0.576273
O4    O     O_R   0.370260 0.499980 0.381230 -0.528866
O5    O     O_R   0.500000 0.680340 0.618760 -0.545995
O6    O     O_R   0.500010 0.680360 0.381190 -0.483173
O7    O     O_R   0.629740 0.500020 0.618770 -0.534093
O8    O     O_R   0.629750 0.500040 0.381200 -0.527833
Cl1   Cl    Cl    0.606425 0.220907 0.807343 -0.500207
F1    F     F_    0.373127 0.883031 0.973920 -0.560718
Cl2   Cl    Cl    0.333082 0.753669 0.713830 -0.530864
F2    F     F_    0.506123 0.885256 0.252731 -0.616716
F3    F     F_    0.638503 0.687643 0.269272 -0.636391
Cl3   Cl    Cl    0.682361 0.951360 0.863372 -0.434086
Cl4   Cl    Cl    0.670485 0.715580 0.712268 -0.522881
F4    F     F_    0.087409 0.453498 0.873638 -0.651639
F5    F     F_    0.229924 0.529873 0.249828 -0.618505
Cl5   Cl    Cl    0.571877 0.142222 0.229603 -0.530115

loop_
_geom_bond_atom_site_label_1
_geom_bond_atom_site_label_2
_ccdc_geom_bond_type
C2    C9    A    
C23   O6    A    
C23   C24   S    
C6    C38   A    
C29   C30   A    
Cu2   O8    S    
C16   C17   A    
Cu2   N1    S    
C2    C38   A    
C31   C32   A    
C19   C20   A    
C21   Cl5   S    
C30   N1    A    
Cu1   O7    S    
C2    C34   A    
Cu1   N2    S    
C26   H4    S    
C36   H5    S    
C33   O7    A    
C27   Cl3   S    
C12   O4    A    
C21   C22   A    
C17   Cl2   S    
C11   C13   A    
C26   C27   A    
C6    C7    A    
C34   H1    S    
C13   F5    S    
C36   C37   A    
C1    O2    A    
C18   C24   A    
C14   C19   A    
C5    C10   A    
C28   C29   A    
C33   C35   S    
C37   C38   A    
Cu1   O1    S    
C17   C18   A    
C33   O8    A    
Cu2   O2    S    
C10   H8    S    
C5    C6    A    
C7    C8    A    
C22   C24   A    
C12   O3    A    
Cu2   O6    S    
C10   C11   A    
Cu1   Cu2   S    
C22   F2    S    
C3    C4    A    
Cu1   O5    S    
C11   C12   S    
C32   N2    A    
C7    C13   A    
C28   Cl4   S    
C25   F3    S    
C20   C21   A    
C3    C37   A    
C23   O5    A    
C34   C35   A    
C3    H7    S    
C25   C30   A    
C4    F4    S    
C18   C19   A    
C1    O1    A    
C14   C15   A    
C4    C5    A    
C1    C20   S    
C35   C36   A    
Cu2   O4    S    
C25   C26   A    
C14   Cl1   S    
C32   H6    S    
C8    H9    S    
C16   F1    S    
C31   H3    S    
Cu1   O3    S    
C9    H10   S    
C15   C16   A    
C15   H2    S    
C31   N1    A    
C8    C9    A    
C27   C28   A    
C29   N2    A    
