data_mof_unit_50136.cif
_audit_creation_date              2012-12-11T15:41:20-0500
_audit_creation_method            fapswitch 2.2
_symmetry_space_group_name_H-M    P1
_symmetry_Int_Tables_number       1
_space_group_crystal_system       triclinic
_cell_length_a                    19.065339
_cell_length_b                    10.964356
_cell_length_c                    18.814107
_cell_angle_alpha                 90.107508
_cell_angle_beta                  90.329727
_cell_angle_gamma                 89.864543
_cell_volume                      3932.80226102

loop_
_atom_site_label
_atom_site_type_symbol
_atom_type_description
_atom_site_fract_x
_atom_site_fract_y
_atom_site_fract_z
_atom_type_partial_charge
C1    C     C_R   0.727224 0.956462 0.853469 0.543965
C2    C     C_R   0.305970 0.456145 0.034759 0.015604
C3    C     C_R   0.762330 0.856388 0.355932 0.547994
C4    C     C_2   0.498943 0.166757 0.921516 -0.123057
C5    C     C_2   0.502035 0.171128 0.079003 -0.117037
C6    C     C_2   0.998947 0.666758 0.921518 -0.123130
C7    C     C_2   0.002038 0.671128 0.079005 -0.116955
C8    C     C_2   0.500477 0.068940 0.039932 -0.166345
C9    C     C_2   0.514899 0.070489 0.963182 -0.170365
C10   C     C_2   0.000481 0.568940 0.039933 -0.166311
C11   C     C_2   0.014905 0.570490 0.963184 -0.170385
C12   C     C_R   0.765652 0.445251 0.067759 0.019256
C13   C     C_R   0.193791 0.961604 0.962500 0.009440
C14   C     C_R   0.251575 0.409028 0.921120 0.015010
C15   C     C_R   0.265655 0.945265 0.067755 0.018904
C16   C     C_R   0.751573 0.909041 0.921124 0.015080
C17   C     C_R   0.805957 0.956175 0.034766 0.015596
C18   C     C_R   0.817407 0.420626 0.950787 -0.159375
C19   C     C_R   0.219315 0.297020 0.025943 -0.147984
C20   C     C_R   0.317411 0.920622 0.950784 -0.159249
C21   C     C_R   0.719324 0.797014 0.025943 -0.147952
C22   C     C_R   0.824710 0.427601 0.024324 -0.147868
C23   C     C_R   0.215615 0.312347 0.952726 -0.159590
C24   C     C_R   0.324713 0.927597 0.024321 -0.147995
C25   C     C_R   0.275797 0.962650 0.143590 0.545140
C26   C     C_R   0.715622 0.812345 0.952727 -0.159592
C27   C     C_3   0.631526 0.421557 0.050219 -0.293065
C28   C     C_3   0.310963 0.608734 0.970127 -0.245052
C29   C     C_3   0.131525 0.921619 0.050210 -0.293054
C30   C     C_3   0.810928 0.108772 0.970139 -0.245060
C31   C     C_3   0.622678 0.406168 0.970582 -0.258673
C32   C     C_3   0.317560 0.588262 0.049518 -0.280507
C33   C     C_3   0.122678 0.906229 0.970573 -0.258634
C34   C     C_3   0.817525 0.088298 0.049529 -0.280451
C35   C     C_R   0.750314 0.425741 0.919882 0.010995
C36   C     C_R   0.227225 0.456458 0.853467 0.544592
C37   C     C_R   0.260362 0.376166 0.068332 0.021556
C38   C     C_R   0.250319 0.925752 0.919877 0.011127
C39   C     C_R   0.760359 0.876173 0.068335 0.021621
C40   C     C_R   0.479553 0.169691 0.432761 0.018261
C41   C     C_R   0.489513 0.171068 0.580095 0.017875
C42   C     C_R   0.983571 0.670341 0.431494 0.021163
C43   C     C_R   0.991271 0.670719 0.579109 0.019346
C44   C     C_R   0.473546 0.278057 0.470638 0.042876
C45   C     C_R   0.477372 0.279852 0.542879 0.031070
C46   C     C_R   0.975453 0.778101 0.469656 0.044101
C47   C     C_R   0.775795 0.462642 0.143593 0.544467
C48   C     C_R   0.978627 0.779387 0.541996 0.028020
C49   C     C_R   0.480188 0.059587 0.544441 -0.167179
C50   C     C_R   0.476159 0.058822 0.470194 -0.161209
C51   C     C_R   0.985488 0.559406 0.542698 -0.171807
C52   C     C_R   0.983672 0.559228 0.468477 -0.166717
C53   C     C_R   0.530150 0.177438 0.850918 0.544257
C54   C     C_R   0.470095 0.177771 0.149283 0.553456
C55   C     C_R   0.030152 0.677438 0.850920 0.544156
C56   C     C_R   0.970095 0.677771 0.149282 0.552960
C57   C     C_3   0.511823 0.395127 0.461355 -0.278544
C58   C     C_R   0.701868 0.473766 0.035328 0.007430
C59   C     C_3   0.516210 0.399485 0.541344 -0.267753
C60   C     C_3   0.013287 0.895840 0.461203 -0.280232
C61   C     C_3   0.017170 0.899231 0.541164 -0.269071
C62   C     C_R   0.749622 0.412738 0.421787 0.013661
C63   C     C_R   0.249670 0.400731 0.580481 0.014890
C64   C     C_R   0.262916 0.940839 0.430133 0.015077
C65   C     C_R   0.748336 0.902299 0.579890 0.017222
C66   C     C_R   0.785023 0.317321 0.455653 0.017882
C67   C     C_R   0.201834 0.328742 0.542271 0.029405
C68   C     C_R   0.318431 0.892121 0.469241 0.041659
C69   C     C_R   0.300646 0.474167 0.962164 0.012606
C70   C     C_R   0.699103 0.834190 0.541108 0.023192
C71   C     C_R   0.783439 0.307487 0.528414 0.045421
C72   C     C_R   0.206162 0.319082 0.469737 0.040485
C73   C     C_R   0.315257 0.881899 0.541720 0.029186
C74   C     C_R   0.703708 0.824666 0.468695 0.032283
C75   C     C_R   0.701520 0.473731 0.536544 -0.173757
C76   C     C_R   0.313623 0.432689 0.470757 -0.159814
C77   C     C_R   0.205003 0.989479 0.541898 -0.163539
C78   C     C_R   0.813608 0.931002 0.470808 -0.151873
C79   C     C_R   0.703225 0.485090 0.462406 -0.164617
C80   C     C_R   0.201876 0.973799 0.035321 0.007364
C81   C     C_R   0.309977 0.441519 0.545156 -0.165128
C82   C     C_R   0.208380 0.999012 0.467528 -0.160261
C83   C     C_R   0.809532 0.939813 0.545168 -0.154933
C84   C     C_3   0.860111 0.277180 0.453016 -0.270792
C85   C     C_3   0.123293 0.332927 0.538756 -0.270106
C86   C     C_3   0.355617 0.773545 0.459917 -0.280342
C87   C     C_3   0.620669 0.842995 0.537259 -0.268310
C88   C     C_3   0.858704 0.271118 0.533264 -0.266396
C89   C     C_3   0.128728 0.322095 0.458971 -0.279205
C90   C     C_3   0.352305 0.761206 0.539785 -0.270727
C91   C     C_R   0.800633 0.974199 0.962171 0.012567
C92   C     C_3   0.626395 0.831717 0.457449 -0.280680
C93   C     C_R   0.745615 0.389180 0.570497 0.020877
C94   C     C_R   0.258025 0.379627 0.432017 0.014743
C95   C     C_R   0.255392 0.919547 0.578643 0.015825
C96   C     C_R   0.757175 0.881859 0.431491 0.018187
C97   C     C_R   0.738312 0.365312 0.852172 0.537572
C98   C     C_R   0.263965 0.355095 0.144290 0.548369
C99   C     C_R   0.238313 0.865316 0.852171 0.537328
C100  C     C_R   0.763963 0.855100 0.144292 0.548487
C101  C     C_R   0.727950 0.953673 0.648087 0.546453
C102  C     C_R   0.693783 0.461571 0.962507 0.009363
C103  C     C_R   0.274133 0.960618 0.354724 0.546331
C104  C     C_R   0.228170 0.453382 0.648181 0.543898
C105  C     C_R   0.772069 0.455674 0.352527 0.552392
C106  C     C_R   0.528010 0.176683 0.646114 0.547638
C107  C     C_R   0.466611 0.176353 0.357561 0.545053
C108  C     C_R   0.028296 0.676677 0.645903 0.548411
C109  C     C_R   0.967957 0.676372 0.356820 0.544548
C110  C     C_R   0.738792 0.359762 0.645291 0.545148
C111  C     C_R   0.262553 0.355657 0.356195 0.546237
C112  C     C_R   0.239953 0.863505 0.646903 0.545204
Cr1   Cr    Cr6+3 0.769260 0.163750 0.750730 1.008430
Cr2   Cr    Cr6+3 0.385810 0.322400 0.252290 1.014791
Cr3   Cr    Cr6+3 0.114190 0.822400 0.747710 1.006965
Cr4   Cr    Cr6+3 0.885810 0.822400 0.252290 1.014884
Cr5   Cr    Cr6+3 0.230740 0.163750 0.249270 1.011596
Cr6   Cr    Cr6+3 0.269260 0.663750 0.750730 1.005393
Cr7   Cr    Cr6+3 0.730740 0.663750 0.249270 1.011355
Cr8   Cr    Cr6+3 0.612640 0.009910 0.748780 1.006132
Cr9   Cr    Cr6+3 0.387360 0.009910 0.251220 1.009311
Cr10  Cr    Cr6+3 0.112640 0.509910 0.748780 1.006038
Cr11  Cr    Cr6+3 0.887360 0.509910 0.251220 1.006908
Cr12  Cr    Cr6+3 0.614190 0.322400 0.747710 1.007921
H1    H     H_    0.488956 0.981906 0.064500 0.140380
H2    H     H_    0.485281 0.475407 0.564868 0.123958
H3    H     H_    0.065276 0.884270 0.435504 0.135869
H4    H     H_    0.986071 0.974750 0.564893 0.122617
H5    H     H_    0.672988 0.557447 0.437953 0.139570
H6    H     H_    0.350961 0.489057 0.573866 0.120863
H7    H     H_    0.167579 0.047932 0.439378 0.129227
H8    H     H_    0.851525 0.982527 0.574737 0.117191
H9    H     H_    0.896232 0.347731 0.433290 0.161816
H10   H     H_    0.102666 0.422731 0.555530 0.168441
H11   H     H_    0.409879 0.784689 0.439835 0.133553
H12   H     H_    0.540992 0.990810 0.941240 0.158510
H13   H     H_    0.601494 0.933946 0.554054 0.169383
H14   H     H_    0.866102 0.186500 0.427329 0.127002
H15   H     H_    0.098643 0.252317 0.564129 0.128587
H16   H     H_    0.323339 0.704934 0.431026 0.137040
H17   H     H_    0.594407 0.763754 0.562435 0.127331
H18   H     H_    0.866279 0.178186 0.554361 0.137661
H19   H     H_    0.107545 0.234913 0.437928 0.134104
H20   H     H_    0.317681 0.685874 0.556595 0.166613
H21   H     H_    0.604110 0.745280 0.436392 0.132699
H22   H     H_    0.863023 0.397571 0.919365 0.136424
H23   H     H_    0.988958 0.481906 0.064501 0.140399
H24   H     H_    0.187498 0.226346 0.049462 0.150448
H25   H     H_    0.363026 0.897553 0.919363 0.136530
H26   H     H_    0.687516 0.726324 0.049460 0.150483
H27   H     H_    0.876216 0.414357 0.047187 0.137056
H28   H     H_    0.179367 0.256585 0.922349 0.137797
H29   H     H_    0.376217 0.914338 0.047185 0.136976
H30   H     H_    0.679383 0.756572 0.922347 0.137799
H31   H     H_    0.095244 0.990355 0.073336 0.141292
H32   H     H_    0.763225 0.161758 0.955521 0.156687
H33   H     H_    0.595237 0.490277 0.073347 0.141321
H34   H     H_    0.040998 0.490812 0.941241 0.158479
H35   H     H_    0.263270 0.661744 0.955511 0.156724
H36   H     H_    0.634880 0.333752 0.079557 0.131933
H37   H     H_    0.360484 0.640296 0.945364 0.144324
H38   H     H_    0.134867 0.833814 0.079549 0.131903
H39   H     H_    0.860445 0.140361 0.945378 0.144234
H40   H     H_    0.621431 0.308916 0.953935 0.152472
H41   H     H_    0.371162 0.606425 0.070474 0.141787
H42   H     H_    0.121419 0.808976 0.953928 0.152541
H43   H     H_    0.871123 0.106488 0.070488 0.141783
H44   H     H_    0.580498 0.464558 0.947772 0.144776
H45   H     H_    0.980014 0.969278 0.438354 0.132807
H46   H     H_    0.274270 0.630517 0.080475 0.136125
H47   H     H_    0.080506 0.964635 0.947760 0.144743
H48   H     H_    0.774226 0.130529 0.080486 0.136189
H49   H     H_    0.483378 0.973828 0.572707 0.122999
H50   H     H_    0.473268 0.972586 0.442367 0.132456
H51   H     H_    0.990014 0.473789 0.570766 0.116284
H52   H     H_    0.985466 0.473614 0.440176 0.118497
H53   H     H_    0.667796 0.533293 0.567190 0.122075
H54   H     H_    0.358105 0.471153 0.443593 0.129986
H55   H     H_    0.160719 0.028562 0.569557 0.120040
H56   H     H_    0.071974 0.891855 0.560380 0.171177
H57   H     H_    0.859495 0.965144 0.444170 0.126621
H58   H     H_    0.891380 0.341946 0.559505 0.135134
H59   H     H_    0.110952 0.405165 0.430177 0.136605
H60   H     H_    0.404654 0.764367 0.566059 0.127227
H61   H     H_    0.609999 0.915555 0.428540 0.139325
H62   H     H_    0.517576 0.256608 0.054952 0.109627
H63   H     H_    0.471606 0.245529 0.942979 0.111829
H64   H     H_    0.017583 0.756607 0.054955 0.109652
H65   H     H_    0.971610 0.745529 0.942982 0.111808
H66   H     H_    0.478722 0.468685 0.438398 0.134740
H67   H     H_    0.571098 0.392727 0.560416 0.174984
H68   H     H_    0.563557 0.382370 0.435354 0.141597
O1    O     O_R   0.784290 0.290360 0.830540 -0.530764
O2    O     O_R   0.456020 0.282110 0.333230 -0.520072
O3    O     O_R   0.043980 0.782110 0.666770 -0.525136
O4    O     O_R   0.956020 0.782110 0.333230 -0.520345
O5    O     O_R   0.679070 0.374030 0.674430 -0.509545
O6    O     O_R   0.320930 0.374030 0.325570 -0.507612
O7    O     O_R   0.179070 0.874030 0.674430 -0.509514
O8    O     O_R   0.820930 0.874030 0.325570 -0.507361
O9    O     O_3   0.665360 0.165350 0.749070 -0.245968
O10   O     O_3   0.334640 0.165350 0.250930 -0.253182
O11   O     O_3   0.165360 0.665350 0.749070 -0.244776
O12   O     O_R   0.215710 0.290360 0.169460 -0.527852
O13   O     O_3   0.834640 0.665350 0.250930 -0.251144
O14   O     O_R   0.762610 0.041070 0.825230 -0.501796
O15   O     O_R   0.237390 0.041070 0.174770 -0.499955
O16   O     O_R   0.262610 0.541070 0.825230 -0.500906
O17   O     O_R   0.737390 0.541070 0.174770 -0.500732
O18   O     O_R   0.667390 0.924160 0.829970 -0.526149
O19   O     O_R   0.332610 0.924160 0.170030 -0.528664
O20   O     O_R   0.167390 0.424160 0.829970 -0.525951
O21   O     O_R   0.832610 0.424160 0.170030 -0.528926
O22   O     O_R   0.553980 0.081420 0.821780 -0.496652
O23   O     O_R   0.284290 0.790360 0.830540 -0.530427
O24   O     O_R   0.446020 0.081420 0.178220 -0.498919
O25   O     O_R   0.053980 0.581420 0.821780 -0.496733
O26   O     O_R   0.946020 0.581420 0.178220 -0.499115
O27   O     O_R   0.543210 0.283170 0.826740 -0.521128
O28   O     O_R   0.456790 0.283170 0.173260 -0.516959
O29   O     O_R   0.043210 0.783170 0.826740 -0.521146
O30   O     O_R   0.956790 0.783170 0.173260 -0.517306
O31   O     O_R   0.678350 0.375000 0.822720 -0.498586
O32   O     O_R   0.321650 0.375000 0.177280 -0.494783
O33   O     O_R   0.178350 0.875000 0.822720 -0.498885
O34   O     O_R   0.715710 0.790360 0.169460 -0.527816
O35   O     O_R   0.821650 0.875000 0.177280 -0.494810
O36   O     O_R   0.785060 0.289300 0.670580 -0.516822
O37   O     O_R   0.214940 0.289300 0.329420 -0.517031
O38   O     O_R   0.285060 0.789300 0.670580 -0.521453
O39   O     O_R   0.714940 0.789300 0.329420 -0.517491
O40   O     O_R   0.763330 0.040090 0.676940 -0.503787
O41   O     O_R   0.236670 0.040090 0.323060 -0.507197
O42   O     O_R   0.263330 0.540090 0.676940 -0.508520
O43   O     O_R   0.736670 0.540090 0.323060 -0.508207
O44   O     O_R   0.668160 0.923110 0.670000 -0.522856
O45   O     O_R   0.554690 0.080440 0.673480 -0.510670
O46   O     O_R   0.331840 0.923110 0.330000 -0.517013
O47   O     O_R   0.168160 0.423110 0.670000 -0.521967
O48   O     O_R   0.831840 0.423110 0.330000 -0.522081
O49   O     O_R   0.445310 0.080440 0.326520 -0.509276
O50   O     O_R   0.054690 0.580440 0.673480 -0.510272
O51   O     O_R   0.945310 0.580440 0.326520 -0.509264
O52   O     O_R   0.543980 0.282110 0.666770 -0.524929

loop_
_geom_bond_atom_site_label_1
_geom_bond_atom_site_label_2
_ccdc_geom_bond_type
C53   O27   A    
C7    C10   D    
C56   O30   A    
C23   H28   S    
C53   O22   A    
Cr10  O25   S    
C29   C33   S    
C4    C53   S    
C64   C103  S    
C68   C86   S    
C59   H67   S    
Cr6   O11   S    
C17   C91   A    
C65   C101  S    
C6    C55   S    
C21   C26   A    
C35   C102  A    
C56   O26   A    
C81   H6    S    
Cr10  O50   S    
C62   C105  S    
C40   C44   A    
C24   H29   S    
C59   H2    S    
C54   O24   A    
C75   C93   A    
C77   H55   S    
C63   C81   A    
C60   H45   S    
C89   H59   S    
C4    H63   S    
C98   O12   A    
C42   C109  S    
C73   C90   S    
Cr3   O33   S    
C76   H54   S    
C95   C112  S    
C111  O6    A    
C36   O16   A    
Cr4   O8    S    
C15   C25   S    
C109  O51   A    
Cr8   O22   S    
C65   C70   A    
C79   H5    S    
C12   C22   A    
C94   C111  S    
C112  O38   A    
C20   H25   S    
Cr11  O13   S    
C109  O4    A    
C2    C32   S    
C67   C72   A    
C17   C39   A    
C61   H4    S    
C74   C92   S    
C25   O19   A    
Cr6   O42   S    
Cr3   O3    S    
C19   C37   A    
C76   C94   A    
C22   H27   S    
C104  O47   A    
C78   C83   A    
C85   H15   S    
C20   C24   A    
C78   C96   A    
C8    C9    S    
C106  O45   A    
C98   O32   A    
C70   C74   A    
C8    H1    S    
Cr2   O10   S    
Cr6   O23   S    
Cr7   O13   S    
Cr1   O9    S    
Cr12  O52   S    
Cr5   O12   S    
C18   C35   A    
C52   H52   S    
C112  O7    A    
Cr4   O13   S    
Cr7   O39   S    
C10   H23   S    
C55   O29   A    
C12   C58   A    
C61   H56   S    
C30   H32   S    
C92   H21   S    
C13   C80   A    
C84   H14   S    
C103  O41   A    
C87   C92   S    
C110  O5    A    
Cr8   O18   S    
Cr8   O9    S    
C105  O43   A    
C35   C97   S    
C49   H49   S    
C5    H62   S    
C87   H13   S    
C12   C47   S    
C70   C87   S    
C51   H51   S    
C41   C49   A    
C37   C98   S    
C28   H37   S    
C11   H34   S    
C63   C67   A    
C16   C26   A    
C46   C48   A    
C84   H9    S    
C67   C85   S    
Cr7   O17   S    
C41   C106  S    
C62   C66   A    
Cr4   O35   S    
C27   C31   S    
C51   C52   A    
C31   C102  S    
C74   C96   A    
C5    C54   S    
C28   C32   S    
C57   H68   S    
C55   O25   A    
C86   C90   S    
C3    O39   A    
C6    C11   D    
C30   C34   S    
C92   H61   S    
C38   C99   S    
Cr1   O36   S    
Cr5   O15   S    
C68   C73   A    
C89   H19   S    
Cr3   O7    S    
Cr12  O5    S    
C77   C95   A    
C28   H35   S    
C97   O31   A    
Cr3   O11   S    
C60   C61   S    
C65   C83   A    
Cr4   O4    S    
C14   C23   A    
C100  O35   A    
Cr6   O16   S    
Cr9   O24   S    
C66   C71   A    
C13   C33   S    
C106  O52   A    
C20   C38   A    
C62   C79   A    
C88   H58   S    
C15   C80   A    
C21   C39   A    
Cr12  O31   S    
Cr5   O41   S    
C44   C57   S    
C63   C104  S    
C43   C48   A    
C101  O44   A    
C3    O8    A    
C1    C16   S    
C99   O33   A    
C21   H26   S    
C87   H17   S    
C108  O3    A    
C100  O34   A    
C1    O14   A    
C64   C82   A    
C13   C38   A    
C3    C96   S    
C36   O20   A    
C40   C107  S    
C58   C102  A    
Cr7   O43   S    
C15   C24   A    
Cr11  O26   S    
C90   H60   S    
Cr10  O47   S    
Cr11  O21   S    
C42   C46   A    
C111  O37   A    
C14   C69   A    
Cr10  O20   S    
C26   H30   S    
Cr10  O11   S    
C17   C34   S    
C73   C95   A    
Cr5   O10   S    
C2    C69   A    
C64   C68   A    
C34   H48   S    
C44   C45   A    
C19   C23   A    
Cr1   O40   S    
Cr11  O48   S    
Cr9   O49   S    
C88   H18   S    
C32   H46   S    
C31   H40   S    
C45   C59   S    
C85   H10   S    
C85   C89   S    
Cr2   O2    S    
C46   C60   S    
C1    O18   A    
C18   C22   A    
Cr1   O1    S    
C29   H38   S    
Cr3   O29   S    
C60   H3    S    
C84   C88   S    
Cr2   O28   S    
C30   C91   S    
C18   H22   S    
C27   C58   S    
C76   C81   A    
Cr9   O10   S    
C5    C8    D    
C54   O28   A    
C71   C93   A    
C28   C69   S    
C86   H16   S    
C27   H33   S    
Cr5   O37   S    
C93   C110  S    
C19   H24   S    
C29   H31   S    
Cr12  O9    S    
C30   H39   S    
Cr8   O45   S    
Cr1   O14   S    
C78   H57   S    
C47   O17   A    
C27   H36   S    
C72   C94   A    
C83   H8    S    
C25   O15   A    
C82   H7    S    
Cr8   O44   S    
C14   C36   S    
C72   C89   S    
C2    C37   A    
C43   C51   A    
C48   C61   S    
C29   C80   S    
C99   O23   A    
C77   C82   A    
Cr6   O38   S    
C103  O46   A    
C40   C50   A    
Cr11  O51   S    
C47   O21   A    
C6    H65   S    
C104  O42   A    
C105  O48   A    
Cr9   O46   S    
C101  O40   A    
C7    C56   S    
C43   C108  S    
Cr9   O19   S    
Cr4   O30   S    
C75   H53   S    
C7    H64   S    
Cr12  O27   S    
C57   C59   S    
C10   C11   S    
C66   C84   S    
C71   C88   S    
C33   H42   S    
C9    H12   S    
C86   H11   S    
C57   H66   S    
C31   H44   S    
C39   C100  S    
C16   C91   A    
C49   C50   A    
Cr2   O6    S    
C108  O50   A    
C41   C45   A    
C107  O49   A    
C110  O36   A    
C50   H50   S    
Cr2   O32   S    
C4    C9    D    
C32   H41   S    
C75   C79   A    
C107  O2    A    
C90   H20   S    
C34   H43   S    
Cr7   O34   S    
C42   C52   A    
C97   O1    A    
C33   H47   S    
