data_mof_unit_25154.cif
_audit_creation_date              2013-03-05T15:48:37-0500
_audit_creation_method            fapswitch 2.2
_symmetry_space_group_name_H-M    P1
_symmetry_Int_Tables_number       1
_space_group_crystal_system       triclinic
_cell_length_a                    16.655535
_cell_length_b                    16.683007
_cell_length_c                    43.115477
_cell_angle_alpha                 90.203728
_cell_angle_beta                  89.777696
_cell_angle_gamma                 120.100875
_cell_volume                      10364.5481709

loop_
_atom_site_label
_atom_site_type_symbol
_atom_site_description
_atom_site_fract_x
_atom_site_fract_y
_atom_site_fract_z
_atom_type_partial_charge
O1    O     O_R   0.509640 0.171340 0.784000 -0.496909
O2    O     O_R   0.661700 0.490360 0.716000 -0.457893
O3    O     O_R   0.828660 0.338300 0.784000 -0.495316
O4    O     O_R   0.509640 0.171340 0.716000 -0.535588
O5    O     O_R   0.661700 0.490360 0.784000 -0.497914
O6    O     O_R   0.828660 0.338300 0.716000 -0.492852
O7    O     O_R   0.171340 0.509640 0.284000 -0.500341
O8    O     O_R   0.490360 0.661700 0.216000 -0.502781
O9    O     O_R   0.338300 0.828660 0.284000 -0.524550
O10   O     O_R   0.171340 0.509640 0.216000 -0.496574
O11   O     O_R   0.490360 0.661700 0.284000 -0.530325
O12   O     O_R   0.338300 0.828660 0.216000 -0.499260
O13   O     O_R   0.539230 0.345420 0.781810 -0.456146
O14   O     O_R   0.806190 0.460770 0.718190 -0.508074
O15   O     O_R   0.654580 0.193810 0.781810 -0.455772
O16   O     O_R   0.539230 0.345420 0.718190 -0.520509
O17   O     O_R   0.806190 0.460770 0.781810 -0.459096
O18   O     O_R   0.654580 0.193810 0.718190 -0.447296
O19   O     O_R   0.345420 0.539230 0.281810 -0.462019
O20   O     O_R   0.460770 0.806190 0.218190 -0.452598
O21   O     O_R   0.193810 0.654580 0.281810 -0.512354
O22   O     O_R   0.345420 0.539230 0.218190 -0.454494
O23   O     O_R   0.460770 0.806190 0.281810 -0.459399
O24   O     O_R   0.193810 0.654580 0.218190 -0.458757
C1    C     C_R   0.584238 0.425569 0.794859 0.592569
C2    C     C_R   0.842366 0.415980 0.705651 0.567797
C3    C     C_R   0.574325 0.158895 0.794865 0.596677
C4    C     C_R   0.583884 0.425956 0.705425 0.545400
C5    C     C_R   0.841088 0.415677 0.794867 0.594360
C6    C     C_R   0.574201 0.158010 0.705204 0.552121
C7    C     C_R   0.425841 0.584330 0.294726 0.557153
C8    C     C_R   0.416539 0.842480 0.205517 0.607961
C9    C     C_R   0.157350 0.573699 0.294253 0.564365
C10   C     C_R   0.426232 0.583589 0.205520 0.603677
C11   C     C_R   0.415912 0.841962 0.294672 0.561227
C12   C     C_R   0.157550 0.573765 0.205528 0.604059
Cr1   Cr    Cr6+3 0.530290 0.262330 0.750000 1.032037
Cr2   Cr    Cr6+3 0.732040 0.469710 0.750000 1.062745
Cr3   Cr    Cr6+3 0.737670 0.267960 0.750000 1.080718
Cr4   Cr    Cr6+3 0.262330 0.530290 0.250000 1.079392
Cr5   Cr    Cr6+3 0.469710 0.732040 0.250000 1.069468
Cr6   Cr    Cr6+3 0.267960 0.737670 0.250000 1.051612
O25   O     O_3   0.666667 0.333333 0.750000 -0.260438
O26   O     O_3   0.333333 0.666667 0.250000 -0.263175
C13   C     C_R   0.882715 0.445648 0.826037 0.040580
C14   C     C_R   0.559771 0.109955 0.674910 0.014134
C15   C     C_R   0.554130 0.437581 0.825998 0.040838
C16   C     C_R   0.868345 0.434615 0.673113 0.028008
C17   C     C_R   0.561996 0.116981 0.825976 0.041485
C18   C     C_R   0.551336 0.439194 0.675121 0.003329
C19   C     C_R   0.446492 0.885975 0.325454 0.006138
C20   C     C_R   0.108901 0.558661 0.175678 0.026844
C21   C     C_R   0.439390 0.555298 0.325653 0.018604
C22   C     C_R   0.450604 0.890872 0.175631 0.029270
C23   C     C_R   0.117192 0.561511 0.325188 0.017429
C24   C     C_R   0.441307 0.549606 0.175692 0.029309
C25   C     C_R   0.981345 0.560201 0.035425 0.031212
C26   C     C_R   0.553218 0.059639 0.463753 0.042970
C27   C     C_R   0.440101 0.420749 0.035258 0.030516
C28   C     C_R   0.989555 0.562948 0.465920 0.077241
C29   C     C_R   0.577912 0.015797 0.034808 0.030696
C30   C     C_R   0.399822 0.485733 0.472505 0.055856
C31   C     C_R   0.561453 0.088797 0.528172 0.072401
C32   C     C_R   0.978940 0.556984 0.970207 0.037287
C33   C     C_R   0.422691 0.479876 0.536834 0.070753
C34   C     C_R   0.576119 0.017967 0.969606 0.037385
C35   C     C_R   0.958282 0.542254 0.530230 0.047926
C36   C     C_R   0.442582 0.422758 0.970064 0.036826
C37   C     C_R   0.986773 0.563901 0.067859 0.444607
C38   C     C_R   0.543061 0.043924 0.431698 0.421790
C39   C     C_R   0.436684 0.421969 0.067701 0.444508
C40   C     C_R   0.010853 0.575413 0.434232 0.487375
C41   C     C_R   0.576803 0.010753 0.067242 0.444464
C42   C     C_R   0.390629 0.493772 0.440602 0.449972
C43   C     C_R   0.560709 0.102450 0.560184 0.480255
C44   C     C_R   0.978273 0.555941 0.937717 0.448631
C45   C     C_R   0.433223 0.476048 0.568917 0.479462
C46   C     C_R   0.575443 0.018832 0.937127 0.448673
C47   C     C_R   0.943986 0.532855 0.562321 0.450857
C48   C     C_R   0.443334 0.423644 0.937589 0.448018
O27   O     O_2   0.984366 0.626614 0.081831 -0.506338
O28   O     O_2   0.556506 0.106724 0.414049 -0.505358
O29   O     O_2   0.374170 0.356339 0.081565 -0.505332
O30   O     O_2   0.029577 0.648403 0.421659 -0.464551
O31   O     O_2   0.642270 0.013244 0.080894 -0.505463
O32   O     O_2   0.324792 0.499098 0.430638 -0.500606
O33   O     O_2   0.578346 0.178105 0.570299 -0.482061
O34   O     O_2   0.994946 0.625935 0.923470 -0.501398
O35   O     O_2   0.374061 0.472217 0.586723 -0.491793
O36   O     O_2   0.628579 0.002116 0.922577 -0.501927
O37   O     O_2   0.951726 0.597968 0.577793 -0.505557
O38   O     O_2   0.373092 0.370342 0.923312 -0.502058
N1    N     N_R   0.998202 0.499085 0.084003 -0.341707
N2    N     N_R   0.515960 0.957290 0.420064 -0.395727
N3    N     N_R   0.501462 0.498359 0.083995 -0.341630
N4    N     N_R   0.013895 0.506735 0.417419 -0.358769
N5    N     N_R   0.500799 0.999688 0.083749 -0.341891
N6    N     N_R   0.456821 0.497948 0.420474 -0.354587
N7    N     N_R   0.538894 0.030614 0.580335 -0.352349
N8    N     N_R   0.957104 0.475930 0.921763 -0.344137
N9    N     N_R   0.509555 0.475202 0.580419 -0.355801
N10   N     N_R   0.516613 0.040374 0.921516 -0.343925
N11   N     N_R   0.920624 0.450301 0.576511 -0.351249
N12   N     N_R   0.523411 0.482839 0.921666 -0.343867
C49   C     C_R   0.994680 0.424274 0.068711 0.456259
C50   C     C_R   0.504110 0.885812 0.439105 0.410617
C51   C     C_R   0.576218 0.570195 0.068832 0.455603
C52   C     C_R   0.986890 0.421291 0.430358 0.438090
C53   C     C_R   0.429093 0.002994 0.068803 0.455736
C54   C     C_R   0.530053 0.488740 0.430715 0.464807
C55   C     C_R   0.519736 0.944727 0.569793 0.451723
C56   C     C_R   0.941133 0.397164 0.937577 0.459434
C57   C     C_R   0.579414 0.483030 0.561146 0.453031
C58   C     C_R   0.453852 0.056194 0.937658 0.459456
C59   C     C_R   0.910748 0.375198 0.559815 0.467625
C60   C     C_R   0.602363 0.545876 0.937505 0.459171
O39   O     O_2   0.012715 0.372394 0.083106 -0.530113
O40   O     O_2   0.485357 0.811884 0.427259 -0.524433
O41   O     O_2   0.628135 0.640096 0.083417 -0.530913
O42   O     O_2   0.992755 0.363248 0.414726 -0.513508
O43   O     O_2   0.359293 0.985109 0.083515 -0.531646
O44   O     O_2   0.583827 0.487961 0.411556 -0.514900
O45   O     O_2   0.499081 0.883043 0.588694 -0.508685
O46   O     O_2   0.912947 0.324928 0.923133 -0.541736
O47   O     O_2   0.648184 0.487752 0.572820 -0.524537
O48   O     O_2   0.409678 0.084460 0.923497 -0.541129
O49   O     O_2   0.890900 0.303976 0.573716 -0.537974
O50   O     O_2   0.674618 0.590390 0.923036 -0.541433
C61   C     C_R   0.974455 0.410140 0.036363 -0.006373
C62   C     C_R   0.512250 0.897729 0.471891 -0.001097
C63   C     C_R   0.590178 0.564688 0.036412 -0.006513
C64   C     C_R   0.956603 0.402590 0.461771 -0.012775
C65   C     C_R   0.434636 0.022879 0.036455 -0.005897
C66   C     C_R   0.544132 0.483313 0.462960 0.010458
C67   C     C_R   0.521824 0.927904 0.537447 -0.002585
C68   C     C_R   0.954540 0.399414 0.970313 -0.003867
C69   C     C_R   0.571023 0.484527 0.528373 0.005793
C70   C     C_R   0.442943 0.042612 0.970406 -0.004172
C71   C     C_R   0.922500 0.380557 0.527002 0.015476
C72   C     C_R   0.600311 0.556646 0.970292 -0.004345
C73   C     C_R   0.974529 0.482705 0.019507 -0.042494
C74   C     C_R   0.535403 0.985760 0.484075 -0.030103
C75   C     C_R   0.517445 0.492108 0.019440 -0.042787
C76   C     C_R   0.964405 0.476846 0.480002 -0.023584
C77   C     C_R   0.506930 0.022626 0.019248 -0.042594
C78   C     C_R   0.478421 0.483529 0.483912 -0.013385
C79   C     C_R   0.540040 0.000662 0.516599 -0.020049
C80   C     C_R   0.969340 0.479378 0.986652 -0.043042
C81   C     C_R   0.490927 0.482476 0.516378 -0.024834
C82   C     C_R   0.508321 0.027707 0.986398 -0.043214
C83   C     C_R   0.948374 0.466238 0.512436 -0.011800
C84   C     C_R   0.520436 0.490835 0.986576 -0.043206
C85   C     C_R   0.986070 0.634346 0.018632 -0.099578
C86   C     C_R   0.578348 0.147319 0.475835 -0.105988
C87   C     C_R   0.365751 0.351251 0.018377 -0.097661
C88   C     C_R   0.995623 0.635992 0.483888 -0.071203
C89   C     C_R   0.647045 0.010773 0.017670 -0.097700
C90   C     C_R   0.333333 0.483019 0.493206 -0.104812
C91   C     C_R   0.582202 0.161629 0.507574 -0.071580
C92   C     C_R   0.987666 0.633926 0.986493 -0.081070
C93   C     C_R   0.344265 0.479426 0.524888 -0.066569
C94   C     C_R   0.644531 0.009060 0.985541 -0.079499
C95   C     C_R   0.980746 0.625973 0.515605 -0.116829
C96   C     C_R   0.365783 0.353860 0.986257 -0.080253
C97   C     C_R   0.959842 0.329237 0.020143 0.001411
C98   C     C_R   0.498885 0.825757 0.492760 0.010737
C99   C     C_R   0.670961 0.631686 0.020251 0.001163
C100  C     C_R   0.922383 0.313970 0.475747 0.000780
C101  C     C_R   0.368002 0.037384 0.020579 0.001583
C102  C     C_R   0.623208 0.482153 0.474886 0.004380
C103  C     C_R   0.504025 0.840913 0.525296 0.007547
C104  C     C_R   0.949307 0.323625 0.987316 0.005068
C105  C     C_R   0.637454 0.484392 0.507346 0.002394
C106  C     C_R   0.372507 0.047859 0.987754 0.004747
C107  C     C_R   0.905551 0.303067 0.508204 0.010199
C108  C     C_R   0.676273 0.627348 0.987378 0.004367
C109  C     C_R   0.983548 0.456440 0.140594 0.034879
C110  C     C_R   0.400111 0.901336 0.377966 0.017868
C111  C     C_R   0.543787 0.526554 0.140591 0.036304
C112  C     C_R   0.146390 0.586496 0.380642 0.051632
C113  C     C_R   0.473756 0.015482 0.140425 0.035539
C114  C     C_R   0.516024 0.606066 0.375885 0.030984
C115  C     C_R   0.466066 0.051832 0.627774 0.029002
C116  C     C_R   0.985175 0.445710 0.866616 0.036084
C117  C     C_R   0.482858 0.370967 0.624988 0.018323
C118  C     C_R   0.458744 0.013763 0.866444 0.036199
C119  C     C_R   0.810499 0.412090 0.620304 0.013419
C120  C     C_R   0.553778 0.540413 0.866565 0.036874
C121  C     C_R   0.025923 0.475517 0.169958 -0.255533
C122  C     C_R   0.378284 0.876465 0.346803 -0.169900
C123  C     C_R   0.524571 0.550017 0.169974 -0.252976
C124  C     C_R   0.177980 0.604916 0.349978 -0.215944
C125  C     C_R   0.450544 0.973635 0.169869 -0.251881
C126  C     C_R   0.510259 0.622070 0.344478 -0.222594
C127  C     C_R   0.477075 0.082919 0.658516 -0.239292
C128  C     C_R   0.954075 0.429929 0.835696 -0.235119
C129  C     C_R   0.500833 0.361401 0.656008 -0.243557
C130  C     C_R   0.474548 0.045498 0.835596 -0.235631
C131  C     C_R   0.796070 0.411634 0.652161 -0.213989
C132  C     C_R   0.569755 0.524729 0.835655 -0.236640
C133  C     C_R   0.149034 0.625310 0.152011 0.268147
C134  C     C_R   0.539646 0.925019 0.335077 0.252232
C135  C     C_R   0.374584 0.522534 0.152041 0.268290
C136  C     C_R   0.022391 0.501240 0.330718 0.239938
C137  C     C_R   0.477111 0.850518 0.151938 0.268218
C138  C     C_R   0.375360 0.468283 0.338343 0.242116
C139  C     C_R   0.631566 0.101094 0.660522 0.244252
C140  C     C_R   0.844532 0.481646 0.847428 0.259005
C141  C     C_R   0.578595 0.528178 0.663485 0.252619
C142  C     C_R   0.636031 0.154767 0.847326 0.259114
C143  C     C_R   0.957822 0.461451 0.662320 0.230975
C144  C     C_R   0.517988 0.363659 0.847347 0.260215
C145  C     C_R   0.112104 0.602007 0.121987 -0.087526
C146  C     C_R   0.561972 0.953107 0.366309 -0.054277
C147  C     C_R   0.397998 0.508646 0.122014 -0.088075
C148  C     C_R   0.989534 0.484084 0.361311 -0.058255
C149  C     C_R   0.490603 0.886901 0.121853 -0.087375
C150  C     C_R   0.385064 0.449647 0.369402 -0.067752
C151  C     C_R   0.619308 0.067861 0.629868 -0.077161
C152  C     C_R   0.869263 0.488937 0.878735 -0.071611
C153  C     C_R   0.560973 0.538262 0.632465 -0.055769
C154  C     C_R   0.618101 0.129341 0.878579 -0.072297
C155  C     C_R   0.973791 0.465187 0.630244 -0.068906
C156  C     C_R   0.510565 0.381539 0.878641 -0.072233
C157  C     C_R   0.029798 0.518946 0.115878 0.202440
C158  C     C_R   0.492666 0.938573 0.387737 0.168316
C159  C     C_R   0.481264 0.509816 0.115893 0.202217
C160  C     C_R   0.050444 0.526225 0.386301 0.207231
C161  C     C_R   0.489734 0.968882 0.115688 0.202117
C162  C     C_R   0.452829 0.518307 0.388360 0.207849
C163  C     C_R   0.539654 0.047369 0.613125 0.215244
C164  C     C_R   0.938775 0.471311 0.888761 0.207740
C165  C     C_R   0.514976 0.460887 0.613035 0.206195
C166  C     C_R   0.530649 0.059586 0.888561 0.207392
C167  C     C_R   0.901002 0.441199 0.609215 0.204362
C168  C     C_R   0.528087 0.468742 0.888672 0.207726
H1    H     H_    0.994244 0.693730 0.974387 0.211668
H2    H     H_    0.600066 0.229900 0.515954 0.211201
H3    H     H_    0.305848 0.300515 0.974085 0.210641
H4    H     H_    0.987327 0.684503 0.528710 0.172989
H5    H     H_    0.697610 0.002375 0.973163 0.210239
H6    H     H_    0.291222 0.477233 0.540079 0.182721
H7    H     H_    0.593341 0.205015 0.460741 0.164290
H8    H     H_    0.991920 0.694672 0.030309 0.193680
H9    H     H_    0.272614 0.484322 0.484961 0.181619
H10   H     H_    0.701715 0.004867 0.029071 0.194708
H11   H     H_    0.013949 0.702142 0.473559 0.183380
H12   H     H_    0.305544 0.296268 0.029986 0.194543
H13   H     H_    0.832715 0.507007 0.895654 0.153916
H14   H     H_    0.673101 0.060502 0.618357 0.133120
H15   H     H_    0.492491 0.327236 0.895555 0.152870
H16   H     H_    0.042636 0.485892 0.621615 0.145805
H17   H     H_    0.672602 0.165460 0.895499 0.153787
H18   H     H_    0.586082 0.606995 0.623110 0.147795
H19   H     H_    0.632796 0.984727 0.374426 0.132821
H20   H     H_    0.148271 0.648634 0.102956 0.135858
H21   H     H_    0.338796 0.382014 0.379139 0.141582
H22   H     H_    0.500882 0.850471 0.102819 0.136179
H23   H     H_    0.916495 0.437018 0.365720 0.149745
H24   H     H_    0.351400 0.497841 0.102980 0.135413
H25   H     H_    0.993826 0.425891 0.188612 0.117426
H26   H     H_    0.306591 0.844905 0.339460 0.187949
H27   H     H_    0.574231 0.567999 0.188627 0.111973
H28   H     H_    0.251469 0.649770 0.345326 0.096783
H29   H     H_    0.433031 0.005906 0.188539 0.116247
H30   H     H_    0.558338 0.689782 0.335145 0.126442
H31   H     H_    0.421586 0.089075 0.669357 0.125461
H32   H     H_    0.985567 0.405248 0.818985 0.107407
H33   H     H_    0.479894 0.292791 0.664769 0.127171
H34   H     H_    0.418496 0.014358 0.818906 0.104227
H35   H     H_    0.726513 0.388000 0.660912 0.104436
H36   H     H_    0.594537 0.580653 0.818955 0.102582
C169  C     C_2   0.935441 0.238944 0.970952 0.348138
H37   H     H_    0.980245 0.244851 0.951700 0.162307
O51   O     O_2   0.872948 0.162342 0.978566 -0.483767
C170  C     C_2   0.490815 0.764686 0.546361 0.336074
H38   H     H_    0.542815 0.776834 0.563695 0.146751
O52   O     O_2   0.421062 0.688450 0.544736 -0.487203
C171  C     C_2   0.760757 0.698937 0.971060 0.348227
H39   H     H_    0.754378 0.737760 0.952027 0.162229
O53   O     O_2   0.837715 0.713753 0.978450 -0.482708
C172  C     C_2   0.865240 0.208822 0.521772 0.345899
H40   H     H_    0.903471 0.194282 0.539014 0.153509
O54   O     O_2   0.788862 0.146952 0.513617 -0.483768
C173  C     C_2   0.301401 0.061718 0.971755 0.348252
H41   H     H_    0.262204 0.017050 0.952569 0.162548
O55   O     O_2   0.287398 0.124062 0.979590 -0.483406
C174  C     C_2   0.721485 0.483946 0.518681 0.352339
H42   H     H_    0.769223 0.537462 0.534397 0.168150
O56   O     O_2   0.738018 0.423745 0.510232 -0.487042
C175  C     C_2   0.481372 0.734338 0.481113 0.359275
H43   H     H_    0.421653 0.691906 0.466602 0.172972
O57   O     O_2   0.533820 0.705949 0.487895 -0.455385
C176  C     C_2   0.952498 0.248756 0.037462 0.346544
H44   H     H_    0.906890 0.221684 0.057461 0.164388
O58   O     O_2   0.998892 0.213777 0.029959 -0.441300
C177  C     C_2   0.693338 0.480732 0.453694 0.335439
H45   H     H_    0.672483 0.425090 0.436945 0.143949
O59   O     O_2   0.774541 0.542137 0.454769 -0.472758
C178  C     C_2   0.294949 0.044688 0.038254 0.346440
H46   H     H_    0.313817 0.090336 0.058233 0.164173
O60   O     O_2   0.213279 0.998232 0.031061 -0.441589
C179  C     C_2   0.900444 0.231240 0.456421 0.337534
H47   H     H_    0.861327 0.218358 0.435109 0.145708
O61   O     O_2   0.927177 0.177984 0.463892 -0.457667
C180  C     C_2   0.751610 0.704972 0.037665 0.345871
H48   H     H_    0.779044 0.686413 0.057437 0.163453
O62   O     O_2   0.786305 0.786471 0.030509 -0.441265
O63   O     O_3   0.775880 0.500124 0.838161 -0.539281
C181  C     C_3   0.803186 0.593272 0.845053 -0.093337
H49   H     H_    0.878250 0.641863 0.840348 0.115410
H50   H     H_    0.785933 0.599975 0.869479 0.166122
H51   H     H_    0.763963 0.615129 0.829970 0.150143
O64   O     O_3   0.710709 0.121109 0.677272 -0.548369
C182  C     C_3   0.792280 0.179041 0.660263 -0.074629
H52   H     H_    0.786848 0.232823 0.646702 0.127212
H53   H     H_    0.810428 0.137078 0.644814 0.132581
H54   H     H_    0.850416 0.215801 0.676820 0.174281
O65   O     O_3   0.499611 0.276464 0.838045 -0.538545
C183  C     C_3   0.406674 0.210018 0.845260 -0.094538
H55   H     H_    0.357546 0.235913 0.841130 0.115931
H56   H     H_    0.401124 0.186043 0.869581 0.165507
H57   H     H_    0.384369 0.149028 0.829957 0.149460
O66   O     O_3   0.027781 0.478334 0.682981 -0.562270
C184  C     C_3   0.084646 0.574966 0.686448 -0.106302
H58   H     H_    0.044214 0.607104 0.695164 0.120368
H59   H     H_    0.120440 0.608125 0.664339 0.137037
H60   H     H_    0.138934 0.588708 0.703870 0.149798
O67   O     O_3   0.723491 0.223627 0.838093 -0.539776
C185  C     C_3   0.789522 0.196572 0.844833 -0.092903
H61   H     H_    0.763156 0.121694 0.840075 0.116971
H62   H     H_    0.813266 0.213711 0.869240 0.165326
H63   H     H_    0.850889 0.235954 0.829696 0.150438
O68   O     O_3   0.628997 0.606377 0.681465 -0.536565
C186  C     C_3   0.566099 0.626117 0.696863 -0.099230
H64   H     H_    0.519136 0.568411 0.712531 0.109876
H65   H     H_    0.524930 0.641382 0.680062 0.127403
H66   H     H_    0.606127 0.688749 0.711428 0.152496
O69   O     O_3   0.606814 0.939747 0.312949 -0.546601
C187  C     C_3   0.674101 0.919922 0.324575 -0.094479
H67   H     H_    0.643476 0.857818 0.339852 0.092699
H68   H     H_    0.729564 0.981177 0.336903 0.133385
H69   H     H_    0.707050 0.905015 0.304682 0.149851
O70   O     O_3   0.229400 0.708878 0.158035 -0.532155
C188  C     C_3   0.222984 0.783953 0.145694 -0.083471
H70   H     H_    0.151110 0.772755 0.146345 0.128484
H71   H     H_    0.250880 0.798952 0.121661 0.153505
H72   H     H_    0.265928 0.846335 0.159917 0.159201
O71   O     O_3   0.306900 0.400693 0.319807 -0.552116
C189  C     C_3   0.218524 0.376778 0.331706 -0.060319
H73   H     H_    0.213471 0.438922 0.338091 0.134225
H74   H     H_    0.200434 0.329591 0.351900 0.132784
H75   H     H_    0.166053 0.338964 0.313446 0.163061
O72   O     O_3   0.480246 0.770383 0.158007 -0.532472
C190  C     C_3   0.561862 0.776650 0.145483 -0.082820
H76   H     H_    0.622720 0.848425 0.145952 0.129760
H77   H     H_    0.548856 0.748462 0.121497 0.153150
H78   H     H_    0.581329 0.733997 0.159695 0.158566
O73   O     O_3   0.962845 0.454763 0.306475 -0.556209
C191  C     C_3   0.919460 0.505070 0.297569 -0.107374
H79   H     H_    0.971279 0.576196 0.289716 0.118964
H80   H     H_    0.876111 0.508328 0.316707 0.132280
H81   H     H_    0.872798 0.468923 0.277728 0.152153
O74   O     O_3   0.290970 0.519269 0.158076 -0.532420
C192  C     C_3   0.215674 0.437545 0.145676 -0.082539
H82   H     H_    0.226632 0.376871 0.146302 0.129728
H83   H     H_    0.200873 0.450126 0.121646 0.152592
H84   H     H_    0.153149 0.418256 0.159874 0.159746
C193  C     C_2   0.891441 0.371793 0.137036 0.303773
H85   H     H_    0.865676 0.319229 0.155009 0.100644
O75   O     O_2   0.841945 0.360835 0.114748 -0.433754
C194  C     C_2   0.325842 0.886069 0.400393 0.263877
H86   H     H_    0.342324 0.906061 0.424516 0.132277
O76   O     O_2   0.244955 0.850715 0.392234 -0.476423
C195  C     C_2   0.628645 0.519582 0.136970 0.304724
H87   H     H_    0.681164 0.546613 0.154978 0.096893
O77   O     O_2   0.639841 0.481223 0.114579 -0.433365
C196  C     C_2   0.216774 0.628374 0.405667 0.322582
H88   H     H_    0.287006 0.682178 0.399998 0.124589
O78   O     O_2   0.198967 0.602129 0.432504 -0.472254
C197  C     C_2   0.481313 0.107371 0.136786 0.305173
H89   H     H_    0.454587 0.133364 0.154807 0.100348
O79   O     O_2   0.519874 0.156445 0.114370 -0.433893
C198  C     C_2   0.586817 0.684340 0.394699 0.313355
H90   H     H_    0.640644 0.745704 0.383170 0.088940
O80   O     O_2   0.585032 0.683184 0.422982 -0.419252
C199  C     C_2   0.377466 0.026266 0.611858 0.276608
H91   H     H_    0.325845 0.037214 0.623512 0.091209
O81   O     O_2   0.359931 0.991649 0.586009 -0.453608
C200  C     C_2   0.065941 0.435156 0.874516 0.289188
H92   H     H_    0.089356 0.401291 0.858263 0.094941
O82   O     O_2   0.109186 0.466501 0.898549 -0.449345
C201  C     C_2   0.434512 0.285486 0.605837 0.289628
H93   H     H_    0.415069 0.218969 0.616177 0.088771
O83   O     O_2   0.415408 0.287303 0.578652 -0.459765
C202  C     C_2   0.367069 0.932943 0.874292 0.289328
H94   H     H_    0.309905 0.909840 0.858085 0.093701
O84   O     O_2   0.354740 0.889334 0.898224 -0.448991
C203  C     C_2   0.728293 0.377889 0.599931 0.337631
H95   H     H_    0.661582 0.360980 0.609833 0.126070
O85   O     O_2   0.732576 0.365820 0.572230 -0.403654
C204  C     C_2   0.564276 0.631728 0.874504 0.289560
H96   H     H_    0.598076 0.688790 0.858249 0.094150
O86   O     O_2   0.532976 0.643851 0.898577 -0.448850

loop_
_geom_bond_atom_site_label_1
_geom_bond_atom_site_label_2
_geom_bond_distance
_ccdc_geom_bond_type
C64   C76   1.414862 A    
C100  C107  1.420414 A    
C117  C165  1.414423 A    
C10   C24   1.474274 S    
N9    C57   1.379218 Am   
C52   O42   1.221136 D    
C45   N9    1.373112 Am   
C175  H43   1.085031 S    
O13   C1    1.287985 A    
C104  C169  1.487912 S    
C179  O61   1.221188 D    
C45   O35   1.223003 D    
C172  H40   1.084808 S    
C135  C147  1.402311 A    
C202  O84   1.220678 D    
C56   O46   1.220655 D    
C76   C83   1.417603 A    
C110  C194  1.485396 S    
C39   N3    1.379124 Am   
C28   C40   1.400002 A    
C99   C180  1.488930 S    
O17   C5    1.290281 A    
C194  H86   1.084558 S    
C50   C62   1.424307 A    
C20   C133  1.407708 A    
O12   Cr6   2.011078 S    
C156  H15   1.082889 S    
N12   C60   1.384288 Am   
C18   C141  1.410366 A    
O66   C184  1.409317 S    
C109  C121  1.407493 A    
C70   C106  1.427969 A    
C109  C193  1.482719 S    
C101  C106  1.423719 A    
C114  C126  1.394089 A    
C89   H10   1.083633 S    
C72   C84   1.414705 A    
C115  C199  1.484897 S    
O1    Cr1   2.014881 S    
C134  O69   1.392760 S    
C109  C157  1.418546 A    
N4    C52   1.380593 Am   
C24   C123  1.404258 A    
C117  C201  1.486226 S    
C50   O40   1.220613 D    
C21   C126  1.405365 A    
O7    C9    1.279631 A    
Cr6   O26   1.970382 S    
C36   C96   1.403170 A    
C66   C78   1.417794 A    
C181  H50   1.110496 S    
C33   C45   1.400726 A    
C185  H61   1.115367 S    
C16   C131  1.398292 A    
C53   C65   1.426651 A    
C183  H57   1.107516 S    
C35   C47   1.398999 A    
C187  H67   1.113396 S    
C108  C171  1.487955 S    
C186  H65   1.113597 S    
C26   C38   1.400768 A    
C200  O82   1.220678 D    
O64   C182  1.413477 S    
C5    C13   1.480404 S    
C48   O38   1.223341 D    
C124  H28   1.085735 S    
C69   C105  1.428590 A    
N10   C58   1.384359 Am   
O14   Cr2   1.897018 S    
O15   C3    1.287775 A    
C179  H47   1.085295 S    
C72   C108  1.427892 A    
C22   C137  1.407622 A    
C143  C155  1.402982 A    
C136  O73   1.381392 S    
C180  H48   1.085403 S    
O63   C181  1.413818 S    
C134  C146  1.412708 A    
C188  H72   1.105885 S    
O15   Cr3   1.899120 S    
C40   O30   1.223263 D    
C19   C122  1.405401 A    
C120  C204  1.482600 S    
O5    C1    1.285383 A    
C59   C71   1.424410 A    
N10   C166  1.449751 S    
C11   C19   1.477562 S    
C197  H89   1.085566 S    
C57   C69   1.421961 A    
C65   C77   1.413646 A    
C129  H33   1.084486 S    
C199  H91   1.085621 S    
C63   C75   1.413637 A    
C178  H46   1.085396 S    
C131  H35   1.086024 S    
C132  H36   1.084185 S    
C86   H7    1.083737 S    
C154  C166  1.399847 A    
C150  H21   1.082557 S    
C114  C198  1.486254 S    
C88   H11   1.083504 S    
C198  O80   1.219676 D    
N7    C163  1.439009 S    
C195  H87   1.085563 S    
C133  O70   1.389650 S    
C25   C73   1.415098 A    
C44   N8    1.379319 Am   
C201  H93   1.084897 S    
C37   N1    1.379437 Am   
O23   Cr5   1.898571 S    
Cr2   O25   1.969044 S    
C173  O55   1.220863 D    
C192  H82   1.115426 S    
C170  H38   1.085172 S    
C53   O43   1.220906 D    
C113  C197  1.482746 S    
C20   C121  1.404367 A    
C171  O53   1.220823 D    
C33   C81   1.419322 A    
C189  H73   1.114921 S    
C38   O28   1.223074 D    
N3    C159  1.449204 S    
C186  H64   1.113646 S    
C40   N4    1.375795 Am   
N1    C157  1.450126 S    
O21   C9    1.287634 A    
C33   C93   1.402476 A    
O73   C191  1.409513 S    
C117  C129  1.398724 A    
C196  H88   1.086242 S    
C89   C94   1.385825 A    
C54   O44   1.220863 D    
C174  O56   1.221180 D    
C155  H16   1.082991 S    
O71   C189  1.412637 S    
C142  C154  1.399525 A    
C126  H30   1.082898 S    
C187  H69   1.109220 S    
C31   C91   1.403050 A    
C42   N6    1.374545 Am   
C128  H32   1.084164 S    
C137  C149  1.402859 A    
C148  C160  1.404302 A    
N4    C160  1.440334 S    
O10   Cr4   2.013526 S    
C175  O57   1.221012 D    
C58   O48   1.220665 D    
C120  C132  1.407132 A    
C203  H95   1.085919 S    
O74   C192  1.415078 S    
O3    C5    1.287314 A    
C65   C101  1.426621 A    
N6    C162  1.436532 S    
C114  C162  1.412865 A    
C151  H14   1.081942 S    
C17   C142  1.410745 A    
C47   O37   1.223391 D    
C77   C82   1.418605 A    
C12   C20   1.475583 S    
C19   C134  1.411764 A    
C13   C128  1.404304 A    
C27   C75   1.415109 A    
C32   C80   1.415128 A    
C177  O59   1.221158 D    
C47   N11   1.374463 Am   
C56   C68   1.427283 A    
C31   C79   1.417143 A    
C191  H79   1.113961 S    
C39   O29   1.223348 D    
O22   C10   1.286760 A    
C92   H1    1.083278 S    
O8    Cr5   2.008227 S    
C192  H84   1.105936 S    
O68   C186  1.409172 S    
C42   O32   1.223324 D    
O21   Cr6   1.900258 S    
C183  H56   1.110518 S    
C111  C195  1.482745 S    
N5    C53   1.384533 Am   
O2    Cr2   2.015417 S    
C115  C127  1.400369 A    
N7    C55   1.378172 Am   
C96   H3    1.083331 S    
C43   N7    1.375246 Am   
C21   C138  1.411484 A    
C111  C123  1.406961 A    
C9    C23   1.458158 S    
O8    C10   1.283182 A    
C41   O31   1.223316 D    
C68   C80   1.414739 A    
C43   O33   1.222579 D    
C98   C175  1.487543 S    
C90   H9    1.083753 S    
C13   C140  1.410759 A    
C67   C79   1.417614 A    
C54   C66   1.421529 A    
C115  C163  1.411344 A    
C127  H31   1.083812 S    
O9    C11   1.283780 A    
C204  H96   1.085577 S    
O20   C8    1.288659 A    
C182  H54   1.108990 S    
N11   C167  1.437440 S    
C153  C165  1.400132 A    
C74   C79   1.418925 A    
C6    C14   1.486014 S    
C118  C130  1.407491 A    
C151  C163  1.396009 A    
C199  O81   1.220501 D    
C136  C148  1.400456 A    
C172  O54   1.221125 D    
C85   C92   1.385900 A    
C86   C91   1.384481 A    
O6    C2    1.279541 A    
C31   C43   1.399125 A    
C71   C83   1.417673 A    
C169  O51   1.220829 D    
C91   H2    1.083644 S    
C194  O76   1.221382 D    
C147  C159  1.401218 A    
O17   Cr2   1.904695 S    
C58   C70   1.427216 A    
C111  C159  1.418151 A    
C62   C74   1.417569 A    
C52   C64   1.423382 A    
C145  C157  1.401280 A    
O19   Cr4   1.903865 S    
O3    Cr3   2.010942 S    
C35   C95   1.403062 A    
N12   C168  1.449212 S    
O70   C188  1.415147 S    
O72   C190  1.415105 S    
C66   C102  1.424886 A    
C148  H23   1.083378 S    
C152  H13   1.082893 S    
C102  C105  1.417652 A    
C191  H81   1.109426 S    
C3    C17   1.480184 S    
C141  O68   1.380923 S    
C193  O75   1.220732 D    
O16   C4    1.288813 A    
N6    C54   1.377992 Am   
C139  O64   1.390967 S    
C46   N10   1.379231 Am   
O24   Cr6   1.900063 S    
O19   C7    1.289300 A    
C24   C135  1.407436 A    
C141  C153  1.399072 A    
C46   O36   1.223327 D    
C185  H62   1.110502 S    
C48   N12   1.379116 Am   
C38   N2    1.373499 Am   
C187  H68   1.110512 S    
C34   C82   1.415096 A    
C144  C156  1.399137 A    
C176  H44   1.085399 S    
C110  C122  1.399353 A    
C61   C73   1.413684 A    
C34   C94   1.403232 A    
O67   C185  1.413856 S    
C8    C22   1.475242 S    
C29   C77   1.415122 A    
C150  C162  1.399220 A    
C26   C86   1.402994 A    
C90   C93   1.384213 A    
C68   C104  1.428034 A    
C88   C95   1.384474 A    
C185  H63   1.107505 S    
C142  O67   1.385773 S    
C180  O62   1.221189 D    
C171  H39   1.085197 S    
C30   C90   1.402611 A    
C107  C172  1.486527 S    
C67   C103  1.425751 A    
C188  H71   1.110680 S    
C113  C125  1.407236 A    
C1    C15   1.479140 S    
C2    C16   1.454460 S    
O16   Cr1   1.905157 S    
C182  H52   1.113854 S    
O5    Cr2   2.007005 S    
C49   O39   1.220911 D    
C51   O41   1.220927 D    
C18   C129  1.404903 A    
C178  O60   1.221181 D    
C34   C46   1.400655 A    
C174  H42   1.084572 S    
C138  O71   1.386118 S    
C55   O45   1.220703 D    
C202  H94   1.085567 S    
C118  C202  1.482604 S    
C189  H75   1.109208 S    
C29   C41   1.400712 A    
C116  C128  1.407453 A    
C25   C85   1.403126 A    
C112  C160  1.418187 A    
C138  C150  1.403934 A    
C149  H22   1.082530 S    
C119  C131  1.392845 A    
Cr1   O25   1.965634 S    
N11   C59   1.379467 Am   
O18   Cr3   1.900525 S    
C28   C88   1.402046 A    
C173  H41   1.085190 S    
C36   C84   1.415043 A    
C29   C89   1.403073 A    
C78   C81   1.417451 A    
C26   C74   1.419044 A    
O69   C187  1.412066 S    
C16   C143  1.401714 A    
C32   C92   1.403271 A    
C121  H25   1.084204 S    
C135  O74   1.389716 S    
O24   C12   1.288844 A    
C189  H74   1.110638 S    
C133  C145  1.402861 A    
C93   H6    1.083550 S    
N3    C51   1.384367 Am   
C75   C84   1.418122 A    
N8    C56   1.384460 Am   
O23   C11   1.289787 A    
N9    C165  1.437949 S    
Cr5   O26   1.965709 S    
C196  O78   1.220365 D    
C154  H17   1.082890 S    
C143  O66   1.381194 S    
C181  H49   1.115355 S    
C186  H66   1.109249 S    
C200  H92   1.085577 S    
C61   C97   1.426594 A    
C23   C124  1.399791 A    
C156  C168  1.399758 A    
C137  O72   1.389626 S    
C28   C76   1.417078 A    
C55   C67   1.425340 A    
C105  C174  1.487774 S    
C23   C136  1.402598 A    
C184  H58   1.113962 S    
C101  C178  1.488920 S    
C118  C166  1.418946 A    
C37   O27   1.223321 D    
N2    C158  1.438884 S    
O65   C183  1.413928 S    
O4    Cr1   2.008960 S    
C197  O79   1.220746 D    
O6    Cr3   2.008451 S    
C30   C42   1.398948 A    
C145  H20   1.082534 S    
O10   C12   1.285217 A    
C95   H4    1.083472 S    
C181  H51   1.107505 S    
C36   C48   1.400221 A    
C177  H45   1.085176 S    
C71   C107  1.426931 A    
C198  H90   1.085560 S    
C191  H80   1.113329 S    
O20   Cr5   1.905751 S    
C119  C203  1.481206 S    
C14   C127  1.407924 A    
C203  O85   1.218239 D    
C87   H12   1.083639 S    
C70   C82   1.414773 A    
C41   N5    1.379373 Am   
C201  O83   1.220138 D    
O9    Cr6   2.009835 S    
C192  H83   1.110684 S    
C57   O47   1.218702 D    
C59   O49   1.220602 D    
C144  O65   1.385929 S    
C184  H59   1.112954 S    
C62   C98   1.427875 A    
C103  C170  1.488779 S    
C73   C80   1.418733 A    
C149  C161  1.401386 A    
C4    C18   1.475590 S    
N5    C161  1.450011 S    
C190  H76   1.115437 S    
C113  C161  1.418470 A    
C100  C179  1.490310 S    
O7    Cr4   2.006737 S    
O18   C6    1.289916 A    
C44   O34   1.223307 D    
O13   Cr1   1.898878 S    
C120  C168  1.418789 A    
N1    C49   1.384510 Am   
C97   C104  1.423783 A    
O11   C7    1.282108 A    
C98   C103  1.419821 A    
C22   C125  1.404277 A    
C15   C144  1.410542 A    
O12   C8    1.284661 A    
C69   C81   1.416964 A    
C204  O86   1.220683 D    
C17   C130  1.404337 A    
C195  O77   1.220747 D    
Cr3   O25   1.970202 S    
C14   C139  1.416849 A    
C182  H53   1.110215 S    
C130  H34   1.084143 S    
C152  C164  1.400018 A    
C35   C83   1.417139 A    
N8    C164  1.450079 S    
C116  C164  1.419055 A    
C51   C63   1.426287 A    
C112  C124  1.398047 A    
C27   C87   1.403001 A    
C49   C61   1.426811 A    
C106  C173  1.487958 S    
C112  C196  1.486404 S    
O14   C2    1.288360 A    
C94   H5    1.083330 S    
C123  H27   1.084187 S    
C147  H24   1.082534 S    
C184  H60   1.109257 S    
C116  C200  1.482603 S    
C102  C177  1.489633 S    
C140  C152  1.399780 A    
Cr4   O26   1.968790 S    
O22   Cr4   1.896883 S    
C169  H37   1.085191 S    
C32   C44   1.400869 A    
C140  O63   1.385662 S    
C7    C21   1.476536 S    
C155  C167  1.404037 A    
C170  O52   1.220707 D    
C30   C78   1.417895 A    
C15   C132  1.404237 A    
C193  H85   1.085569 S    
C153  H18   1.083237 S    
N2    C50   1.380029 Am   
C146  H19   1.081650 S    
C64   C100  1.425550 A    
C97   C176  1.488955 S    
C87   C96   1.385654 A    
C139  C151  1.406844 A    
C125  H29   1.084185 S    
C183  H55   1.115395 S    
C122  H26   1.083695 S    
C176  O58   1.221191 D    
O11   Cr5   2.016251 S    
C190  H77   1.110686 S    
C146  C158  1.399053 A    
O4    C6    1.287494 A    
C110  C158  1.407964 A    
C63   C99   1.426529 A    
C190  H78   1.105900 S    
C60   O50   1.220669 D    
C85   H8    1.083641 S    
O1    C3    1.285402 A    
O2    C4    1.283126 A    
C25   C37   1.400816 A    
C188  H70   1.115433 S    
C119  C167  1.413661 A    
C27   C39   1.400227 A    
C99   C108  1.423575 A    
C60   C72   1.426788 A    
