data_mof_unit_60240.cif
_audit_creation_date              2012-12-10T16:58:29-0500
_audit_creation_method            fapswitch 2.2
_symmetry_space_group_name_H-M    P1
_symmetry_Int_Tables_number       1
_space_group_crystal_system       triclinic
_cell_length_a                    30.8542
_cell_length_b                    30.650657
_cell_length_c                    24.529791
_cell_angle_alpha                 90.029724
_cell_angle_beta                  127.728656
_cell_angle_gamma                 89.998714
_cell_volume                      18347.5917753

loop_
_atom_site_label
_atom_site_type_symbol
_atom_type_description
_atom_site_fract_x
_atom_site_fract_y
_atom_site_fract_z
_atom_type_partial_charge
C1    C     C_R   0.806802 0.809569 0.495086 0.905291
C2    C     C_R   0.536019 0.750883 0.069729 0.350216
C3    C     C_R   0.910444 0.290004 0.817784 -0.253551
C4    C     C_R   0.574849 0.750774 0.145407 -0.061072
C5    C     C_R   0.425334 0.750780 0.854591 -0.060609
C6    C     C_R   0.074849 0.250774 0.145407 -0.061072
C7    C     C_R   0.925334 0.250780 0.854591 -0.060609
C8    C     C_R   0.596771 0.711311 0.181256 -0.265087
C9    C     C_R   0.403357 0.711317 0.818667 -0.264520
C10   C     C_R   0.096771 0.211311 0.181256 -0.265087
C11   C     C_R   0.903357 0.211317 0.818667 -0.264521
C12   C     C_R   0.633623 0.710760 0.253308 0.462706
C13   C     C_R   0.964196 0.250886 0.930267 0.350252
C14   C     C_R   0.366451 0.710769 0.746618 0.462308
C15   C     C_R   0.133623 0.210760 0.253308 0.462706
C16   C     C_R   0.866451 0.210769 0.746618 0.462308
C17   C     C_3   0.685257 0.846767 0.298188 -0.300787
C18   C     C_3   0.314917 0.846766 0.702035 -0.301088
C19   C     C_3   0.185257 0.346767 0.298188 -0.300788
C20   C     C_3   0.814917 0.346766 0.702035 -0.301090
C21   C     C_3   0.985847 0.663359 0.851700 -0.281703
C22   C     C_3   0.971346 0.740249 0.162793 -0.283630
C23   C     C_3   0.485867 0.163374 0.851699 -0.281700
C24   C     C_R   0.036019 0.250883 0.069729 0.350216
C25   C     C_3   0.471347 0.240230 0.162792 -0.283636
C26   C     C_3   0.749549 0.565454 0.577699 -0.297754
C27   C     C_3   0.250796 0.565213 0.423277 -0.286100
C28   C     C_3   0.249547 0.065454 0.577691 -0.297750
C29   C     C_3   0.750796 0.065213 0.423276 -0.286101
C30   C     C_3   0.689194 0.652589 0.279274 -0.267368
C31   C     C_3   0.310853 0.652591 0.720614 -0.265608
C32   C     C_3   0.189194 0.152589 0.279274 -0.267371
C33   C     C_3   0.810853 0.152591 0.720614 -0.265609
C34   C     C_3   0.888501 0.945882 0.565368 -0.330103
C35   C     C_2   0.894828 0.871611 0.464221 -0.284326
C36   C     C_3   0.111320 0.945732 0.434384 -0.335035
C37   C     C_3   0.388501 0.445882 0.565368 -0.330098
C38   C     C_3   0.611319 0.445732 0.434384 -0.335036
C39   C     C_3   0.793432 0.834007 0.722565 -0.269615
C40   C     C_3   0.210909 0.830136 0.276116 -0.272302
C41   C     C_3   0.293411 0.333990 0.722567 -0.269611
C42   C     C_3   0.710895 0.330149 0.276118 -0.272303
C43   C     C_2   0.105141 0.871626 0.535738 -0.283958
C44   C     C_2   0.394828 0.371611 0.464222 -0.284325
C45   C     C_2   0.605142 0.371626 0.535738 -0.283959
C46   C     C_2   0.910445 0.906754 0.505046 0.395434
C47   C     C_2   0.089477 0.906714 0.494863 0.393748
C48   C     C_2   0.410445 0.406754 0.505046 0.395433
C49   C     C_R   0.193192 0.809573 0.504903 0.901764
C50   C     C_2   0.589477 0.406714 0.494863 0.393748
C51   C     C_2   0.867368 0.835065 0.469768 -0.129671
C52   C     C_2   0.132615 0.835081 0.530205 -0.131674
C53   C     C_2   0.367368 0.335065 0.469768 -0.129672
C54   C     C_2   0.632615 0.335081 0.530205 -0.131673
C55   C     C_2   0.831072 0.843288 0.481137 -0.260850
C56   C     C_2   0.168894 0.843304 0.518811 -0.261375
C57   C     C_2   0.331072 0.343288 0.481137 -0.260850
C58   C     C_2   0.668894 0.343303 0.518811 -0.261376
C59   C     C_R   0.839665 0.770061 0.748923 0.537485
C60   C     C_R   0.306802 0.309569 0.495086 0.905293
C61   C     C_R   0.159997 0.768996 0.250771 0.537664
C62   C     C_R   0.339660 0.270052 0.748922 0.537483
C63   C     C_R   0.659993 0.269002 0.250771 0.537665
C64   C     C_R   0.875823 0.767972 0.820820 -0.337202
C65   C     C_R   0.123157 0.767073 0.178893 -0.341534
C66   C     C_R   0.375818 0.267965 0.820819 -0.337204
C67   C     C_R   0.623154 0.267079 0.178893 -0.341533
C68   C     C_R   0.927264 0.748131 0.854979 -0.100028
C69   C     C_R   0.070375 0.749907 0.145314 -0.094290
C70   C     C_R   0.427264 0.248132 0.854979 -0.100027
C71   C     C_R   0.693192 0.309573 0.504903 0.901764
C72   C     C_R   0.570375 0.249907 0.145314 -0.094291
C73   C     C_R   0.941984 0.728457 0.816515 0.562944
C74   C     C_R   0.054108 0.734032 0.184180 0.563542
C75   C     C_R   0.441989 0.228466 0.816515 0.562946
C76   C     C_R   0.554111 0.234025 0.184179 0.563541
C77   C     C_R   0.682972 0.749840 0.365327 0.949886
C78   C     C_R   0.317044 0.749850 0.634672 0.950055
C79   C     C_R   0.182972 0.249840 0.365327 0.949886
C80   C     C_R   0.817044 0.249850 0.634672 0.950055
C81   C     C_R   0.905734 0.730123 0.744743 -0.353625
C82   C     C_R   0.646733 0.750143 0.289947 -0.269455
C83   C     C_R   0.092098 0.733550 0.256037 -0.362537
C84   C     C_R   0.405739 0.230132 0.744743 -0.353629
C85   C     C_R   0.592101 0.233544 0.256037 -0.362532
C86   C     C_R   0.854388 0.750245 0.710467 -0.222246
C87   C     C_R   0.144766 0.751004 0.289667 -0.215768
C88   C     C_R   0.354388 0.250245 0.710467 -0.222241
C89   C     C_R   0.644766 0.251004 0.289666 -0.215773
C90   C     C_R   0.033034 0.748889 0.069802 0.342724
C91   C     C_R   0.964575 0.747991 0.930484 0.326855
C92   C     C_R   0.533034 0.248890 0.069801 0.342722
C93   C     C_R   0.353339 0.750154 0.710053 -0.269114
C94   C     C_R   0.464575 0.247991 0.930483 0.326855
C95   C     C_2   0.649409 0.590040 0.548571 -0.297657
C96   C     C_2   0.350621 0.589937 0.451599 -0.297184
C97   C     C_2   0.149409 0.090040 0.548570 -0.297654
C98   C     C_2   0.850621 0.089937 0.451598 -0.297185
C99   C     C_2   0.596032 0.586619 0.496030 -0.410635
C100  C     C_2   0.404027 0.586636 0.504050 -0.411019
C101  C     C_2   0.096031 0.086619 0.496030 -0.410637
C102  C     C_2   0.904027 0.086636 0.504050 -0.411019
C103  C     C_2   0.684239 0.619354 0.542446 0.582139
C104  C     C_R   0.146733 0.250143 0.289947 -0.269455
C105  C     C_2   0.315816 0.619249 0.457766 0.582023
C106  C     C_2   0.184239 0.119354 0.542445 0.582138
C107  C     C_2   0.815816 0.119249 0.457766 0.582022
C108  C     C_2   0.662598 0.658068 0.511778 -0.420826
C109  C     C_2   0.337389 0.658051 0.488207 -0.419839
C110  C     C_2   0.162599 0.158068 0.511778 -0.420822
C111  C     C_2   0.837389 0.158051 0.488207 -0.419840
C112  C     C_R   0.439621 0.558325 0.500758 0.970637
C113  C     C_R   0.560399 0.558319 0.499268 0.970483
C114  C     C_R   0.939621 0.058325 0.500758 0.970637
C115  C     C_R   0.853339 0.250154 0.710053 -0.269114
C116  C     C_R   0.060399 0.058319 0.499268 0.970483
C117  C     C_R   0.940958 0.940464 0.500876 0.792773
C118  C     C_R   0.059025 0.940459 0.499095 0.793521
C119  C     C_R   0.440958 0.440464 0.500876 0.792772
C120  C     C_R   0.559025 0.440459 0.499095 0.793521
C121  C     C_R   0.692001 0.690388 0.503201 0.985111
C122  C     C_R   0.307996 0.690384 0.496796 0.986903
C123  C     C_R   0.192001 0.190388 0.503201 0.985114
C124  C     C_R   0.807996 0.190384 0.496796 0.986901
C125  C     C_R   0.817040 0.750079 0.634860 0.947627
C126  C     C_R   0.464196 0.750886 0.930267 0.350252
C127  C     C_R   0.182891 0.750123 0.365175 0.949249
C128  C     C_R   0.317040 0.250079 0.634860 0.947637
C129  C     C_R   0.682891 0.250123 0.365175 0.949242
C130  C     C_R   0.625886 0.789997 0.254168 0.468356
C131  C     C_R   0.374251 0.790006 0.745908 0.468183
C132  C     C_R   0.125886 0.289997 0.254168 0.468356
C133  C     C_R   0.874251 0.290006 0.745908 0.468183
C134  C     C_R   0.589748 0.789997 0.182290 -0.253301
C135  C     C_R   0.410444 0.790004 0.817784 -0.253551
C136  C     C_R   0.089747 0.289997 0.182290 -0.253302
H1    H     H_    0.918023 0.715392 0.715948 0.200402
H2    H     H_    0.696888 0.877555 0.327936 0.192068
H3    H     H_    0.682531 0.376445 0.521343 0.175267
H4    H     H_    0.751795 0.848503 0.691179 0.189300
H5    H     H_    0.814908 0.846993 0.702443 0.155940
H6    H     H_    0.814784 0.844611 0.776797 0.150042
H7    H     H_    0.253564 0.842591 0.307391 0.191158
H8    H     H_    0.190475 0.845764 0.296015 0.152630
H9    H     H_    0.190384 0.839983 0.221777 0.151392
H10   H     H_    0.251770 0.348480 0.691179 0.189300
H11   H     H_    0.314885 0.346986 0.702451 0.155938
H12   H     H_    0.314757 0.344591 0.776799 0.150042
H13   H     H_    0.675876 0.854759 0.247702 0.160034
H14   H     H_    0.753547 0.342610 0.307392 0.191157
H15   H     H_    0.690460 0.345770 0.296021 0.152631
H16   H     H_    0.690365 0.339999 0.221780 0.151392
H17   H     H_    0.279028 0.824391 0.672015 0.136425
H18   H     H_    0.303312 0.877566 0.672378 0.191290
H19   H     H_    0.324317 0.854733 0.752550 0.160709
H20   H     H_    0.221123 0.324389 0.328149 0.134972
H21   H     H_    0.196888 0.377555 0.327936 0.192069
H22   H     H_    0.175876 0.354759 0.247702 0.160035
H23   H     H_    0.779028 0.324391 0.672015 0.136425
H24   H     H_    0.803312 0.377566 0.672378 0.191290
H25   H     H_    0.080291 0.719234 0.285561 0.195256
H26   H     H_    0.824317 0.354733 0.752550 0.160710
H27   H     H_    0.863620 0.782308 0.849932 0.186859
H28   H     H_    0.136007 0.779162 0.149310 0.188602
H29   H     H_    0.363612 0.282293 0.849932 0.186858
H30   H     H_    0.636002 0.279174 0.149310 0.188603
H31   H     H_    0.969854 0.656137 0.880946 0.162397
H32   H     H_    0.026543 0.647520 0.879352 0.199967
H33   H     H_    0.958654 0.648782 0.799207 0.158197
H34   H     H_    0.928788 0.727527 0.129636 0.200693
H35   H     H_    0.969668 0.774961 0.148117 0.156286
H36   H     H_    0.418031 0.215407 0.715947 0.200399
H37   H     H_    0.986546 0.738011 0.217106 0.155025
H38   H     H_    0.469876 0.156144 0.880945 0.162396
H39   H     H_    0.526567 0.147542 0.879351 0.199967
H40   H     H_    0.458678 0.148797 0.799206 0.158196
H41   H     H_    0.428792 0.227504 0.129636 0.200694
H42   H     H_    0.469663 0.274943 0.148115 0.156287
H43   H     H_    0.486548 0.237991 0.217105 0.155025
H44   H     H_    0.667671 0.570936 0.595179 0.181908
H45   H     H_    0.332314 0.570726 0.405044 0.182488
H46   H     H_    0.167671 0.070935 0.595178 0.181909
H47   H     H_    0.580295 0.219223 0.285560 0.195260
H48   H     H_    0.832314 0.070726 0.405044 0.182488
H49   H     H_    0.578705 0.602754 0.447191 0.164335
H50   H     H_    0.421403 0.602871 0.552861 0.164151
H51   H     H_    0.078704 0.102755 0.447191 0.164335
H52   H     H_    0.921403 0.102871 0.552861 0.164151
H53   H     H_    0.718828 0.548482 0.527977 0.154752
H54   H     H_    0.751354 0.550575 0.620331 0.157339
H55   H     H_    0.790260 0.560683 0.589827 0.190699
H56   H     H_    0.281665 0.548492 0.473154 0.151193
H57   H     H_    0.248961 0.550101 0.380735 0.157681
H58   H     H_    0.573241 0.820842 0.155677 0.182944
H59   H     H_    0.210158 0.560399 0.411344 0.193220
H60   H     H_    0.218825 0.048484 0.527967 0.154751
H61   H     H_    0.251350 0.050571 0.620320 0.157339
H62   H     H_    0.290258 0.060683 0.589819 0.190699
H63   H     H_    0.781664 0.048492 0.473153 0.151193
H64   H     H_    0.748960 0.050102 0.380734 0.157681
H65   H     H_    0.710158 0.060399 0.411343 0.193220
H66   H     H_    0.622464 0.667827 0.495819 0.129532
H67   H     H_    0.377461 0.667855 0.503988 0.129407
H68   H     H_    0.122465 0.167827 0.495820 0.129531
H69   H     H_    0.426994 0.820848 0.844456 0.182397
H70   H     H_    0.877461 0.167855 0.503988 0.129407
H71   H     H_    0.584834 0.680671 0.153575 0.176240
H72   H     H_    0.415288 0.680676 0.846287 0.176225
H73   H     H_    0.084834 0.180671 0.153575 0.176239
H74   H     H_    0.915288 0.180676 0.846287 0.176225
H75   H     H_    0.708901 0.624038 0.314104 0.187973
H76   H     H_    0.722406 0.675750 0.293223 0.153674
H77   H     H_    0.667513 0.640564 0.225672 0.150413
H78   H     H_    0.291098 0.624041 0.685728 0.187907
H79   H     H_    0.277674 0.675748 0.706766 0.154510
H80   H     H_    0.073241 0.320842 0.155677 0.182944
H81   H     H_    0.332570 0.640563 0.774199 0.150579
H82   H     H_    0.208901 0.124038 0.314104 0.187973
H83   H     H_    0.222406 0.175750 0.293223 0.153674
H84   H     H_    0.167512 0.140564 0.225672 0.150413
H85   H     H_    0.791098 0.124041 0.685728 0.187907
H86   H     H_    0.777674 0.175748 0.706766 0.154510
H87   H     H_    0.832569 0.140563 0.774199 0.150579
H88   H     H_    0.904333 0.868840 0.428374 0.130570
H89   H     H_    0.095699 0.868907 0.571649 0.132973
H90   H     H_    0.404333 0.368840 0.428374 0.130570
H91   H     H_    0.926994 0.320848 0.844456 0.182397
H92   H     H_    0.595699 0.368907 0.571649 0.132973
H93   H     H_    0.851264 0.956858 0.514260 0.123779
H94   H     H_    0.920426 0.971701 0.589152 0.191938
H95   H     H_    0.876484 0.941030 0.599302 0.195793
H96   H     H_    0.148564 0.956784 0.485459 0.125609
H97   H     H_    0.079384 0.971525 0.410564 0.192400
H98   H     H_    0.123316 0.940807 0.400436 0.195014
H99   H     H_    0.351264 0.456858 0.514259 0.123778
H100  H     H_    0.420426 0.471701 0.589152 0.191937
H101  H     H_    0.376484 0.441031 0.599302 0.195794
H102  H     H_    0.721122 0.824389 0.328149 0.134972
H103  H     H_    0.648564 0.456784 0.485459 0.125609
H104  H     H_    0.579384 0.471525 0.410563 0.192401
H105  H     H_    0.623316 0.440807 0.400436 0.195013
H106  H     H_    0.877291 0.801949 0.465120 0.164049
H107  H     H_    0.122729 0.801967 0.534905 0.164253
H108  H     H_    0.377291 0.301949 0.465120 0.164049
H109  H     H_    0.622729 0.301967 0.534905 0.164252
H110  H     H_    0.817396 0.876423 0.478552 0.174595
H111  H     H_    0.182531 0.876445 0.521343 0.175267
H112  H     H_    0.317396 0.376422 0.478552 0.174596
N1    N     N_R   0.517718 0.712792 0.034153 -0.180682
N2    N     N_R   0.978033 0.750598 0.034807 -0.126434
N3    N     N_R   0.519593 0.246586 0.965455 -0.104877
N4    N     N_R   0.478032 0.250590 0.034806 -0.126432
N5    N     N_R   0.053232 0.747046 0.033899 -0.175791
N6    N     N_R   0.944397 0.750191 0.966377 -0.183079
N7    N     N_R   0.553233 0.247055 0.033899 -0.175792
N8    N     N_R   0.444397 0.250183 0.966376 -0.183080
N9    N     N_R   0.482474 0.712794 0.965762 -0.180677
N10   N     N_R   0.017718 0.212792 0.034153 -0.180683
N11   N     N_R   0.982473 0.212794 0.965762 -0.180678
N12   N     N_R   0.482519 0.789003 0.965819 -0.179608
N13   N     N_R   0.517727 0.789001 0.034257 -0.179566
N14   N     N_R   0.982519 0.289003 0.965819 -0.179608
N15   N     N_R   0.017727 0.289001 0.034257 -0.179566
N16   N     N_R   0.019593 0.746577 0.965456 -0.104877
O1    O     O_R   0.820760 0.769680 0.499980 -0.630452
O2    O     O_R   0.073990 0.954760 0.557490 -0.645303
O3    O     O_R   0.426010 0.454760 0.442510 -0.646415
O4    O     O_R   0.573990 0.454760 0.557490 -0.645303
O5    O     O_R   0.983520 0.954760 0.557520 -0.594972
O6    O     O_R   0.016480 0.954760 0.442480 -0.596830
O7    O     O_R   0.483520 0.454760 0.557520 -0.594972
O8    O     O_R   0.516480 0.454760 0.442480 -0.596830
O9    O     O_R   0.769670 0.820760 0.499990 -0.627874
O10   O     O_R   0.230330 0.820760 0.500010 -0.628005
O11   O     O_R   0.269670 0.320760 0.499990 -0.627874
O12   O     O_R   0.179240 0.769680 0.500020 -0.632405
O13   O     O_R   0.730330 0.320760 0.500010 -0.628005
O14   O     O_R   0.724610 0.724460 0.398130 -0.614151
O15   O     O_R   0.275390 0.724460 0.601870 -0.613657
O16   O     O_R   0.224610 0.224460 0.398130 -0.614151
O17   O     O_R   0.775390 0.224460 0.601870 -0.613657
O18   O     O_R   0.673520 0.775530 0.398150 -0.581036
O19   O     O_R   0.326480 0.775530 0.601850 -0.581438
O20   O     O_R   0.173520 0.275530 0.398150 -0.581036
O21   O     O_R   0.826480 0.275530 0.601850 -0.581438
O22   O     O_R   0.730310 0.679220 0.500010 -0.561535
O23   O     O_R   0.320760 0.269680 0.499980 -0.630452
O24   O     O_R   0.269690 0.679220 0.499990 -0.560631
O25   O     O_R   0.230310 0.179220 0.500010 -0.561536
O26   O     O_R   0.769690 0.179220 0.499990 -0.560631
O27   O     O_R   0.679220 0.730290 0.500020 -0.630234
O28   O     O_R   0.320780 0.730290 0.499980 -0.629969
O29   O     O_R   0.179220 0.230290 0.500020 -0.630232
O30   O     O_R   0.820780 0.230290 0.499980 -0.629970
O31   O     O_R   0.826460 0.724450 0.601850 -0.627086
O32   O     O_R   0.173540 0.724450 0.398150 -0.624892
O33   O     O_R   0.326460 0.224450 0.601850 -0.627085
O34   O     O_R   0.679240 0.269680 0.500020 -0.632405
O35   O     O_R   0.673540 0.224450 0.398150 -0.624894
O36   O     O_R   0.775370 0.775520 0.601870 -0.580058
O37   O     O_R   0.224630 0.775520 0.398130 -0.583230
O38   O     O_R   0.275370 0.275520 0.601870 -0.580066
O39   O     O_R   0.724630 0.275520 0.398130 -0.583223
O40   O     O_R   0.425990 0.545230 0.442510 -0.611957
O41   O     O_R   0.574010 0.545230 0.557490 -0.612349
O42   O     O_R   0.925990 0.045230 0.442510 -0.611957
O43   O     O_R   0.074010 0.045230 0.557490 -0.612349
O44   O     O_3   0.639101 0.829072 0.289260 -0.577321
O45   O     O_R   0.483490 0.545220 0.557520 -0.625369
O46   O     O_3   0.361047 0.829083 0.710892 -0.578565
O47   O     O_3   0.139101 0.329073 0.289260 -0.577321
O48   O     O_3   0.861047 0.329083 0.710892 -0.578565
O49   O     O_3   0.992386 0.708601 0.848637 -0.590073
O50   O     O_3   0.003331 0.714582 0.151787 -0.587823
O51   O     O_3   0.492395 0.208618 0.848637 -0.590073
O52   O     O_3   0.503337 0.214569 0.151786 -0.587822
O53   O     O_3   0.739200 0.610652 0.573298 -0.583143
O54   O     O_3   0.260922 0.610428 0.427155 -0.580181
O55   O     O_3   0.239199 0.110651 0.573296 -0.583142
O56   O     O_R   0.516510 0.545220 0.442480 -0.625393
O57   O     O_3   0.760922 0.110428 0.427155 -0.580182
O58   O     O_3   0.652298 0.671452 0.288365 -0.588074
O59   O     O_3   0.347718 0.671461 0.711483 -0.588607
O60   O     O_3   0.152298 0.171452 0.288365 -0.588074
O61   O     O_3   0.847718 0.171461 0.711483 -0.588607
O62   O     O_3   0.909169 0.906008 0.560888 -0.580832
O63   O     O_3   0.090675 0.905880 0.438961 -0.584169
O64   O     O_3   0.409169 0.406008 0.560888 -0.580831
O65   O     O_3   0.590675 0.405880 0.438960 -0.584168
O66   O     O_3   0.788236 0.788196 0.716395 -0.582787
O67   O     O_R   0.983490 0.045220 0.557520 -0.625369
O68   O     O_3   0.212651 0.784335 0.282838 -0.581167
O69   O     O_3   0.288226 0.288178 0.716394 -0.582790
O70   O     O_3   0.712645 0.284348 0.282837 -0.581165
O71   O     O_R   0.016510 0.045220 0.442480 -0.625393
O72   O     O_R   0.926010 0.954760 0.442510 -0.646416
Zn1   Zn    Zn3+2 0.784100 0.715890 0.499990 0.986035
Zn2   Zn    Zn3+2 0.538410 0.499990 0.576790 0.965579
Zn3   Zn    Zn3+2 0.961590 0.999990 0.423210 0.962685
Zn4   Zn    Zn3+2 0.038410 0.999990 0.576790 0.965579
Zn5   Zn    Zn3+2 0.215900 0.715890 0.500010 0.987731
Zn6   Zn    Zn3+2 0.284100 0.215890 0.499990 0.986034
Zn7   Zn    Zn3+2 0.715900 0.215890 0.500010 0.987729
Zn8   Zn    Zn3+2 0.715880 0.784090 0.500010 1.008951
Zn9   Zn    Zn3+2 0.284120 0.784090 0.499990 1.006435
Zn10  Zn    Zn3+2 0.215880 0.284090 0.500010 1.008947
Zn11  Zn    Zn3+2 0.784120 0.284090 0.499990 1.006439
Zn12  Zn    Zn3+2 0.461590 0.499990 0.423210 0.962686

loop_
_geom_bond_atom_site_label_1
_geom_bond_atom_site_label_2
_ccdc_geom_bond_type
C60   O11   A    
C53   H108  S    
C74   C83   A    
C31   H78   S    
C90   N2    A    
C59   O66   S    
C40   H9    S    
C29   O57   S    
C124  O26   A    
C95   C99   D    
C24   N10   A    
O17   Zn7   S    
C89   C129  S    
C110  H68   S    
C19   O47   S    
C44   C53   S    
C39   H5    S    
C29   H63   S    
C5    C126  S    
C77   O18   A    
O37   Zn9   S    
C81   C86   A    
C33   H86   S    
C80   O17   A    
O23   Zn6   S    
C130  C134  A    
C73   C81   A    
C125  O31   A    
C121  O27   A    
C97   H46   S    
C122  O28   A    
O31   Zn1   S    
C62   C66   A    
C25   H42   S    
C23   H40   S    
C98   C102  D    
C62   C88   A    
C46   C117  S    
C114  O42   A    
C63   O70   S    
C6    C10   A    
C102  C114  S    
C110  C123  S    
C36   H96   S    
O4    Zn2   S    
C69   C74   A    
C71   O13   A    
C111  H70   S    
C22   H34   S    
O8    Zn12  S    
C35   C51   S    
C37   O64   S    
C51   H106  S    
C16   C115  A    
C99   H49   S    
C109  C122  S    
C116  O43   A    
C39   H4    S    
C111  C124  S    
C84   C88   A    
C74   O50   S    
C117  O5    A    
C26   H55   S    
C119  O7    A    
C28   H61   S    
C120  O8    A    
C36   H97   S    
C30   H77   S    
C66   C70   A    
C77   C82   S    
C112  O40   A    
C51   C55   D    
C121  O22   A    
C78   O19   A    
C38   H104  S    
C92   N7    A    
C61   C65   A    
C7    C13   S    
O18   Zn8   S    
O15   Zn5   S    
C50   O65   S    
C113  O56   A    
O20   Zn10  S    
C43   C47   D    
C76   C85   A    
C32   H82   S    
C44   C48   D    
O41   Zn2   S    
C112  O45   A    
O9    Zn8   S    
C73   O49   S    
C34   H95   S    
C96   H45   S    
C23   H38   S    
C21   H32   S    
C20   H24   S    
C50   C120  S    
C64   C68   A    
C42   O70   S    
C43   C52   S    
C31   H79   S    
C36   H98   S    
C67   C72   A    
C54   H109  S    
C61   C87   A    
O3    Zn12  S    
C16   O61   S    
C79   O16   A    
C133  O48   S    
C18   H18   S    
C132  C136  A    
C6    C24   S    
O6    Zn3   S    
O72   Zn3   S    
C124  O30   A    
C26   H53   S    
C95   C103  S    
C37   H99   S    
C6    C136  A    
C92   N4    A    
C18   O46   S    
C107  O57   S    
C52   H107  S    
C30   H75   S    
C125  O36   A    
C129  O35   A    
C77   O14   A    
C8    H71   S    
C2    C4    S    
O25   Zn6   S    
C5    C9    A    
O27   Zn8   S    
C134  H58   S    
C8    C12   A    
C20   H26   S    
O12   Zn5   S    
C63   C89   A    
C42   H15   S    
C32   H84   S    
O40   Zn12  S    
C116  O71   A    
C27   H56   S    
C123  O29   A    
O21   Zn11  S    
C22   H37   S    
N5    N16   A    
C4    C134  A    
C5    C135  A    
C38   H105  S    
C105  C109  D    
C66   H29   S    
C19   H22   S    
C107  C111  D    
C26   O53   S    
N12   N13   A    
C84   H36   S    
N14   N15   A    
C25   O52   S    
C36   O63   S    
C33   O61   S    
C32   O60   S    
O35   Zn7   S    
N10   N11   A    
C13   N11   A    
C35   H88   S    
C41   O69   S    
C41   H12   S    
C21   H33   S    
C96   C100  D    
C24   N15   A    
O2    Zn4   S    
C28   H60   S    
C123  O25   A    
C132  O47   S    
C98   H48   S    
C75   O51   S    
C91   N16   A    
C34   H93   S    
C95   H44   S    
C40   H7    S    
C70   C75   A    
C101  H51   S    
C44   H90   S    
C105  O54   S    
O1    Zn1   S    
C118  O6    A    
C33   H85   S    
O28   Zn9   S    
N2    N6    A    
C83   C87   A    
C96   C105  S    
C21   O49   S    
C120  O4    A    
C108  C121  S    
C128  O33   A    
C81   H1    S    
O5    Zn4   S    
C30   O58   S    
O29   Zn10  S    
C70   C94   S    
C78   O15   A    
C3    C7    A    
C57   H112  S    
C11   H74   S    
C54   C58   D    
C72   C92   S    
C25   H41   S    
C58   C71   S    
C23   H39   S    
O13   Zn11  S    
C47   C118  S    
C55   H110  S    
C48   C119  S    
C13   N14   A    
C22   H35   S    
C4    C8    A    
C135  H69   S    
C17   H102  S    
C85   H47   S    
C19   H20   S    
C64   H27   S    
C15   O60   S    
O42   Zn3   S    
O7    Zn2   S    
C56   H111  S    
C29   H65   S    
C28   O55   S    
C85   C89   A    
C57   C60   S    
C115  C133  A    
C79   O20   A    
C28   H62   S    
C98   C107  S    
O45   Zn2   S    
C38   O65   S    
C9    C14   A    
C11   C16   A    
C62   O69   S    
C128  O38   A    
C76   O52   S    
C80   C115  S    
C29   H64   S    
C59   C64   A    
C31   O59   S    
C106  O55   S    
C97   C106  S    
C33   H87   S    
C49   O10   A    
C100  C112  S    
C27   H59   S    
C3    H91   S    
C39   O66   S    
C129  O39   A    
C53   C57   D    
C126  N9    A    
O10   Zn9   S    
N1    N9    A    
C9    H72   S    
C99   C113  S    
C25   H43   S    
C21   H31   S    
C60   O23   A    
C2    N1    A    
C45   C50   D    
C65   C69   A    
O26   Zn7   S    
C61   O68   S    
C1    C55   S    
C75   C84   A    
C59   C86   A    
C104  C132  A    
C101  C116  S    
C93   C131  A    
C35   C46   D    
C12   O58   S    
C18   H19   S    
C40   O68   S    
C127  O32   A    
C31   H81   S    
C58   H3    S    
C103  O53   S    
C27   O54   S    
C72   C76   A    
C94   N3    A    
C87   C127  S    
C26   H54   S    
C7    C11   A    
O33   Zn6   S    
C47   O63   S    
C80   O21   A    
C131  C135  A    
C10   C15   A    
C30   H76   S    
O67   Zn4   S    
C2    N13   A    
C78   C93   S    
C68   C91   S    
C17   O44   S    
C122  O24   A    
C114  O67   A    
C108  H66   S    
C38   H103  S    
C118  O2    A    
N3    N7    A    
C49   O12   A    
C20   H23   S    
C22   O50   S    
C113  O41   A    
C39   H6    S    
C17   H2    S    
C27   H57   S    
C15   C104  A    
C82   C130  A    
C42   H16   S    
C1    O9    A    
N4    N8    A    
C117  O72   A    
C83   H25   S    
C86   C125  S    
C34   H94   S    
C131  O46   S    
C63   C67   A    
C46   O62   S    
C41   H10   S    
C19   H21   S    
O14   Zn1   S    
C109  H67   S    
C68   C73   A    
O30   Zn11  S    
C102  H52   S    
C3    C133  A    
C45   H92   S    
O32   Zn5   S    
C100  H50   S    
C94   N8    A    
C10   H73   S    
C37   H101  S    
C41   H11   S    
C20   O48   S    
C119  O3    A    
C12   C82   A    
C23   O51   S    
O43   Zn4   S    
C103  C108  D    
C18   H17   S    
C67   H30   S    
C90   N5    A    
C45   C54   S    
C40   H8    S    
C79   C104  S    
O56   Zn12  S    
C69   C90   S    
C37   H100  S    
C106  C110  D    
C14   C93   A    
O39   Zn11  S    
C17   H13   S    
C127  O37   A    
C14   O59   S    
O38   Zn10  S    
C91   N6    A    
C49   C56   S    
C34   O62   S    
C126  N12   A    
O22   Zn1   S    
C71   O34   A    
C88   C128  S    
O11   Zn10  S    
O36   Zn8   S    
O71   Zn3   S    
C130  O44   S    
C48   O64   S    
O24   Zn5   S    
C65   H28   S    
O19   Zn9   S    
C42   H14   S    
C32   H83   S    
C52   C56   D    
C1    O1    A    
O34   Zn7   S    
O16   Zn6   S    
C97   C101  D    
C43   H89   S    
C136  H80   S    
