data_mof_unit_48448.cif
_audit_creation_date              2012-12-10T16:44:44-0500
_audit_creation_method            fapswitch 2.2
_symmetry_space_group_name_H-M    P1
_symmetry_Int_Tables_number       1
_space_group_crystal_system       triclinic
_cell_length_a                    14.928671
_cell_length_b                    8.718457
_cell_length_c                    7.484338
_cell_angle_alpha                 103.280326
_cell_angle_beta                  91.587479
_cell_angle_gamma                 90.512017
_cell_volume                      947.592547962

loop_
_atom_site_label
_atom_site_type_symbol
_atom_type_description
_atom_site_fract_x
_atom_site_fract_y
_atom_site_fract_z
_atom_type_partial_charge
C1    C     C_R   0.497182 0.200065 0.453471 0.878135
C2    C     C_R   0.502742 0.799937 0.546533 0.880401
C3    C     C_R   0.052619 0.225471 0.362362 0.380459
C4    C     C_R   0.948032 0.788187 0.618256 0.324076
C5    C     C_2   0.495707 0.032034 0.427739 -0.387788
C6    C     C_2   0.504225 0.967962 0.572244 -0.374594
C7    C     C_R   0.329673 0.509032 0.508136 0.834354
C8    C     C_R   0.670431 0.492689 0.492067 0.833233
C9    C     C_R   0.811284 0.633842 0.533831 -0.268902
C10   C     C_R   0.187713 0.373002 0.483232 -0.263824
C11   C     C_R   0.766576 0.491568 0.476123 -0.177763
C12   C     C_R   0.233598 0.515143 0.524358 -0.172962
C13   C     C_R   0.813013 0.351877 0.412442 0.487561
C14   C     C_R   0.188158 0.658771 0.561455 0.466469
C15   C     C_R   0.908094 0.356425 0.413477 -0.109178
C16   C     C_R   0.092867 0.657185 0.564022 -0.095860
C17   C     C_R   0.953365 0.502045 0.491084 -0.127676
C18   C     C_R   0.047060 0.509268 0.504061 -0.126640
C19   C     C_R   0.904430 0.641439 0.550325 0.016876
C20   C     C_R   0.095547 0.368222 0.452408 -0.010584
C21   C     C_R   0.957763 0.219492 0.340116 0.391925
C22   C     C_R   0.043369 0.798712 0.615782 0.380957
Cu1   Cu    Cu3+1 0.510010 0.517380 0.684380 0.959086
Cu2   Cu    Cu3+1 0.489990 0.482620 0.315620 0.957881
N1    N     N_2   0.474890 0.456420 0.038520 -0.219091
N2    N     N_2   0.525110 0.543580 0.961480 -0.217947
O1    O     O_R   0.506510 0.286130 0.619770 -0.594124
O2    O     O_R   0.493490 0.713870 0.380230 -0.598299
O3    O     O_R   0.489600 0.256770 0.308360 -0.575981
O4    O     O_R   0.510400 0.743230 0.691640 -0.577930
O5    O     O_R   0.378710 0.514640 0.655720 -0.575295
O6    O     O_R   0.621290 0.485360 0.344280 -0.569805
O7    O     O_R   0.361800 0.485290 0.344300 -0.596168
O8    O     O_R   0.638200 0.514710 0.655700 -0.591063
H1    H     H_    0.771063 0.738196 0.566439 0.177198
H2    H     H_    0.225939 0.266082 0.465114 0.179474
O9    O     O_3   0.765103 0.212292 0.349116 -0.548692
C23   C     C_3   0.748238 0.144612 0.499174 -0.256744
H3    H     H_    0.807303 0.153256 0.594991 0.187566
H4    H     H_    0.731434 0.017803 0.446017 0.196199
H5    H     H_    0.690056 0.200903 0.575797 0.150746
O10   O     O_3   0.237489 0.798336 0.606922 -0.561358
C24   C     C_3   0.257254 0.846014 0.444024 -0.209435
H6    H     H_    0.280476 0.970829 0.481378 0.187705
H7    H     H_    0.197664 0.838555 0.349335 0.196200
H8    H     H_    0.312151 0.775522 0.370991 0.147134
O11   O     O_3   0.911607 0.093303 0.225088 -0.573476
C25   C     C_3   0.940670 0.943469 0.239871 -0.197498
H9    H     H_    0.985453 0.893790 0.125725 0.157374
H10   H     H_    0.974834 0.945094 0.371688 0.234686
H11   H     H_    0.881346 0.863879 0.228340 0.168662
O12   O     O_3   0.090536 0.940970 0.631936 -0.534348
C26   C     C_3   0.054802 0.073323 0.751533 -0.194546
H12   H     H_    0.027714 0.044706 0.876488 0.161479
H13   H     H_    0.004015 0.130721 0.679300 0.184895
H14   H     H_    0.109497 0.161968 0.793986 0.158427
O13   O     O_3   0.102302 0.089385 0.307029 -0.586464
C27   C     C_3   0.156478 0.096115 0.156776 -0.349514
H15   H     H_    0.146356 0.202304 0.099979 0.153609
H16   H     H_    0.143899 0.987998 0.047551 0.202100
H17   H     H_    0.228173 0.091971 0.197850 0.172254
O14   O     O_3   0.897050 0.923559 0.649657 -0.635898
C28   C     C_3   0.852424 0.945797 0.817808 -0.343231
H18   H     H_    0.863724 0.851824 0.894255 0.174487
H19   H     H_    0.779256 0.953482 0.792321 0.174048
H20   H     H_    0.872908 0.062085 0.903926 0.237866
H21   H     H_    0.487554 0.960599 0.288475 0.184135
H22   H     H_    0.512358 0.039398 0.711511 0.185160
H23   H     H_    0.430945 0.381637 0.950702 0.229747
H24   H     H_    0.569047 0.618374 0.049306 0.230109

loop_
_geom_bond_atom_site_label_1
_geom_bond_atom_site_label_2
_ccdc_geom_bond_type
C10   H2    S    
Cu1   Cu2   S    
C28   H19   S    
C15   C17   A    
O9    C23   S    
Cu2   O7    S    
Cu1   O1    S    
C4    C22   A    
C13   O9    S    
O11   C25   S    
C13   C15   A    
C5    H21   S    
C14   O10   S    
Cu1   O8    S    
C16   C22   A    
C26   H14   S    
C27   H17   S    
C1    O3    A    
C17   C18   A    
C27   H15   S    
C28   H20   S    
C3    C20   A    
C24   H7    S    
C16   C18   A    
C8    O8    A    
C26   H12   S    
O12   C26   S    
C23   H4    S    
C25   H10   S    
C7    O7    A    
C9    C11   A    
O13   C27   S    
O14   C28   S    
C15   C21   A    
C10   C12   A    
C23   H5    S    
C8    C11   S    
C1    C5    S    
C3    O13   S    
C6    H22   S    
C25   H9    S    
C17   C19   A    
C12   C14   A    
C18   C20   A    
C26   H13   S    
C24   H6    S    
C5    C6    D    
N2    H24   S    
C24   H8    S    
C14   C16   A    
C7    C12   S    
C3    C21   A    
C7    O5    A    
O10   C24   S    
C9    H1    S    
C28   H18   S    
C8    O6    A    
Cu1   O4    S    
C4    O14   S    
C11   C13   A    
N1    H23   S    
Cu2   N1    S    
Cu2   O2    S    
C22   O12   S    
Cu1   N2    S    
Cu2   O6    S    
C1    O1    A    
Cu2   O3    S    
C2    O4    A    
C2    O2    A    
Cu1   O5    S    
N1    N2    D    
C4    C19   A    
C27   H16   S    
C9    C19   A    
C25   H11   S    
C2    C6    S    
C10   C20   A    
C21   O11   S    
C23   H3    S    
