data_mof_unit_21623.cif
_audit_creation_date              2012-10-26T19:20:36-0400
_audit_creation_method            fapswitch 2.2
_symmetry_space_group_name_H-M    P1
_symmetry_Int_Tables_number       1
_space_group_crystal_system       triclinic
_cell_length_a                    10.816782
_cell_length_b                    11.02388
_cell_length_c                    9.825915
_cell_angle_alpha                 111.171115
_cell_angle_beta                  98.249868
_cell_angle_gamma                 89.981518
_cell_volume                      1079.59853338

loop_
_atom_site_label
_atom_site_type_symbol
_atom_type_description
_atom_site_fract_x
_atom_site_fract_y
_atom_site_fract_z
_atom_type_partial_charge
C1    C     C_R   0.489156 0.254169 0.440740 0.593550
C2    C     C_R   0.736741 0.492653 0.497223 0.605881
C3    C     C_R   0.127770 0.749175 0.590083 0.287125
C4    C     C_R   0.880049 0.260540 0.474188 0.283555
C5    C     C_R   0.058996 0.858378 0.596263 -0.100567
C6    C     C_R   0.943461 0.145240 0.428852 -0.100246
C7    C     C_R   0.929535 0.847016 0.566300 -0.178555
C8    C     C_R   0.066627 0.148063 0.405873 -0.177392
C9    C     C_R   0.867145 0.727334 0.532338 -0.121116
C10   C     C_R   0.128592 0.266337 0.431308 -0.123685
C11   C     C_R   0.933739 0.614217 0.521050 -0.047186
C12   C     C_R   0.509835 0.745840 0.559170 0.594502
C13   C     C_R   0.065611 0.384082 0.471475 -0.048069
C14   C     C_R   0.065704 0.622903 0.539400 0.008230
C15   C     C_R   0.936915 0.379851 0.481025 0.006758
C16   C     C_R   0.870768 0.494337 0.497306 -0.013152
C17   C     C_R   0.129887 0.505726 0.506627 -0.012660
C18   C     C_3   0.271633 0.813817 0.797170 -0.103584
C19   C     C_3   0.792430 0.262302 0.670008 -0.093209
C20   C     C_2   0.482458 0.114830 0.407197 -0.104576
C21   C     C_2   0.512441 0.885149 0.592477 -0.103531
C22   C     C_2   0.492928 0.069376 0.516386 -0.157445
C23   C     C_2   0.491841 0.930319 0.483161 -0.157072
C24   C     C_2   0.510207 0.510105 0.081330 -0.027604
C25   C     C_2   0.489839 0.489827 0.918617 -0.039883
C26   C     C_R   0.263339 0.507278 0.503246 0.606454
Cu1   Cu    Cu3+1 0.521920 0.521810 0.644910 0.940239
Cu2   Cu    Cu3+1 0.478080 0.478190 0.355090 0.952255
H1    H     H_    0.115918 0.058959 0.374080 0.122973
H2    H     H_    0.470366 0.048909 0.292422 0.090111
H3    H     H_    0.417846 0.418134 0.845447 0.146039
H4    H     H_    0.582244 0.581769 0.154468 0.145914
H5    H     H_    0.622642 0.622055 0.934544 0.200597
H6    H     H_    0.377344 0.377953 0.065454 0.199899
H7    H     H_    0.231703 0.741473 0.836358 0.122778
H8    H     H_    0.230766 0.909907 0.845078 0.092628
H9    H     H_    0.373123 0.827808 0.840064 0.155241
H10   H     H_    0.703415 0.267574 0.714572 0.157979
H11   H     H_    0.851763 0.351031 0.742440 0.119450
H12   H     H_    0.876829 0.932153 0.574791 0.110925
H13   H     H_    0.837167 0.173301 0.676503 0.087630
H14   H     H_    0.106569 0.953384 0.629589 0.118889
H15   H     H_    0.897967 0.053844 0.417031 0.119935
H16   H     H_    0.766121 0.724858 0.515118 0.126501
H17   H     H_    0.226190 0.264019 0.418645 0.127188
H18   H     H_    0.474924 0.864575 0.368211 0.150472
H19   H     H_    0.504195 0.134924 0.631297 0.140239
H20   H     H_    0.529832 0.951211 0.707207 0.090786
N1    N     N_2   0.445130 0.445420 0.137360 -0.354613
N2    N     N_2   0.554870 0.554580 0.862640 -0.366813
O1    O     O_R   0.511700 0.332340 0.577400 -0.494048
O2    O     O_3   0.767078 0.256592 0.522468 -0.562182
O3    O     O_R   0.488300 0.667660 0.422600 -0.499277
O4    O     O_R   0.474680 0.295500 0.332650 -0.495816
O5    O     O_R   0.525320 0.704500 0.667350 -0.491436
O6    O     O_R   0.338170 0.518410 0.622370 -0.488552
O7    O     O_R   0.661830 0.481590 0.377630 -0.501844
O8    O     O_R   0.301150 0.481570 0.377630 -0.494057
O9    O     O_R   0.698850 0.518430 0.622370 -0.481281
O10   O     O_3   0.254508 0.768750 0.641203 -0.565272

loop_
_geom_bond_atom_site_label_1
_geom_bond_atom_site_label_2
_ccdc_geom_bond_type
C25   H3    S    
C6    C8    A    
C7    H12   S    
C24   H4    S    
C19   H10   S    
Cu2   O8    S    
C2    C16   S    
Cu2   N1    S    
C12   O3    A    
Cu1   N2    S    
C13   C17   A    
C5    H14   S    
C21   H20   S    
C3    O10   S    
Cu1   O6    S    
C10   H17   S    
C13   C15   A    
C22   H19   S    
C2    O7    A    
C23   H18   S    
Cu1   O9    S    
Cu2   O7    S    
Cu2   O3    S    
C1    O1    A    
C14   C17   A    
C9    C11   A    
C3    C14   A    
C19   H11   S    
C4    O2    S    
C1    O4    A    
C8    H1    S    
C12   C21   S    
C18   O10   S    
C2    O9    A    
C18   H9    S    
Cu1   O1    S    
C6    H15   S    
C21   C23   D    
C4    C15   A    
C8    C10   A    
C11   C14   A    
Cu1   O5    S    
C12   O5    A    
C17   C26   S    
C15   C16   A    
C7    C9    A    
Cu1   Cu2   S    
C24   C25   S    
C4    C6    A    
C18   H7    S    
C24   N1    D    
C5    C7    A    
Cu2   O4    S    
C25   N2    D    
H6    N1    S    
C20   H2    S    
C3    C5    A    
H5    N2    S    
C22   C23   S    
C18   H8    S    
C19   O2    S    
C26   O8    A    
C11   C16   A    
C9    H16   S    
C19   H13   S    
C20   C22   D    
C1    C20   S    
C10   C13   A    
C26   O6    A    
