data_mof_unit_43553.cif
_audit_creation_date              2012-12-11T15:32:37-0500
_audit_creation_method            fapswitch 2.2
_symmetry_space_group_name_H-M    P1
_symmetry_Int_Tables_number       1
_space_group_crystal_system       triclinic
_cell_length_a                    7.008306
_cell_length_b                    20.436455
_cell_length_c                    24.377789
_cell_angle_alpha                 89.495055
_cell_angle_beta                  89.570276
_cell_angle_gamma                 90.822976
_cell_volume                      3490.90982783

loop_
_atom_site_label
_atom_site_type_symbol
_atom_type_description
_atom_site_fract_x
_atom_site_fract_y
_atom_site_fract_z
_atom_type_partial_charge
O1    O     O_R   0.507320 0.423560 0.460500 -0.549196
O2    O     O_R   0.170760 0.556250 0.437010 -0.520569
O3    O     O_R   0.004030 0.576440 0.539500 -0.544943
C1    C     C_R   0.340776 0.576180 0.421241 0.732534
O4    O     O_R   0.177370 0.422820 0.454110 -0.507227
O5    O     O_R   0.010680 0.442050 0.556720 -0.522609
C2    C     C_R   0.345627 0.400091 0.442365 0.768777
O6    O     O_R   0.500680 0.557950 0.443280 -0.553149
O7    O     O_3   0.340380 0.506470 0.533650 -0.368969
V1    V     V_3+5 0.064130 0.498800 0.493760 1.570730
O8    O     O_R   0.681160 0.443750 0.562990 -0.528716
C3    C     C_R   0.847370 0.423512 0.578836 0.708683
O9    O     O_R   0.674560 0.577180 0.545890 -0.541513
C4    C     C_R   0.843597 0.600931 0.556577 0.674441
V2    V     V_3+5 0.564560 0.501200 0.506240 1.510570
O10   O     O_3   0.838180 0.493530 0.466350 -0.364131
C5    C     C_R   0.972762 0.837332 0.912275 -0.129065
C6    C     C_R   0.851551 0.661489 0.589058 -0.045264
C7    C     C_R   0.016306 0.720303 0.908474 -0.108191
C8    C     C_R   0.012928 0.777962 0.938462 0.353964
C9    C     C_R   0.936243 0.838217 0.855639 -0.240871
C10   C     C_R   0.941170 0.779948 0.823829 0.047082
C11   C     C_R   0.982275 0.720280 0.851559 -0.028431
C12   C     C_R   0.908492 0.779034 0.765610 0.063036
C13   C     C_R   0.917839 0.718599 0.736149 -0.013120
C14   C     C_R   0.958890 0.661103 0.765807 -0.203314
C15   C     C_R   0.990122 0.661531 0.822057 0.398187
C16   C     C_R   0.866821 0.836583 0.735795 -0.137956
C17   C     C_R   0.834900 0.835460 0.679689 -0.174965
C18   C     C_R   0.842589 0.777177 0.650567 0.121642
C19   C     C_R   0.884898 0.717602 0.677927 0.108663
C20   C     C_R   0.806203 0.778292 0.594009 -0.145482
C21   C     C_R   0.809161 0.720926 0.563703 -0.166381
C22   C     C_R   0.890171 0.659696 0.645624 -0.195711
H1    H     H_    0.920049 0.612317 0.662935 0.110363
H2    H     H_    0.777553 0.722844 0.520280 0.114338
H3    H     H_    0.802726 0.881022 0.658819 0.151903
H4    H     H_    0.047793 0.675547 0.930390 0.214907
H5    H     H_    0.908186 0.885438 0.837773 0.124094
H6    H     H_    0.968040 0.614169 0.746402 0.169754
H7    H     H_    0.856825 0.883874 0.754549 0.150815
H8    H     H_    0.773155 0.823776 0.573186 0.132203
C23   C     C_3   0.827297 0.301525 0.771129 -0.209279
C24   C     C_3   0.029733 0.282122 0.788894 -0.287654
H9    H     H_    0.117506 0.307119 0.820336 0.195998
H10   H     H_    0.753192 0.343804 0.789360 0.195747
C25   C     C_1   0.977927 0.122415 0.875141 -0.114641
C26   C     C_1   0.848186 0.377861 0.624981 -0.060177
C27   C     C_3   0.764516 0.228238 0.772870 0.374246
C28   C     C_3   0.965832 0.208964 0.790664 -0.155052
C29   C     C_3   0.823193 0.220033 0.712081 0.339840
C30   C     C_3   0.883001 0.292883 0.710010 -0.156343
C31   C     C_3   0.025665 0.201328 0.729712 0.300826
C32   C     C_3   0.085492 0.274816 0.727448 0.359443
C33   C     C_1   0.980093 0.161292 0.836974 0.223739
C34   C     C_1   0.853345 0.339537 0.663454 0.298641
C35   C     C_3   0.501996 0.720485 0.207579 -0.165979
C36   C     C_3   0.308592 0.697341 0.233148 -0.084103
H11   H     H_    0.223075 0.654279 0.219809 0.162299
H12   H     H_    0.575921 0.696824 0.172722 0.168646
H13   H     H_    0.096680 0.785327 0.219598 0.188992
C37   C     C_1   0.354444 0.621528 0.375253 -0.120987
C38   C     C_1   0.469675 0.877944 0.124372 -0.094312
C39   C     C_3   0.585249 0.729406 0.265995 -0.200271
C40   C     C_3   0.391786 0.707061 0.290909 0.066867
C41   C     C_3   0.513628 0.800356 0.265874 0.440627
C42   C     C_3   0.432250 0.791726 0.208255 0.041816
C43   C     C_3   0.321769 0.778244 0.291826 -0.212113
C44   C     C_3   0.239220 0.769168 0.233346 -0.143016
C45   C     C_1   0.369878 0.659887 0.337094 0.022842
C46   C     C_1   0.454098 0.839177 0.162231 0.093155
H14   H     H_    0.248793 0.802274 0.326674 0.170750
H15   H     H_    0.728171 0.713563 0.279747 0.152869
C47   C     C_R   0.479267 0.162164 0.087852 -0.048647
C48   C     C_R   0.351705 0.340720 0.408386 -0.164186
C49   C     C_R   0.589714 0.274320 0.095599 -0.131358
C50   C     C_R   0.562140 0.218413 0.064395 -0.155226
C51   C     C_R   0.422109 0.162281 0.143265 -0.197355
C52   C     C_R   0.454146 0.218230 0.176563 0.085761
C53   C     C_R   0.539307 0.274512 0.151359 0.109433
C54   C     C_R   0.410853 0.219878 0.234161 0.039880
C55   C     C_R   0.435990 0.279595 0.263776 0.070581
C56   C     C_R   0.536166 0.331439 0.237834 -0.043765
C57   C     C_R   0.582733 0.329614 0.182481 -0.158981
C58   C     C_R   0.355751 0.163170 0.263978 -0.149467
C59   C     C_R   0.335282 0.164499 0.320725 -0.130389
C60   C     C_R   0.350344 0.223314 0.349232 0.070589
C61   C     C_R   0.380590 0.283184 0.320399 -0.003517
C62   C     C_R   0.335337 0.222473 0.406502 -0.121986
C63   C     C_R   0.345699 0.280393 0.435767 -0.181404
C64   C     C_R   0.354055 0.343016 0.349987 0.286731
H16   H     H_    0.656665 0.371385 0.164083 0.155599
H17   H     H_    0.339267 0.278291 0.480192 0.172543
H18   H     H_    0.305608 0.118964 0.342521 0.154569
H19   H     H_    0.656213 0.317021 0.076429 0.136545
H20   H     H_    0.609460 0.218519 0.021968 0.124238
H21   H     H_    0.358238 0.117740 0.159354 0.110121
H22   H     H_    0.585786 0.373214 0.260638 0.194615
H23   H     H_    0.340224 0.115925 0.245145 0.147755
H24   H     H_    0.318831 0.176633 0.428858 0.153609
O11   O     O_R   0.323550 0.942140 0.056770 -0.526763
O12   O     O_R   0.647080 0.077200 0.045890 -0.542544
O13   O     O_R   0.813610 0.057920 0.943260 -0.532512
C65   C     C_R   0.479526 0.101241 0.056097 0.686100
O14   O     O_R   0.653470 0.943760 0.063000 -0.528591
O15   O     O_R   0.820050 0.923540 0.960490 -0.535051
C66   C     C_R   0.483432 0.923769 0.078719 0.739790
O16   O     O_R   0.317110 0.076520 0.039540 -0.540974
O17   O     O_3   0.483830 0.993580 0.966380 -0.368563
V3    V     V_3+5 0.760140 0.001190 0.006240 1.516488
O18   O     O_R   0.149510 0.922740 0.954070 -0.527982
C67   C     C_R   0.980454 0.898967 0.943474 0.777225
O19   O     O_R   0.143120 0.056170 0.936970 -0.534957
C68   C     C_R   0.977011 0.076401 0.921092 0.692667
V4    V     V_3+5 0.259690 0.998700 0.993700 1.531061
O20   O     O_3   0.986130 0.006420 0.033620 -0.370421
Cl1   Cl    Cl    0.040282 0.585685 0.853748 -0.587735
S1    S     S_3+6 0.268588 0.323678 0.695731 0.077737
O21   O     O_2   0.288164 0.307331 0.636030 -0.271106
O22   O     O_2   0.220627 0.394893 0.700577 -0.346797
O23   O     O_3   0.470340 0.311530 0.728575 -0.468752
H25   H     H_    0.442407 0.327184 0.766090 0.345425
S2    S     S_3+6 0.144223 0.130167 0.705241 0.152376
O24   O     O_2   0.333607 0.123545 0.732545 -0.241198
O25   O     O_2   0.024624 0.070568 0.718937 -0.310744
O26   O     O_3   0.175376 0.135465 0.636928 -0.421081
H26   H     H_    0.232887 0.093352 0.626431 0.366916
S3    S     S_3+6 0.702986 0.178504 0.657817 0.162080
O27   O     O_2   0.511573 0.207755 0.648918 -0.220864
O28   O     O_2   0.818673 0.185856 0.605936 -0.306716
O29   O     O_3   0.675320 0.098686 0.673469 -0.427148
H27   H     H_    0.616526 0.078979 0.640573 0.365024
Cl2   Cl    Cl    0.555368 0.200050 0.808458 -0.556559
S4    S     S_3+6 0.651562 0.868885 0.288138 0.026212
O30   O     O_2   0.821522 0.878153 0.250816 -0.314474
O31   O     O_2   0.532385 0.929398 0.286426 -0.312246
O32   O     O_3   0.726986 0.855574 0.352513 -0.480888
H28   H     H_    0.609322 0.846157 0.374104 0.324924
S5    S     S_3+6 0.278296 0.416480 0.316286 -0.002784
O33   O     O_2   0.204287 0.401979 0.259912 -0.301219
O34   O     O_2   0.119737 0.447693 0.347986 -0.323784
O35   O     O_3   0.461607 0.470291 0.311076 -0.494836
H29   H     H_    0.520549 0.470717 0.347848 0.313427
Cl3   Cl    Cl    0.060567 0.774174 0.009322 -0.636782

loop_
_geom_bond_atom_site_label_1
_geom_bond_atom_site_label_2
_ccdc_geom_bond_type
O11   C66   A    
C25   C68   S    
C41   C43   S    
O14   V3    S    
S3    O29   S    
C13   C19   A    
O26   H26   S    
C4    C6    S    
O2    C1    A    
C7    C8    A    
C1    O6    A    
S3    O27   D    
C21   H2    S    
S4    O32   S    
C54   C55   A    
S2    O24   D    
O15   C67   A    
C31   C32   S    
O14   C66   A    
C14   C15   A    
C63   H17   S    
O13   V3    S    
C29   S3    S    
O16   V4    S    
C47   C65   S    
C16   C17   A    
C49   H19   S    
O5    C3    A    
C18   C19   A    
S5    O35   S    
C23   C30   S    
S2    O25   D    
H13   C44   S    
V2    O10   S    
C1    C37   S    
C16   H7    S    
C5    C8    A    
C37   C45   T    
C22   H1    S    
C8    Cl3   S    
S1    O21   D    
C59   H18   S    
C48   C63   A    
C41   S4    S    
O8    V2    S    
O18   C67   A    
C43   C44   S    
C27   C29   S    
C56   H22   S    
C39   H15   S    
O1    V2    S    
C11   C15   A    
O7    V1    S    
C3    C26   S    
C41   C42   S    
O1    C2    A    
O9    C4    A    
C35   C42   S    
C23   H10   S    
C30   C32   S    
O4    C2    A    
C15   Cl1   S    
C28   C31   S    
C62   H24   S    
C29   C30   S    
C49   C53   A    
O13   C68   A    
C12   C13   A    
C31   S2    S    
C53   C57   A    
C52   C54   A    
C59   C60   A    
C23   C27   S    
S2    O26   S    
S4    O31   D    
C36   H11   S    
C58   C59   A    
C47   C50   A    
C5    C9    A    
C42   C44   S    
S1    O23   S    
C39   C41   S    
C40   C45   S    
C7    C11   A    
C23   C24   S    
C17   C18   A    
C58   H23   S    
C7    H4    S    
C36   C40   S    
C56   C57   A    
C9    H5    S    
C61   C64   A    
C32   S1    S    
C43   H14   S    
C40   C43   S    
C51   H21   S    
C19   C22   A    
C49   C50   A    
O12   C65   A    
C6    C22   A    
O23   H25   S    
O3    C4    A    
C64   S5    S    
C38   C46   T    
C55   C56   A    
O6    V2    S    
O9    V2    S    
O11   V4    S    
C10   C12   A    
O12   V3    S    
C38   C66   S    
O29   H27   S    
O2    V1    S    
C5    C67   S    
V3    O20   S    
C65   O16   A    
C24   H9    S    
C35   C39   S    
C25   C33   T    
O19   C68   A    
O15   V3    S    
C24   C28   S    
C26   C34   T    
C27   Cl2   S    
C51   C52   A    
C12   C16   A    
C35   H12   S    
S3    O28   D    
O5    V1    S    
C2    C48   S    
S5    O33   D    
C36   C44   S    
S4    O30   D    
C48   C64   A    
O32   H28   S    
C50   H20   S    
C28   C33   S    
C20   C21   A    
C60   C62   A    
C13   C14   A    
O4    V1    S    
O3    V1    S    
V1    O10   S    
O17   V3    S    
C39   C40   S    
C18   C20   A    
S5    O34   D    
C14   H6    S    
C35   C36   S    
C30   C34   S    
C55   C61   A    
C42   C46   S    
O7    V2    S    
C6    C21   A    
S1    O22   D    
O17   V4    S    
C52   C53   A    
C24   C32   S    
C60   C61   A    
C27   C28   S    
C47   C51   A    
C17   H3    S    
O35   H29   S    
C20   H8    S    
C10   C11   A    
O18   V4    S    
C57   H16   S    
C29   C31   S    
C62   C63   A    
C9    C10   A    
C54   C58   A    
V4    O20   S    
O8    C3    A    
O19   V4    S    
