data_mof_unit_7727.cif
_audit_creation_date              2012-12-10T16:54:53-0500
_audit_creation_method            fapswitch 2.2
_symmetry_space_group_name_H-M    P1
_symmetry_Int_Tables_number       1
_space_group_crystal_system       triclinic
_cell_length_a                    8.118114
_cell_length_b                    8.713188
_cell_length_c                    15.62893
_cell_angle_alpha                 94.575435
_cell_angle_beta                  85.156625
_cell_angle_gamma                 91.84184
_cell_volume                      1097.68970532

loop_
_atom_site_label
_atom_site_type_symbol
_atom_type_description
_atom_site_fract_x
_atom_site_fract_y
_atom_site_fract_z
_atom_type_partial_charge
Br1   Br    Br    0.581625 0.182886 0.050413 -0.487557
Br2   Br    Br    0.771133 0.027918 0.561661 -0.342228
Br3   Br    Br    0.043593 0.317002 0.391154 -0.378957
Br4   Br    Br    0.956833 0.674928 0.612850 -0.274270
Br5   Br    Br    0.412210 0.878057 0.932950 -0.405332
Br6   Br    Br    0.785535 0.777981 0.918332 -0.435694
Br7   Br    Br    0.231500 0.257729 0.064690 -0.583616
C1    C     C_R   0.543158 0.792941 0.501735 0.846551
C2    C     C_2   0.439434 0.044078 0.501503 -0.418768
C3    C     C_R   0.501459 0.508888 0.660756 0.872973
C4    C     C_R   0.457738 0.207348 0.503404 0.947217
C5    C     C_R   0.498739 0.493719 0.339165 0.859430
C6    C     C_3   0.361517 0.664938 0.966556 0.318670
C7    C     C_3   0.669769 0.587681 0.950258 0.049071
C8    C     C_3   0.668649 0.565229 0.048169 -0.174673
C9    C     C_1   0.495217 0.486911 0.249792 -0.188663
C10   C     C_3   0.495514 0.551931 0.918424 0.060250
C11   C     C_3   0.435951 0.808487 0.119593 -0.341957
C12   C     C_3   0.366470 0.653770 0.071288 0.148395
C13   C     C_3   0.312302 0.936877 0.147456 -0.645154
C14   C     C_3   0.187653 0.645078 0.926130 -0.366488
C15   C     C_3   0.120711 0.488546 0.891400 -0.880827
C16   C     C_3   0.188929 0.629244 0.116189 -0.377377
C17   C     C_3   0.164959 0.617397 0.214744 -0.773085
C18   C     C_3   0.816763 0.465523 0.061957 -0.370539
C19   C     C_3   0.837746 0.426194 0.154325 -0.700699
C20   C     C_3   0.488712 0.513230 0.083767 0.058059
C21   C     C_3   0.443408 0.355086 0.032487 0.500984
C22   C     C_3   0.459553 0.378822 0.936103 -0.525975
C23   C     C_1   0.490379 0.491127 0.174278 0.073153
C24   C     C_1   0.503988 0.553767 0.825900 0.076682
C25   C     C_1   0.505301 0.536064 0.749906 -0.090901
C26   C     C_2   0.565619 0.955790 0.514900 0.126541
H1    H     H_    0.321924 0.994611 0.482668 0.194185
H2    H     H_    0.539799 0.860455 0.080758 0.277838
H3    H     H_    0.197273 0.441074 0.834075 0.272584
H4    H     H_    0.101005 0.406292 0.941219 0.290787
H5    H     H_    0.001262 0.504753 0.865323 0.277048
H6    H     H_    0.091473 0.705035 0.968540 0.231623
H7    H     H_    0.191263 0.708727 0.866933 0.282457
H8    H     H_    0.167420 0.495814 0.230551 0.291589
H9    H     H_    0.257437 0.684887 0.250886 0.258259
H10   H     H_    0.043599 0.663641 0.240511 0.240839
H11   H     H_    0.106904 0.721871 0.102794 0.214963
H12   H     H_    0.749999 0.500930 0.913671 0.143481
H13   H     H_    0.140396 0.526661 0.085451 0.241352
H14   H     H_    0.822444 0.530009 0.199583 0.241587
H15   H     H_    0.751333 0.333661 0.175311 0.290446
H16   H     H_    0.959533 0.377753 0.158866 0.282536
H17   H     H_    0.831306 0.362016 0.016672 0.271270
H18   H     H_    0.919919 0.538793 0.040386 0.205168
H19   H     H_    0.702536 0.676421 0.082108 0.188358
H20   H     H_    0.356552 0.321243 0.904238 0.243500
H21   H     H_    0.563822 0.309936 0.903980 0.226446
H22   H     H_    0.238809 0.957834 0.093466 0.318530
H23   H     H_    0.225330 0.910668 0.202885 0.234766
H24   H     H_    0.379336 0.042720 0.170421 0.286121
H25   H     H_    0.491066 0.783735 0.179393 0.177011
N1    N     N_2   0.950340 0.457950 0.477370 0.083629
N2    N     N_2   0.049660 0.542050 0.522630 0.079195
O1    O     O_R   0.389240 0.738570 0.505550 -0.620295
O2    O     O_R   0.678400 0.711630 0.491050 -0.570101
O3    O     O_R   0.355360 0.513470 0.630110 -0.598851
O4    O     O_R   0.644510 0.486530 0.615610 -0.570773
O5    O     O_R   0.321600 0.288370 0.508950 -0.577182
O6    O     O_R   0.610760 0.261430 0.494450 -0.559967
O7    O     O_R   0.355490 0.513470 0.384390 -0.594999
O8    O     O_R   0.644640 0.486530 0.369890 -0.608802
Zn1   Zn    Zn3+2 0.306930 0.517990 0.509680 1.079597
Zn2   Zn    Zn3+2 0.693070 0.482010 0.490320 1.100591

loop_
_geom_bond_atom_site_label_1
_geom_bond_atom_site_label_2
_ccdc_geom_bond_type
Br1   C21   S    
C12   C16   S    
C16   C17   S    
C18   H18   S    
O4    Zn2   S    
Br6   C7    S    
C15   H3    S    
C11   H2    S    
C8    C20   S    
C3    O3    A    
C14   H6    S    
C4    O6    A    
C6    C10   S    
C1    O1    A    
C13   H23   S    
Br5   C6    S    
Br4   N2    S    
C8    H19   S    
C13   H24   S    
C6    C14   S    
N1    N2    D    
C16   H13   S    
C14   C15   S    
C20   C23   S    
C2    C26   D    
C17   H8    S    
C5    O8    A    
C7    C10   S    
C17   H9    S    
O6    Zn2   S    
C14   H7    S    
C22   H20   S    
N2    Zn1   S    
C13   H22   S    
O5    Zn1   S    
C19   H14   S    
Br2   C26   S    
C21   C22   S    
C7    H12   S    
C11   C13   S    
C1    C26   S    
C2    C4    S    
O3    Zn1   S    
C2    H1    S    
C10   C24   S    
C5    O7    A    
C8    C18   S    
C22   H21   S    
C6    C12   S    
N1    Zn2   S    
C9    C23   T    
C15   H5    S    
C3    C25   S    
C10   C22   S    
C19   H15   S    
O2    Zn2   S    
O8    Zn2   S    
C11   C12   S    
C19   H16   S    
O1    Zn1   S    
C20   C21   S    
C17   H10   S    
C7    C8    S    
O7    Zn1   S    
C18   C19   S    
C18   H17   S    
C15   H4    S    
C4    O5    A    
C11   H25   S    
C24   C25   T    
C3    O4    A    
Br7   C21   S    
C5    C9    S    
C1    O2    A    
C12   C20   S    
C16   H11   S    
Br3   N1    S    
