data_mof_unit_57981.cif
_audit_creation_date              2012-12-10T16:43:23-0500
_audit_creation_method            fapswitch 2.2
_symmetry_space_group_name_H-M    P1
_symmetry_Int_Tables_number       1
_space_group_crystal_system       triclinic
_cell_length_a                    10.791225
_cell_length_b                    8.677819
_cell_length_c                    7.493705
_cell_angle_alpha                 102.878363
_cell_angle_beta                  95.784315
_cell_angle_gamma                 92.113105
_cell_volume                      679.332688578

loop_
_atom_site_label
_atom_site_type_symbol
_atom_type_description
_atom_site_fract_x
_atom_site_fract_y
_atom_site_fract_z
_atom_type_partial_charge
C1    C     C_R   0.500229 0.200096 0.453640 0.888073
C2    C     C_R   0.078440 0.638440 0.638565 -0.052071
C3    C     C_R   0.129566 0.524926 0.502413 -0.074789
C4    C     C_R   0.051925 0.419156 0.365405 -0.226091
C5    C     C_R   0.924335 0.418641 0.365014 -0.174548
C6    C     C_R   0.871812 0.520826 0.504625 -0.036585
C7    C     C_2   0.497623 0.032018 0.430201 -0.455558
C8    C     C_2   0.539116 0.968667 0.570240 0.308198
C9    C     C_R   0.262976 0.508562 0.501387 0.845348
C10   C     C_R   0.515572 0.799885 0.546592 0.800752
C11   C     C_R   0.737527 0.507147 0.501226 0.768825
C12   C     C_R   0.152203 0.764743 0.761797 0.392218
C13   C     C_R   0.101787 0.856932 0.914309 0.374096
C14   C     C_R   0.973924 0.845646 0.921819 -0.204443
C15   C     C_R   0.897131 0.742437 0.782744 -0.264273
C16   C     C_R   0.947825 0.632104 0.643967 0.035322
Cu1   Cu    Cu3+1 0.513920 0.517380 0.684380 1.056314
Cu2   Cu    Cu3+1 0.486080 0.482620 0.315620 1.015824
H1    H     H_    0.090371 0.333268 0.260316 0.161200
H2    H     H_    0.932858 0.924005 0.030830 0.175205
H3    H     H_    0.798335 0.753633 0.785935 0.176552
H4    H     H_    0.866326 0.333550 0.258595 0.155689
H5    H     H_    0.449227 0.960991 0.302312 0.143129
N1    N     N_2   0.465100 0.456430 0.038520 0.163621
N2    N     N_2   0.534900 0.543570 0.961480 0.130838
O1    O     O_R   0.509050 0.286130 0.619770 -0.487327
O2    O     O_R   0.485540 0.256780 0.308360 -0.627046
O3    O     O_R   0.331410 0.514680 0.655740 -0.536523
O4    O     O_R   0.307900 0.485330 0.344330 -0.632272
O5    O     O_R   0.514460 0.743220 0.691640 -0.585498
O6    O     O_R   0.490950 0.713870 0.380230 -0.564454
O7    O     O_R   0.692100 0.514670 0.655670 -0.604009
O8    O     O_R   0.668590 0.485320 0.344260 -0.552259
O9    O     O_3   0.611144 0.654522 0.078085 -0.616388
H6    H     H_    0.657194 0.706674 0.998091 0.314636
O10   O     O_3   0.262035 0.821304 0.713500 -0.599710
C17   C     C_3   0.232341 0.920051 0.589689 -0.353729
H7    H     H_    0.137046 0.966238 0.592096 0.162209
H8    H     H_    0.242776 0.855060 0.447118 0.191651
H9    H     H_    0.298085 0.025843 0.626674 0.186761
O11   O     O_3   0.173179 0.968893 0.048544 -0.777850
H10   H     H_    0.262567 0.954899 0.033482 0.339080
O12   O     O_3   0.619658 0.057882 0.717489 -0.584991
C18   C     C_3   0.577890 0.053198 0.888827 -0.144161
H11   H     H_    0.623199 0.959005 0.945054 0.134573
H12   H     H_    0.474485 0.038134 0.883063 0.185897
H13   H     H_    0.608281 0.167033 0.987208 0.199652
O13   O     O_3   0.399710 0.336432 0.915977 -0.499499
C19   C     C_3   0.282313 0.316043 0.974512 -0.142961
H14   H     H_    0.236717 0.430287 0.009005 0.154521
H15   H     H_    0.289283 0.254552 0.089260 0.196238
H16   H     H_    0.221168 0.238623 0.859072 0.140614

loop_
_geom_bond_atom_site_label_1
_geom_bond_atom_site_label_2
_ccdc_geom_bond_type
O12   C18   S    
C18   H13   S    
C17   H7    S    
C3    C9    S    
C11   O8    A    
C12   O10   S    
C2    C16   A    
O11   H10   S    
C10   O5    A    
C8    O12   S    
C9    O4    A    
N2    O9    S    
C19   H16   S    
Cu1   N2    S    
C19   H14   S    
C13   O11   S    
C2    C3    A    
C2    C12   A    
C7    C8    D    
C17   H8    S    
Cu2   O4    S    
C13   C14   A    
N1    N2    D    
Cu1   O5    S    
C4    H1    S    
C5    C6    A    
Cu2   N1    S    
Cu1   O1    S    
O13   C19   S    
C18   H12   S    
C11   O7    A    
Cu1   Cu2   S    
C17   H9    S    
C1    O1    A    
Cu2   O8    S    
C7    H5    S    
C5    H4    S    
C6    C16   A    
C3    C4    A    
N1    O13   S    
C14   H2    S    
C15   H3    S    
C18   H11   S    
C8    C10   S    
O9    H6    S    
C6    C11   S    
C1    O2    A    
Cu1   O7    S    
C14   C15   A    
O10   C17   S    
Cu2   O6    S    
C12   C13   A    
C1    C7    S    
Cu1   O3    S    
C10   O6    A    
Cu2   O2    S    
C15   C16   A    
C9    O3    A    
C4    C5    A    
C19   H15   S    
