data_mof_unit_23173.cif
_audit_creation_date              2012-12-11T18:04:35-0500
_audit_creation_method            fapswitch 2.2
_symmetry_space_group_name_H-M    P1
_symmetry_Int_Tables_number       1
_space_group_crystal_system       triclinic
_cell_length_a                    8.498108
_cell_length_b                    13.080838
_cell_length_c                    22.562076
_cell_angle_alpha                 96.748383
_cell_angle_beta                  90.00239
_cell_angle_gamma                 98.246239
_cell_volume                      2464.56168711

loop_
_atom_site_label
_atom_site_type_symbol
_atom_type_description
_atom_site_fract_x
_atom_site_fract_y
_atom_site_fract_z
_atom_type_partial_charge
Ba1   Ba    Ba6+2 0.856210 0.551220 0.472190 1.734966
Ba2   Ba    Ba6+2 0.333620 0.448870 0.527810 1.764585
C1    C     C_3   0.657068 0.847522 0.216538 -0.269047
C2    C     C_3   0.588884 0.775513 0.261687 0.589297
C3    C     C_3   0.470644 0.311775 0.350014 0.418245
C4    C     C_3   0.487599 0.298154 0.282251 -0.265257
C5    C     C_3   0.044756 0.216661 0.687450 0.262779
C6    C     C_3   0.997537 0.179970 0.748699 -0.088651
C7    C     C_3   0.524318 0.218744 0.718331 0.384515
C8    C     C_3   0.537536 0.186327 0.781052 -0.326058
C9    C     C_R   0.331702 0.532412 0.333631 -0.302091
C10   C     C_R   0.074342 0.620293 0.944895 -0.089029
C11   C     C_R   0.024068 0.622039 0.884590 0.622031
C12   C     C_3   0.096799 0.740659 0.308506 0.359798
C13   C     C_R   0.859814 0.457485 0.885176 0.572586
C14   C     C_R   0.911342 0.450242 0.943989 -0.007792
C15   C     C_R   0.020546 0.531289 0.973761 -0.097762
C16   C     C_R   0.176577 0.703522 0.977702 0.400165
C17   C     C_R   0.224960 0.695737 0.036158 -0.078685
C18   C     C_R   0.175428 0.606509 0.064319 -0.080631
C19   C     C_R   0.072776 0.524098 0.033210 -0.054523
C20   C     C_R   0.857550 0.362708 0.973385 -0.077978
C21   C     C_R   0.912809 0.354636 0.030866 -0.069284
C22   C     C_R   0.021018 0.434894 0.061647 -0.022942
C23   C     C_3   0.073909 0.753393 0.243143 -0.293385
C24   C     C_R   0.078317 0.428032 0.120143 0.587860
C25   C     C_R   0.224856 0.599390 0.123443 0.583077
C26   C     C_2   0.747240 0.522743 0.767587 -0.096661
C27   C     C_3   0.712080 0.513298 0.700513 -0.080002
C28   C     C_1   0.000407 0.534636 0.686924 0.010302
C29   C     C_2   0.032226 0.539462 0.745275 -0.208683
C30   C     C_2   0.897955 0.534563 0.789622 0.211669
C31   C     C_R   0.400691 0.526671 0.227823 0.004286
C32   C     C_R   0.444761 0.552655 0.289729 -0.041402
C33   C     C_R   0.175466 0.489222 0.318036 0.046096
C34   C     C_3   0.210815 0.766595 0.586206 0.313022
C35   C     C_R   0.125817 0.482494 0.257703 -0.129624
C36   C     C_R   0.235542 0.505782 0.212155 0.208326
C37   C     C_2   0.858647 0.491122 0.665695 0.153277
C38   C     C_R   0.760475 0.171534 0.508227 -0.186665
C39   C     C_R   0.439517 0.809209 0.470258 -0.235906
C40   C     C_R   0.407054 0.983011 0.449106 -0.018857
C41   C     C_R   0.347631 0.876965 0.447920 0.062287
C42   C     C_R   0.584641 0.845444 0.500170 0.098048
C43   C     C_R   0.645274 0.955767 0.503430 -0.052726
C44   C     C_R   0.555748 0.024494 0.475988 -0.088071
C45   C     C_3   0.194313 0.881361 0.594549 0.227952
C46   C     C_R   0.615962 0.133708 0.478883 0.003872
C47   C     C_R   0.847875 0.108225 0.535753 0.058514
C48   C     C_R   0.789675 0.000993 0.534120 -0.075018
C49   C     C_3   0.983533 0.201724 0.349696 0.842474
C50   C     C_3   0.001392 0.103686 0.306044 0.262841
C51   C     C_3   0.658516 0.739780 0.663664 0.339492
C52   C     C_3   0.538055 0.771710 0.712025 0.323696
H1    H     H_    0.066298 0.890831 0.597278 0.062920
H2    H     H_    0.247784 0.920780 0.556863 -0.009508
H3    H     H_    0.924864 0.100977 0.265624 0.103973
H4    H     H_    0.614251 0.658696 0.644263 -0.049254
H5    H     H_    0.734165 0.916780 0.238421 0.115622
H6    H     H_    0.423591 0.766966 0.688444 0.153496
H7    H     H_    0.506851 0.714246 0.236116 0.056074
H8    H     H_    0.558714 0.874056 0.192773 0.150106
H9    H     H_    0.356458 0.337859 0.362543 0.006896
H10   H     H_    0.567878 0.373610 0.368089 0.037786
H11   H     H_    0.491431 0.215756 0.264542 0.226153
H12   H     H_    0.387206 0.325408 0.260224 0.085671
H13   H     H_    0.602092 0.342433 0.270341 0.088718
H14   H     H_    0.727825 0.805884 0.182940 0.064056
H15   H     H_    0.047965 0.675714 0.216937 0.073409
H16   H     H_    0.160388 0.268229 0.690986 0.065839
H17   H     H_    0.952474 0.263142 0.674850 0.039267
H18   H     H_    0.874085 0.138746 0.742653 0.112228
H19   H     H_    0.398257 0.227567 0.711477 0.034020
H20   H     H_    0.662968 0.186624 0.793980 0.145713
H21   H     H_    0.473271 0.106957 0.783625 0.155374
H22   H     H_    0.986865 0.696313 0.323820 0.105787
H23   H     H_    0.486526 0.241874 0.814042 0.128264
H24   H     H_    0.869562 0.285263 0.051299 0.134557
H25   H     H_    0.774262 0.298921 0.951511 0.121704
H26   H     H_    0.303137 0.760636 0.059652 0.161843
H27   H     H_    0.152904 0.538702 0.760506 0.103027
H28   H     H_    0.648403 0.520820 0.798138 0.113236
H29   H     H_    0.002657 0.454477 0.245767 0.145009
H30   H     H_    0.369040 0.542858 0.380085 0.065975
H31   H     H_    0.197969 0.697201 0.312225 0.028845
H32   H     H_    0.334867 0.032759 0.429843 0.133716
H33   H     H_    0.858408 0.954045 0.556749 0.101579
H34   H     H_    0.808508 0.252445 0.508363 0.148741
H35   H     H_    0.391160 0.727655 0.468154 0.035849
H36   H     H_    0.971754 0.794479 0.236602 0.113826
H37   H     H_    0.182264 0.798333 0.226489 0.206817
H38   H     H_    0.335872 0.756707 0.576234 -0.043684
H39   H     H_    0.131464 0.730037 0.547956 0.030188
N1    N     N_R   0.927889 0.537832 0.854077 -0.427158
N2    N     N_R   0.179880 0.509999 0.150791 -0.425144
O1    O     O_2   0.890290 0.440320 0.360790 -0.435361
O2    O     O_3   0.665376 0.807382 0.619661 -0.621970
O3    O     O_3   0.129796 0.838677 0.342013 -0.566061
O4    O     O_2   0.299410 0.559720 0.639240 -0.496174
O5    O     O_3   0.058870 0.558650 0.568170 -0.432789
O6    O     O_3   0.517310 0.362160 0.604450 -0.422973
O7    O     O_3   0.169748 0.726889 0.640130 -0.640750
O8    O     O_3   0.614910 0.369290 0.471050 -0.453084
O9    O     O_3   0.099190 0.306290 0.575790 -0.403137
O10   O     O_2   0.175052 0.117635 0.538747 -0.459967
O11   O     O_3   0.054611 0.130686 0.644116 -0.627219
O12   O     O_3   0.130840 0.441440 0.431840 -0.458411
O13   O     O_3   0.574800 0.630800 0.528960 -0.490598
O14   O     O_2   0.344900 0.234690 0.472540 -0.403909
O15   O     O_3   0.477421 0.216082 0.371721 -0.530447
O16   O     O_2   0.389673 0.421397 0.711450 -0.550681
O17   O     O_3   0.627774 0.311225 0.716720 -0.595719
O18   O     O_2   0.062209 0.699291 0.859565 -0.549223
O19   O     O_2   0.755231 0.391487 0.861518 -0.614702
O20   O     O_2   0.038775 0.348675 0.143358 -0.568517
O21   O     O_2   0.306002 0.674372 0.151064 -0.639089
O22   O     O_3   0.672400 0.637930 0.395560 -0.447212
O23   O     O_2   0.770859 0.548686 0.293346 -0.522348
O24   O     O_3   0.075721 0.286518 0.329943 -0.608698
O25   O     O_3   0.712529 0.737793 0.290712 -0.621714
O26   O     O_2   0.844800 0.765340 0.527490 -0.497369
O27   O     O_3   0.090520 0.693800 0.424220 -0.518980
O28   O     O_2   0.016157 0.881986 0.449447 -0.504226
P1    P     P_3+3 0.057140 0.408270 0.369700 1.109496
P2    P     P_3+3 0.667360 0.749400 0.544670 0.983089
P3    P     P_3+3 0.145911 0.824558 0.417852 0.967761
P4    P     P_3+3 0.132580 0.591820 0.630310 1.004676
P5    P     P_3+3 0.042211 0.168770 0.572321 1.032657
P6    P     P_3+3 0.645600 0.617302 0.316973 0.949393
P7    P     P_3+3 0.518587 0.237374 0.448369 1.062913
P8    P     P_3+3 0.549128 0.405361 0.681101 1.015651
Cl1   Cl    Cl    0.474662 0.843321 0.313986 -0.764732
Cl2   Cl    Cl    0.289179 0.941154 0.662980 -0.759813
Cl3   Cl    Cl    0.784726 0.217532 0.344980 -0.793932
Cl4   Cl    Cl    0.042210 0.191301 0.423637 -0.720290
C53   C     C_3   0.959338 0.002106 0.332967 -0.220966
C54   C     C_3   0.798100 0.985697 0.361798 -0.380768
H40   H     H_    0.801858 0.034836 0.404766 0.172275
H41   H     H_    0.704749 0.005577 0.332822 0.217942
H42   H     H_    0.770564 0.903822 0.371310 0.207938
H43   H     H_    0.962368 0.938575 0.296583 0.171004
H44   H     H_    0.051032 0.000124 0.367330 0.225752
Cl5   Cl    Cl    0.198385 0.104825 0.278462 -0.631019
C55   C     C_3   0.827581 0.744389 0.688666 -0.185122
C56   C     C_3   0.916460 0.851488 0.710129 -0.277020
H45   H     H_    0.904543 0.907633 0.678147 0.169269
H46   H     H_    0.875959 0.879855 0.754156 0.170017
H47   H     H_    0.042909 0.845088 0.717226 0.182616
H48   H     H_    0.830318 0.699335 0.726492 0.041281
H49   H     H_    0.892543 0.709636 0.651429 0.081711
Cl6   Cl    Cl    0.583784 0.902939 0.746543 -0.725949
C57   C     C_3   0.511957 0.698539 0.760597 -0.357891
C58   C     C_3   0.376612 0.722427 0.801807 -0.206872
H50   H     H_    0.410017 0.797395 0.830521 0.235135
H51   H     H_    0.268132 0.726529 0.775238 0.158293
H52   H     H_    0.351232 0.659893 0.831271 0.120732
H53   H     H_    0.479952 0.617931 0.739094 0.097038
H54   H     H_    0.621345 0.704911 0.788394 0.145890
C59   C     C_3   0.995644 0.273775 0.796976 -0.227530
C60   C     C_3   0.159581 0.324862 0.822208 -0.418945
H55   H     H_    0.152404 0.403670 0.845388 0.124039
H56   H     H_    0.247278 0.332342 0.786496 0.161633
H57   H     H_    0.203588 0.278454 0.855173 0.137879
H58   H     H_    0.922660 0.248103 0.834771 0.160666
H59   H     H_    0.936489 0.332585 0.777608 0.158799
C61   C     C_3   0.097936 0.100344 0.768122 -0.161265
C62   C     C_3   0.038910 0.055527 0.825257 -0.392914
H60   H     H_    0.067124 0.113743 0.865050 0.145426
H61   H     H_    0.908308 0.030464 0.822655 0.165809
H62   H     H_    0.098795 0.987183 0.831278 0.189532
H63   H     H_    0.092700 0.035203 0.732234 0.202195
H64   H     H_    0.223211 0.135807 0.774398 0.121121
C63   C     C_3   0.578679 0.137145 0.671164 -0.214209
C64   C     C_3   0.483456 0.127252 0.613753 -0.314508
H65   H     H_    0.487647 0.049917 0.588952 0.140531
H66   H     H_    0.358190 0.135246 0.622707 0.193448
H67   H     H_    0.533126 0.187000 0.586426 0.126861
H68   H     H_    0.706278 0.156853 0.661194 0.092699
H69   H     H_    0.566691 0.060547 0.687236 0.224972
C65   C     C_3   0.520256 0.494272 0.180859 -0.177855
C66   C     C_3   0.635852 0.580031 0.157159 -0.408269
H70   H     H_    0.573535 0.637577 0.138304 0.172503
H71   H     H_    0.723052 0.618917 0.191828 0.144917
H72   H     H_    0.705096 0.544348 0.120570 0.119961
H73   H     H_    0.592402 0.440861 0.198950 0.113776
H74   H     H_    0.455500 0.447437 0.141645 0.123076
Cl7   Cl    Cl    0.249302 0.821150 0.949310 -0.635664
Cl8   Cl    Cl    0.840484 0.403035 0.600008 -0.696373

loop_
_geom_bond_atom_site_label_1
_geom_bond_atom_site_label_2
_ccdc_geom_bond_type
C25   N2    Am   
C39   H35   S    
Ba2   O14   S    
C61   H64   S    
O5    P4    S    
C8    H20   S    
C16   Cl7   S    
C30   N1    S    
C17   C18   A    
C13   N1    Am   
C56   H45   S    
C5    C6    S    
C62   H61   S    
C52   H6    S    
C66   H70   S    
C65   C66   S    
C54   H41   S    
C3    H9    S    
C23   H36   S    
C35   C36   A    
C3    C4    S    
C43   C48   A    
C33   P1    S    
C33   C35   A    
C22   C24   A    
C20   H25   S    
Ba1   Ba2   S    
C59   C60   S    
C5    H17   S    
C28   C29   D    
C49   Cl3   S    
C1    H8    S    
C3    O15   S    
C63   H69   S    
C38   C47   A    
O11   P5    S    
Ba2   O12   S    
Ba1   O5    S    
C34   C45   S    
C34   O7    S    
C16   C17   A    
C40   C44   A    
C24   O20   D    
C53   H44   S    
C64   H65   S    
C49   Cl4   S    
C34   H39   S    
C4    H11   S    
C1    H14   S    
C32   P6    S    
C63   H68   S    
C14   C15   A    
C36   N2    S    
C49   O24   S    
C21   C22   A    
C7    C63   S    
C40   H32   S    
O13   P2    S    
C58   H51   S    
O22   P6    S    
C7    C8    S    
Ba1   O8    S    
C28   P4    S    
Ba2   P4    S    
C34   H38   S    
C7    O17   S    
Ba2   O5    S    
C61   H63   S    
C12   C23   S    
C63   C64   S    
C45   Cl2   S    
C31   C65   S    
C39   C41   A    
C46   P7    S    
C7    H19   S    
O12   P1    S    
C5    H16   S    
C41   P3    S    
C56   H46   S    
C8    H23   S    
C12   O3    S    
C62   H62   S    
C57   H54   S    
C66   H71   S    
C54   H42   S    
C44   C46   A    
C42   P2    S    
C6    H18   S    
C50   Cl5   S    
C23   H37   S    
C13   C14   A    
O1    P1    D    
C26   H28   S    
O25   P6    S    
C60   H57   S    
C26   C30   D    
O2    P2    S    
O7    P4    S    
C50   H3    S    
C55   H49   S    
C62   H60   S    
C55   C56   S    
O28   P3    D    
O4    P4    D    
Ba2   O6    S    
C51   O2    S    
O24   P1    S    
C2    H7    S    
C15   C19   A    
C49   C50   S    
C3    H10   S    
C12   H22   S    
O27   P3    S    
O26   P2    D    
C55   H48   S    
C8    H21   S    
Ba1   O26   S    
C29   C30   S    
O9    P5    S    
Ba2   O9    S    
C27   C37   S    
C31   C32   A    
C5    O11   S    
Ba1   O22   S    
C21   H24   S    
C18   C19   A    
C58   H52   S    
C64   H67   S    
C65   H74   S    
C48   H33   S    
Ba1   O12   S    
C37   Cl8   S    
O6    P8    S    
O3    P3    S    
O16   P8    D    
C4    H13   S    
Ba2   O4    S    
C61   C62   S    
C50   C53   S    
C39   C42   A    
C59   H59   S    
C23   H15   S    
C40   C41   A    
C1    C2    S    
C56   H47   S    
C42   C43   A    
C45   H1    S    
C66   H72   S    
C24   N2    Am   
C38   C46   A    
C47   P5    S    
C57   H53   S    
C26   C27   S    
C14   C20   A    
O10   P5    D    
C59   H58   S    
C9    C32   A    
C35   H29   S    
C12   H31   S    
Ba1   P2    S    
C53   C54   S    
C52   C57   S    
C51   H4    S    
C51   C52   S    
C52   Cl6   S    
C18   C25   A    
C9    H30   S    
C54   H40   S    
C31   C36   A    
C29   H27   S    
C11   N1    Am   
C51   C55   S    
C60   H55   S    
C38   H34   S    
C9    C33   A    
Ba1   P1    S    
O23   P6    D    
C25   O21   D    
C10   C15   A    
C2    Cl1   S    
C27   P8    S    
Ba2   O8    S    
Ba1   O1    S    
C6    C61   S    
Ba2   O13   S    
C53   H43   S    
C28   C37   D    
O15   P7    S    
O17   P8    S    
C17   H26   S    
O8    P7    S    
C64   H66   S    
C65   H73   S    
Ba1   O13   S    
C43   C44   A    
C4    H12   S    
C10   C11   A    
C47   C48   A    
C19   C22   A    
C10   C16   A    
O14   P7    D    
C13   O19   D    
C20   C21   A    
C2    O25   S    
C57   C58   S    
C58   H50   S    
C6    C59   S    
C11   O18   D    
Ba1   O27   S    
C60   H56   S    
C45   H2    S    
C1    H5    S    
