data_mof_unit_10105.cif
_audit_creation_date              2012-12-11T15:50:47-0500
_audit_creation_method            fapswitch 2.2
_symmetry_space_group_name_H-M    P1
_symmetry_Int_Tables_number       1
_space_group_crystal_system       triclinic
_cell_length_a                    19.073108
_cell_length_b                    11.101657
_cell_length_c                    18.721452
_cell_angle_alpha                 90.245995
_cell_angle_beta                  90.351295
_cell_angle_gamma                 90.327727
_cell_volume                      3963.96184394

loop_
_atom_site_label
_atom_site_type_symbol
_atom_type_description
_atom_site_fract_x
_atom_site_fract_y
_atom_site_fract_z
_atom_type_partial_charge
C1    C     C_R   0.289867 0.998829 0.861063 0.569082
C2    C     C_R   0.711431 0.002034 0.138903 0.566125
C3    C     C_R   0.789867 0.498828 0.861063 0.569394
C4    C     C_R   0.211432 0.502035 0.138903 0.565786
C5    C     C_3   0.517430 0.725404 0.973448 0.135445
C6    C     C_3   0.463545 0.741414 0.031440 0.129898
C7    C     C_3   0.017441 0.225408 0.973440 0.135504
C8    C     C_3   0.963556 0.241411 0.031432 0.129849
C9    C     C_R   0.221418 0.525466 0.062632 0.022505
C10   C     C_R   0.782392 0.514149 0.939295 0.003227
C11   C     C_R   0.721417 0.025464 0.062631 0.022346
C12   C     C_R   0.282391 0.014150 0.939295 0.003367
C13   C     C_R   0.262663 0.450439 0.019816 -0.041679
C14   C     C_R   0.730039 0.453912 0.977665 -0.026828
C15   C     C_R   0.762664 0.950439 0.019815 -0.041731
C16   C     C_R   0.230040 0.953912 0.977665 -0.026776
C17   C     C_R   0.275197 0.481711 0.948818 0.017807
C18   C     C_R   0.717626 0.484284 0.049353 0.042916
C19   C     C_R   0.775198 0.981711 0.948818 0.017896
C20   C     C_R   0.217626 0.984285 0.049352 0.042836
C21   C     C_R   0.184500 0.628093 0.955265 -0.141928
C22   C     C_R   0.824708 0.596576 0.052097 -0.149368
C23   C     C_R   0.684499 0.128091 0.955265 -0.141876
C24   C     C_R   0.324707 0.096578 0.052097 -0.149429
C25   C     C_R   0.181432 0.615883 0.028757 0.249310
C26   C     C_R   0.829566 0.589312 0.977391 0.237516
C27   C     C_R   0.681431 0.115880 0.028756 0.249277
C28   C     C_R   0.329564 0.089315 0.977391 0.237547
C29   C     C_3   0.337855 0.422544 0.031157 -0.241517
C30   C     C_3   0.654505 0.464641 0.960606 -0.227982
C31   C     C_3   0.837857 0.922545 0.031156 -0.241562
C32   C     C_3   0.154506 0.964641 0.960605 -0.227926
C33   C     C_3   0.351780 0.467277 0.955985 -0.238190
C34   C     C_3   0.641498 0.499793 0.037463 -0.213015
C35   C     C_3   0.851780 0.967274 0.955983 -0.238133
C36   C     C_3   0.141498 0.999795 0.037461 -0.213078
C37   C     C_R   0.238276 0.574097 0.916181 -0.022571
C38   C     C_R   0.762572 0.561985 0.086503 -0.024076
C39   C     C_R   0.738276 0.074097 0.916181 -0.022473
C40   C     C_R   0.262572 0.061985 0.086503 -0.024161
C41   C     C_R   0.493116 0.830775 0.420264 0.016408
C42   C     C_R   0.481294 0.828985 0.569442 0.020162
C43   C     C_R   0.018722 0.329242 0.430606 0.020369
C44   C     C_R   0.006832 0.331067 0.579776 0.016190
C45   C     C_R   0.467423 0.821666 0.856555 0.535361
C46   C     C_R   0.530844 0.821307 0.144702 0.533305
C47   C     C_R   0.967428 0.321667 0.856552 0.534241
C48   C     C_R   0.030848 0.321306 0.144699 0.534517
C49   C     C_R   0.475203 0.724721 0.456352 0.022245
C50   C     C_R   0.469867 0.724595 0.529377 0.042170
C51   C     C_R   0.029762 0.225019 0.470259 0.042763
C52   C     C_R   0.024438 0.225177 0.543272 0.022002
C53   C     C_R   0.486986 0.939007 0.533137 -0.150971
C54   C     C_R   0.491964 0.939984 0.458484 -0.151616
C55   C     C_R   0.008240 0.440247 0.542014 -0.151436
C56   C     C_R   0.013259 0.439244 0.467357 -0.151319
C57   C     C_3   0.509235 0.603174 0.456942 -0.269239
C58   C     C_3   0.503702 0.604718 0.537232 -0.273119
C59   C     C_3   0.995482 0.104808 0.461887 -0.272944
C60   C     C_3   0.989989 0.103320 0.542176 -0.269544
C61   C     C_R   0.239551 0.570107 0.428624 0.024245
C62   C     C_R   0.763329 0.560533 0.568743 0.024348
C63   C     C_R   0.736488 0.060604 0.431292 0.023943
C64   C     C_R   0.260440 0.069692 0.571379 0.024597
C65   C     C_R   0.180419 0.598373 0.468373 0.047280
C66   C     C_R   0.822710 0.588848 0.529114 0.044521
C67   C     C_R   0.677154 0.088946 0.470768 0.044358
C68   C     C_R   0.319615 0.098020 0.531495 0.047530
C69   C     C_R   0.182817 0.602712 0.541145 0.026945
C70   C     C_R   0.820071 0.594463 0.456177 0.024771
C71   C     C_R   0.679535 0.094266 0.543723 0.025252
C72   C     C_R   0.316922 0.102797 0.458727 0.026382
C73   C     C_R   0.302548 0.531943 0.538232 -0.163918
C74   C     C_R   0.701545 0.517713 0.458197 -0.171190
C75   C     C_R   0.797438 0.016768 0.541746 -0.171060
C76   C     C_R   0.196623 0.032779 0.461724 -0.164139
C77   C     C_R   0.299896 0.529745 0.463960 -0.164002
C78   C     C_R   0.703878 0.515977 0.532674 -0.169761
C79   C     C_R   0.795400 0.015473 0.467300 -0.168730
C80   C     C_R   0.199606 0.029907 0.536012 -0.165294
C81   C     C_3   0.133998 0.705239 0.461660 -0.273673
C82   C     C_3   0.870810 0.694356 0.536433 -0.271203
C83   C     C_3   0.630040 0.194739 0.463762 -0.271754
C84   C     C_3   0.366926 0.204738 0.538578 -0.273114
C85   C     C_3   0.135155 0.710531 0.542049 -0.266818
C86   C     C_3   0.869738 0.700254 0.455989 -0.268140
C87   C     C_3   0.630806 0.200492 0.544205 -0.267701
C88   C     C_3   0.365441 0.210318 0.458198 -0.267341
C89   C     C_R   0.258953 0.634122 0.850048 0.542454
C90   C     C_R   0.741242 0.632062 0.150155 0.537358
C91   C     C_R   0.758953 0.134123 0.850049 0.542271
C92   C     C_R   0.241242 0.132061 0.150156 0.537553
C93   C     C_R   0.246043 0.579527 0.576800 0.019998
C94   C     C_R   0.756456 0.572258 0.420436 0.021161
C95   C     C_R   0.742893 0.071656 0.579548 0.020869
C96   C     C_R   0.253412 0.080076 0.423168 0.020163
C97   C     C_R   0.272444 0.043605 0.645276 0.555397
C98   C     C_R   0.726553 0.041044 0.355995 0.555345
C99   C     C_R   0.773397 0.541023 0.643994 0.555199
C100  C     C_R   0.227552 0.543701 0.354692 0.555620
C101  C     C_R   0.466676 0.823029 0.645208 0.549322
C102  C     C_R   0.529033 0.823191 0.352136 0.550243
C103  C     C_R   0.970951 0.323278 0.647879 0.551191
C104  C     C_R   0.033338 0.323061 0.354815 0.548403
C105  C     C_R   0.259503 0.635868 0.644635 0.554341
C106  C     C_R   0.740988 0.634262 0.354674 0.554656
C107  C     C_R   0.758845 0.134177 0.645369 0.553204
C108  C     C_R   0.240344 0.135968 0.355412 0.555800
C109  C     C_3   0.478564 0.934347 0.030116 -0.171070
C110  C     C_3   0.534825 0.919536 0.970348 -0.176518
C111  C     C_3   0.978571 0.434346 0.030111 -0.171085
C112  C     C_3   0.034832 0.419540 0.970343 -0.176542
C113  C     C_3   0.429150 0.844198 0.990708 -0.103719
C114  C     C_3   0.568143 0.812831 0.011373 -0.106609
C115  C     C_3   0.929158 0.344196 0.990702 -0.103468
C116  C     C_3   0.068153 0.312835 0.011367 -0.106874
C117  C     C_3   0.485670 0.829369 0.932228 0.039795
C118  C     C_3   0.511724 0.828742 0.069785 0.046427
C119  C     C_3   0.985678 0.329372 0.932223 0.040249
C120  C     C_3   0.011733 0.328740 0.069780 0.045969
Cr1   Cr    Cr6+3 0.229640 0.835880 0.747370 0.997888
Cr2   Cr    Cr6+3 0.770360 0.835880 0.252630 0.998210
Cr3   Cr    Cr6+3 0.729640 0.335880 0.747370 0.998600
Cr4   Cr    Cr6+3 0.270360 0.335880 0.252630 0.997514
Cr5   Cr    Cr6+3 0.387390 0.989720 0.750850 1.015892
Cr6   Cr    Cr6+3 0.612610 0.989720 0.249150 1.011111
Cr7   Cr    Cr6+3 0.887390 0.489720 0.750850 1.015617
Cr8   Cr    Cr6+3 0.112610 0.489720 0.249150 1.011340
Cr9   Cr    Cr6+3 0.385770 0.677220 0.749340 1.001677
Cr10  Cr    Cr6+3 0.614230 0.677220 0.250660 1.001699
Cr11  Cr    Cr6+3 0.885770 0.177220 0.749340 0.998550
Cr12  Cr    Cr6+3 0.114230 0.177220 0.250660 1.004852
H1    H     H_    0.371894 0.848570 0.981895 0.109395
H2    H     H_    0.625194 0.800860 0.020756 0.100572
H3    H     H_    0.871903 0.348567 0.981889 0.109425
H4    H     H_    0.125204 0.300865 0.020749 0.100529
H5    H     H_    0.490600 0.022627 0.562501 0.120188
H6    H     H_    0.501092 0.024108 0.431518 0.121119
H7    H     H_    0.999254 0.524303 0.569345 0.121329
H8    H     H_    0.009803 0.522748 0.438353 0.119995
H9    H     H_    0.030989 0.034891 0.440560 0.134821
H10   H     H_    0.934980 0.106459 0.559992 0.168435
H11   H     H_    0.564275 0.606807 0.439215 0.168723
H12   H     H_    0.467919 0.534509 0.558196 0.134719
H13   H     H_    0.476172 0.532568 0.431007 0.126499
H14   H     H_    0.555295 0.610885 0.564956 0.136334
H15   H     H_    0.943906 0.110513 0.434209 0.136039
H16   H     H_    0.022851 0.033092 0.567760 0.126872
H17   H     H_    0.350940 0.508354 0.564715 0.127797
H18   H     H_    0.654374 0.488412 0.430989 0.117869
H19   H     H_    0.844309 0.987337 0.568951 0.117647
H20   H     H_    0.147922 0.009600 0.435291 0.128170
H21   H     H_    0.345168 0.500014 0.434306 0.118834
H22   H     H_    0.658710 0.484595 0.561909 0.115323
H23   H     H_    0.840416 0.983985 0.438057 0.115812
H24   H     H_    0.154213 0.000232 0.565665 0.118427
H25   H     H_    0.081650 0.683504 0.438991 0.133976
H26   H     H_    0.922763 0.671373 0.558882 0.132795
H27   H     H_    0.577993 0.172179 0.440901 0.133014
H28   H     H_    0.419214 0.182729 0.560825 0.133770
H29   H     H_    0.160938 0.782712 0.436073 0.138800
H30   H     H_    0.845039 0.772119 0.562659 0.138715
H31   H     H_    0.656659 0.272334 0.438101 0.139615
H32   H     H_    0.340753 0.282266 0.564773 0.137872
H33   H     H_    0.160622 0.794135 0.561693 0.171661
H34   H     H_    0.846115 0.784763 0.436919 0.170344
H35   H     H_    0.655076 0.284914 0.563744 0.171692
H36   H     H_    0.340536 0.294004 0.439098 0.170256
H37   H     H_    0.083452 0.690312 0.566354 0.122349
H38   H     H_    0.920971 0.677989 0.431486 0.121536
H39   H     H_    0.579249 0.178683 0.568341 0.121257
H40   H     H_    0.416847 0.189829 0.433508 0.122609
H41   H     H_    0.460508 0.014498 0.059540 0.098556
H42   H     H_    0.563816 0.992602 0.943065 0.106131
H43   H     H_    0.960513 0.514493 0.059537 0.098608
H44   H     H_    0.063821 0.492609 0.943060 0.106062
H45   H     H_    0.151508 0.694828 0.931269 0.137182
H46   H     H_    0.862864 0.650579 0.080773 0.122527
H47   H     H_    0.651508 0.194826 0.931269 0.137200
H48   H     H_    0.362863 0.150581 0.080773 0.122493
H49   H     H_    0.845871 0.826260 0.037418 0.180739
H50   H     H_    0.128429 0.880009 0.944568 0.144083
H51   H     H_    0.345870 0.326259 0.037417 0.180738
H52   H     H_    0.628428 0.380010 0.944569 0.144079
H53   H     H_    0.360351 0.473095 0.076246 0.173974
H54   H     H_    0.649111 0.537673 0.921322 0.167026
H55   H     H_    0.860352 0.973099 0.076244 0.173966
H56   H     H_    0.149114 0.037669 0.921319 0.167005
H57   H     H_    0.377630 0.556512 0.954090 0.175415
H58   H     H_    0.625399 0.594488 0.044726 0.166671
H59   H     H_    0.877634 0.056506 0.954085 0.175480
H60   H     H_    0.125399 0.094490 0.044723 0.166590
H61   H     H_    0.372237 0.400008 0.917972 0.185018
H62   H     H_    0.609567 0.434935 0.067779 0.168419
H63   H     H_    0.872236 0.900002 0.917971 0.185072
H64   H     H_    0.109566 0.934938 0.067778 0.168366
O1    O     O_R   0.214300 0.709080 0.827500 -0.539165
O2    O     O_R   0.785700 0.709080 0.172500 -0.537967
O3    O     O_R   0.714300 0.209080 0.827500 -0.539382
O4    O     O_R   0.285700 0.209080 0.172500 -0.537757
O5    O     O_R   0.445900 0.919370 0.676500 -0.507579
O6    O     O_R   0.554100 0.919370 0.323500 -0.507058
O7    O     O_R   0.945900 0.419370 0.676500 -0.507244
O8    O     O_R   0.054100 0.419370 0.323500 -0.507428
O9    O     O_R   0.456660 0.717710 0.669820 -0.517116
O10   O     O_R   0.543340 0.717710 0.330180 -0.524002
O11   O     O_R   0.956660 0.217710 0.669820 -0.522742
O12   O     O_R   0.043340 0.217710 0.330180 -0.518320
O13   O     O_R   0.320590 0.625770 0.672930 -0.506669
O14   O     O_R   0.679410 0.625770 0.327070 -0.508755
O15   O     O_R   0.820590 0.125770 0.672930 -0.508740
O16   O     O_R   0.179410 0.125770 0.327070 -0.506637
O17   O     O_3   0.334270 0.834280 0.749190 -0.276485
O18   O     O_3   0.665730 0.834280 0.250810 -0.272172
O19   O     O_3   0.834270 0.334280 0.749190 -0.274759
O20   O     O_3   0.165730 0.334280 0.250810 -0.273896
O21   O     O_R   0.236190 0.958390 0.823150 -0.515161
O22   O     O_R   0.763810 0.958390 0.176850 -0.511862
O23   O     O_R   0.736190 0.458390 0.823150 -0.514687
O24   O     O_R   0.263810 0.458390 0.176850 -0.512358
O25   O     O_R   0.332090 0.075280 0.831290 -0.452477
O26   O     O_R   0.667910 0.075280 0.168710 -0.459420
O27   O     O_R   0.832090 0.575280 0.831290 -0.451894
O28   O     O_R   0.167910 0.575280 0.168710 -0.460013
O29   O     O_R   0.446280 0.918040 0.826620 -0.530020
O30   O     O_R   0.553720 0.918040 0.173380 -0.532061
O31   O     O_R   0.946280 0.418040 0.826620 -0.531094
O32   O     O_R   0.053720 0.418040 0.173380 -0.531021
O33   O     O_R   0.457080 0.716270 0.831760 -0.531939
O34   O     O_R   0.542920 0.716270 0.168240 -0.530555
O35   O     O_R   0.957080 0.216270 0.831760 -0.532126
O36   O     O_R   0.042920 0.216270 0.168240 -0.530381
O37   O     O_R   0.320980 0.624440 0.823040 -0.503106
O38   O     O_R   0.679020 0.624440 0.176960 -0.501209
O39   O     O_R   0.820980 0.124440 0.823040 -0.502807
O40   O     O_R   0.179020 0.124440 0.176960 -0.501506
O41   O     O_R   0.213880 0.710510 0.665560 -0.527585
O42   O     O_R   0.786120 0.710510 0.334440 -0.527828
O43   O     O_R   0.713880 0.210510 0.665560 -0.527603
O44   O     O_R   0.286120 0.210510 0.334440 -0.527804
O45   O     O_R   0.235800 0.959720 0.673040 -0.508219
O46   O     O_R   0.764200 0.959720 0.326960 -0.507275
O47   O     O_R   0.735800 0.459720 0.673040 -0.507176
O48   O     O_R   0.264200 0.459720 0.326960 -0.508236
O49   O     O_R   0.331670 0.076720 0.669350 -0.518080
O50   O     O_R   0.668330 0.076720 0.330650 -0.515589
O51   O     O_R   0.831670 0.576720 0.669350 -0.517561
O52   O     O_R   0.168330 0.576720 0.330650 -0.516169
N1    N     N_3   0.534513 0.610919 0.940770 -0.660841
H65   H     H_    0.488702 0.562265 0.930999 0.245478
H66   H     H_    0.556488 0.629459 0.891049 0.240850
N2    N     N_3   0.426362 0.647343 0.068615 -0.661989
H67   H     H_    0.463567 0.587635 0.088962 0.247614
H68   H     H_    0.400517 0.686488 0.111897 0.241186
N3    N     N_3   0.034522 0.110926 0.940757 -0.660824
H69   H     H_    0.988710 0.062274 0.930987 0.245562
H70   H     H_    0.056497 0.129469 0.891036 0.240804
N4    N     N_3   0.926376 0.147332 0.068601 -0.661987
H71   H     H_    0.963582 0.087625 0.088947 0.247546
H72   H     H_    0.900527 0.186469 0.111884 0.241332
O53   O     O_3   0.152872 0.709354 0.067905 -0.536683
C121  C     C_3   0.079569 0.701077 0.064523 -0.123921
H73   H     H_    0.061281 0.609259 0.077696 0.145237
H74   H     H_    0.061210 0.730722 0.011337 0.075162
H75   H     H_    0.056810 0.761660 0.105381 0.126177
O54   O     O_3   0.861421 0.683064 0.941107 -0.556958
C122  C     C_3   0.934380 0.676992 0.947108 -0.133714
H76   H     H_    0.953801 0.592424 0.923435 0.162513
H77   H     H_    0.950547 0.690635 0.003194 0.075966
H78   H     H_    0.957970 0.751143 0.915721 0.120292
O55   O     O_3   0.652870 0.209351 0.067905 -0.536644
C123  C     C_3   0.579567 0.201073 0.064522 -0.123953
H79   H     H_    0.561279 0.109255 0.077696 0.145236
H80   H     H_    0.561209 0.230718 0.011337 0.075168
H81   H     H_    0.556809 0.261657 0.105381 0.126179
O56   O     O_3   0.361419 0.183067 0.941106 -0.556970
C124  C     C_3   0.434379 0.176998 0.947110 -0.133674
H82   H     H_    0.453801 0.092429 0.923440 0.162498
H83   H     H_    0.450544 0.190645 0.003196 0.075954
H84   H     H_    0.457969 0.251148 0.915722 0.120304

loop_
_geom_bond_atom_site_label_1
_geom_bond_atom_site_label_2
_ccdc_geom_bond_type
Cr4   O24   S    
C57   H13   S    
Cr6   O50   S    
C73   C93   A    
Cr8   O28   S    
N3    H70   S    
C75   C95   A    
C48   C120  S    
Cr6   O6    S    
C53   H5    S    
C104  O8    A    
C16   C20   A    
C63   C98   S    
C69   C93   A    
C97   O49   A    
C5    C6    S    
C56   H8    S    
C109  H41   S    
C71   C95   A    
O55   C123  S    
C22   C38   A    
C29   C33   S    
C55   H7    S    
C33   H57   S    
C9    C13   A    
C11   C15   A    
C87   H35   S    
C12   C16   A    
C123  H79   S    
C88   H36   S    
Cr12  O20   S    
Cr4   O48   S    
C23   H47   S    
C73   H17   S    
C34   H62   S    
C21   H45   S    
C96   C108  S    
C59   C60   S    
C113  H1    S    
C31   H49   S    
Cr6   O30   S    
C41   C49   A    
C109  C118  S    
Cr11  O19   S    
C51   C52   A    
C7    C119  S    
C30   C34   S    
Cr11  O39   S    
C92   O40   A    
C85   H37   S    
Cr1   O17   S    
C66   C82   S    
C11   C27   A    
C68   C72   A    
C87   H39   S    
C45   O29   A    
Cr12  O40   S    
C64   C97   S    
Cr9   O13   S    
C84   C88   S    
C38   C90   S    
C85   H33   S    
C18   C38   A    
C101  O5    A    
C76   C96   A    
C44   C55   A    
Cr7   O19   S    
C66   C70   A    
C123  H81   S    
C20   C40   A    
Cr10  O18   S    
C8    N4    S    
C98   O46   A    
C79   H23   S    
C62   C99   S    
C72   C96   A    
C61   C65   A    
C5    C117  S    
C2    O22   A    
Cr10  O34   S    
C19   C35   S    
C60   H16   S    
C75   C79   A    
N2    H67   S    
C26   O54   S    
C59   H15   S    
C27   O55   S    
C67   C83   S    
C111  C112  S    
Cr11  O11   S    
Cr3   O47   S    
C7    C8    S    
C53   C54   A    
Cr1   O45   S    
N1    H65   S    
C64   C68   A    
C1    O25   A    
C103  O11   A    
C42   C53   A    
O53   C121  S    
C82   H26   S    
C122  H78   S    
C91   O39   A    
C49   C57   S    
C41   C102  S    
C89   O37   A    
C43   C104  S    
C52   C60   S    
C77   H21   S    
C61   C77   A    
C24   H48   S    
C76   C80   A    
C110  C114  S    
C100  O48   A    
C44   C52   A    
C124  H82   S    
C1    C12   S    
Cr5   O17   S    
C2    C11   S    
C108  O16   A    
C44   C103  S    
Cr3   O43   S    
C110  H42   S    
C62   C66   A    
C34   H58   S    
C10   C14   A    
C82   H30   S    
C116  C120  S    
C7    C116  S    
C36   H64   S    
Cr10  O10   S    
Cr8   O32   S    
C114  H2    S    
C105  O41   A    
Cr2   O2    S    
C102  O10   A    
C101  O9    A    
C42   C50   A    
C113  C117  S    
C112  H44   S    
Cr8   O20   S    
C115  C119  S    
Cr11  O15   S    
C61   C100  S    
C99   O51   A    
C42   C101  S    
C112  C116  S    
C69   C85   S    
Cr11  O35   S    
C48   O32   A    
C21   C25   A    
C35   H59   S    
C36   H60   S    
Cr1   O21   S    
C62   C78   A    
C24   C28   A    
C122  H76   S    
C15   C31   S    
C121  H73   S    
Cr5   O25   S    
C16   C32   S    
C89   O1    A    
C13   C17   A    
N4    H71   S    
C57   C58   S    
Cr2   O42   S    
C115  H3    S    
C29   H53   S    
Cr9   O17   S    
C58   H12   S    
C47   O31   A    
O56   C124  S    
C59   H9    S    
C123  H80   S    
C49   C50   A    
C124  H84   S    
C4    C9    S    
C92   O4    A    
C81   C85   S    
C57   H11   S    
C83   C87   S    
C55   C56   A    
Cr3   O19   S    
C46   O34   A    
C74   C94   A    
Cr5   O49   S    
C86   H34   S    
C121  H75   S    
C84   H28   S    
C9    C25   A    
C15   C19   A    
Cr5   O5    S    
C12   C28   A    
C13   C29   S    
C70   C94   A    
C98   O50   A    
Cr4   O44   S    
C107  O15   A    
C76   H20   S    
C45   C117  S    
C2    O26   A    
C105  O13   A    
C46   C118  S    
Cr8   O8    S    
C39   C91   S    
C73   C77   A    
Cr3   O23   S    
Cr6   O18   S    
C60   H10   S    
C4    O24   A    
C3    O27   A    
C29   H51   S    
C35   H63   S    
C33   H61   S    
C86   H38   S    
Cr7   O31   S    
C64   C80   A    
C17   C33   S    
Cr5   O29   S    
C110  C117  S    
C81   H25   S    
C68   C84   S    
C5    N1    S    
C78   H22   S    
C82   C86   S    
C107  O43   A    
Cr10  O38   S    
Cr2   O18   S    
C50   C58   S    
C100  O52   A    
C25   O53   S    
C65   C81   S    
C58   H14   S    
C95   C107  S    
C71   C87   S    
C31   C35   S    
Cr7   O51   S    
C106  O42   A    
C32   C36   S    
N2    H68   S    
Cr3   O3    S    
C83   H31   S    
C7    N3    S    
C81   H29   S    
C112  C119  S    
C116  H4    S    
Cr4   O4    S    
C37   C89   S    
C102  O6    A    
C109  C110  S    
C122  H77   S    
C43   C51   A    
C65   C69   A    
C67   C71   A    
C104  O12   A    
C99   O47   A    
C97   O45   A    
C20   C36   S    
C21   C37   A    
C3    O23   A    
C22   C26   A    
C1    O21   A    
Cr7   O7    S    
C88   H40   S    
C5    C114  S    
C14   C18   A    
Cr12  O16   S    
C22   H46   S    
Cr2   O46   S    
C63   C79   A    
C111  H43   S    
C30   H54   S    
C32   H50   S    
C23   C39   A    
C28   O56   S    
C47   O35   A    
Cr9   O33   S    
Cr9   O9    S    
C90   O38   A    
C8    C115  S    
C93   C105  S    
C108  O44   A    
C23   C27   A    
C74   C78   A    
C84   H32   S    
Cr7   O27   S    
C91   O3    A    
C10   C26   A    
C47   C119  S    
C45   O33   A    
C14   C30   S    
Cr12  O36   S    
C72   C88   S    
C80   H24   S    
C63   C67   A    
N1    H66   S    
C32   H56   S    
Cr8   O52   S    
C75   H19   S    
C121  H74   S    
C4    O28   A    
Cr9   O37   S    
C111  C120  S    
N4    H72   S    
C6    C113  S    
C46   O30   A    
C17   C37   A    
C40   C92   S    
C18   C34   S    
Cr1   O1    S    
C114  C118  S    
C19   C39   A    
Cr12  O12   S    
C124  H83   S    
Cr10  O14   S    
C51   C59   S    
N3    H69   S    
C70   C86   S    
C8    C120  S    
Cr4   O20   S    
C94   C106  S    
Cr2   O22   S    
C30   H52   S    
C106  O14   A    
Cr6   O26   S    
C90   O2    A    
C109  C113  S    
C6    N2    S    
C3    C10   S    
C54   H6    S    
Cr1   O41   S    
C24   C40   A    
C103  O7    A    
C41   C54   A    
O54   C122  S    
C48   O36   A    
C43   C56   A    
C83   H27   S    
C74   H18   S    
C111  C115  S    
C31   H55   S    
C6    C118  S    
