data_mof_unit_11730.cif
_audit_creation_date              2012-12-11T14:08:14-0500
_audit_creation_method            fapswitch 2.2
_symmetry_space_group_name_H-M    P1
_symmetry_Int_Tables_number       1
_space_group_crystal_system       triclinic
_cell_length_a                    11.008701
_cell_length_b                    10.95787
_cell_length_c                    18.661461
_cell_angle_alpha                 90.336154
_cell_angle_beta                  89.914538
_cell_angle_gamma                 59.945177
_cell_volume                      1948.43152017

loop_
_atom_site_label
_atom_site_type_symbol
_atom_type_description
_atom_site_fract_x
_atom_site_fract_y
_atom_site_fract_z
_atom_type_partial_charge
C1    C     C_R   0.233689 0.647290 0.607856 0.563477
C2    C     C_3   0.647679 0.618222 0.801300 -0.225861
C3    C     C_3   0.728311 0.699254 0.806470 -0.003464
C4    C     C_3   0.682243 0.666087 0.671546 0.031397
C5    C     C_3   0.842596 0.590547 0.687085 -0.275251
C6    C     C_3   0.617464 0.603608 0.722861 -0.233091
C7    C     C_2   0.679868 0.152318 0.668933 -0.047983
C8    C     C_2   0.683656 0.177430 0.831880 0.254147
C9    C     C_2   0.790928 0.129652 0.784482 -0.187242
C10   C     C_2   0.771833 0.169067 0.708813 -0.131592
C11   C     C_2   0.170775 0.669650 0.678885 -0.145634
C12   C     C_R   0.657790 0.628616 0.598231 0.555809
C13   C     C_2   0.184496 0.667523 0.836626 -0.075909
C14   C     C_2   0.176308 0.569183 0.797209 -0.101473
C15   C     C_2   0.195792 0.558422 0.719174 -0.149339
C16   C     C_2   0.666194 0.684884 0.331244 -0.112332
C17   C     C_2   0.674392 0.683928 0.174046 -0.096868
C18   C     C_2   0.786779 0.637280 0.217520 -0.147550
C19   C     C_2   0.782291 0.609993 0.292940 -0.162013
C20   C     C_2   0.677684 0.128335 0.336306 0.211029
C21   C     C_2   0.648445 0.151034 0.177993 -0.031685
C22   C     C_2   0.608960 0.078998 0.220857 -0.127354
C23   C     C_R   0.628849 0.226894 0.601378 0.590817
C24   C     C_2   0.587089 0.109828 0.296305 -0.189354
C25   C     C_2   0.191789 0.659063 0.325655 -0.023837
C26   C     C_2   0.185270 0.642518 0.172234 -0.095717
C27   C     C_2   0.241951 0.708940 0.205689 -0.121960
C28   C     C_2   0.270431 0.688186 0.281318 -0.106523
C29   C     C_R   0.703393 0.101650 0.898006 0.551754
C30   C     C_R   0.756831 0.712676 0.883066 0.539845
C31   C     C_R   0.117629 0.706857 0.906914 0.557468
C32   C     C_R   0.674848 0.106852 0.104431 0.560929
C33   C     C_R   0.699198 0.692549 0.098606 0.562460
C34   C     C_R   0.225966 0.647764 0.400072 0.560009
C35   C     C_R   0.099802 0.705036 0.110342 0.580293
C36   C     C_R   0.644488 0.627366 0.396186 0.549739
C37   C     C_R   0.621514 0.221846 0.397844 0.555778
C38   C     C_3   0.638706 0.845705 0.770152 -0.188115
C39   C     C_3   0.622108 0.827519 0.688426 0.131893
C40   C     C_3   0.867916 0.619037 0.764695 -0.271193
Cr1   Cr    Cr6+3 0.393010 0.398050 0.501480 1.057977
Cr2   Cr    Cr6+3 0.398820 0.707980 0.501630 1.110497
Cr3   Cr    Cr6+3 0.708140 0.393940 0.496850 1.076122
Cr4   Cr    Cr6+3 0.937950 0.938450 0.008940 1.062243
Cr5   Cr    Cr6+3 0.626180 0.937030 0.994750 1.059028
Cr6   Cr    Cr6+3 0.937790 0.625760 0.001410 1.042363
H1    H     H_    0.689568 0.910524 0.777872 0.076569
H2    H     H_    0.662955 0.489503 0.710435 0.168198
H3    H     H_    0.939751 0.516852 0.790717 0.156807
H4    H     H_    0.892088 0.474364 0.679598 0.166826
H5    H     H_    0.895735 0.048933 0.800189 0.116581
H6    H     H_    0.829910 0.216588 0.687090 0.157267
H7    H     H_    0.624386 0.103635 0.692125 0.172525
H8    H     H_    0.151545 0.495250 0.822375 0.187948
H9    H     H_    0.238387 0.454086 0.695406 0.228304
H10   H     H_    0.219511 0.734985 0.812892 0.109478
H11   H     H_    0.534143 0.903033 0.796810 0.210470
H12   H     H_    0.123815 0.774815 0.702097 0.119468
H13   H     H_    0.890605 0.604481 0.196001 0.160788
H14   H     H_    0.873428 0.518741 0.315262 0.174084
H15   H     H_    0.569111 0.718346 0.193629 0.082925
H16   H     H_    0.578509 0.780848 0.310105 0.104418
H17   H     H_    0.583803 0.001605 0.199746 0.149620
H18   H     H_    0.482073 0.141176 0.315329 0.141058
H19   H     H_    0.672913 0.229254 0.198256 0.142371
H20   H     H_    0.251026 0.793045 0.180272 0.167011
H21   H     H_    0.350049 0.710098 0.301849 0.140990
H22   H     H_    0.185939 0.551626 0.195767 0.092083
H23   H     H_    0.111478 0.636515 0.307384 0.078894
H24   H     H_    0.688851 0.860410 0.658987 0.095828
H25   H     H_    0.916987 0.686043 0.764186 0.112667
H26   H     H_    0.895738 0.627442 0.649403 0.120950
H27   H     H_    0.710240 0.511421 0.825075 0.172193
H28   H     H_    0.546975 0.674624 0.831664 0.154486
H29   H     H_    0.502651 0.656136 0.714539 0.177023
O1    O     O_R   0.507110 0.256280 0.580300 -0.454597
O2    O     O_R   0.524640 0.695370 0.425100 -0.505831
O3    O     O_R   0.735890 0.504390 0.415980 -0.495675
O4    O     O_R   0.690560 0.277820 0.422350 -0.447717
O5    O     O_3   0.499990 0.499990 0.499980 -0.283223
O6    O     O_R   0.089190 0.825870 0.932320 -0.517837
O7    O     O_R   0.819070 0.053960 0.931440 -0.533419
O8    O     O_R   0.607070 0.076440 0.916460 -0.465590
O9    O     O_R   0.647110 0.806550 0.917690 -0.501932
O10   O     O_R   0.837080 0.593860 0.915300 -0.509805
O11   O     O_R   0.064770 0.636080 0.932550 -0.508651
O12   O     O_R   0.280830 0.527190 0.577940 -0.495360
O13   O     O_R   0.068250 0.829200 0.092940 -0.474241
O14   O     O_R   0.799650 0.057040 0.080330 -0.457785
O15   O     O_R   0.586130 0.079760 0.077080 -0.517391
O16   O     O_R   0.627700 0.809630 0.066580 -0.495964
O17   O     O_R   0.816140 0.597180 0.075920 -0.499115
O18   O     O_R   0.045360 0.639170 0.081440 -0.511228
O19   O     O_3   0.833980 0.833750 0.001700 -0.292100
O20   O     O_R   0.261360 0.738990 0.584270 -0.463056
O21   O     O_R   0.532590 0.694780 0.574370 -0.416400
O22   O     O_R   0.744470 0.503750 0.577000 -0.543370
O23   O     O_R   0.698520 0.277230 0.571620 -0.509059
O24   O     O_R   0.498530 0.256920 0.419280 -0.545448
O25   O     O_R   0.272880 0.527780 0.428680 -0.515562
O26   O     O_R   0.252780 0.739630 0.423250 -0.478417
S1    S     S_3+6 0.510533 0.313466 0.815883 -0.014903
O27   O     O_2   0.418657 0.250225 0.803986 -0.237643
O28   O     O_2   0.460085 0.405087 0.881981 -0.318128
O29   O     O_3   0.499709 0.410966 0.745025 -0.569958
H30   H     H_    0.445917 0.508891 0.762941 0.348548
S2    S     S_3+6 0.858959 0.052082 0.314584 0.015465
O30   O     O_2   0.884906 0.163222 0.283485 -0.255454
O31   O     O_2   0.944318 0.996835 0.381653 -0.275136
O32   O     O_3   0.910088 0.919212 0.255080 -0.509431
H31   H     H_    0.883679 0.853797 0.277231 0.322462
S3    S     S_3+6 0.444570 0.949715 0.659944 -0.007787
O33   O     O_2   0.345772 0.898220 0.679879 -0.296030
O34   O     O_2   0.394619 0.090595 0.695139 -0.261326
O35   O     O_3   0.442540 0.971522 0.570705 -0.512108
H32   H     H_    0.343073 0.038186 0.559069 0.358633

loop_
_geom_bond_atom_site_label_1
_geom_bond_atom_site_label_2
_ccdc_geom_bond_type
C1    O12   A    
C7    C10   D    
Cr2   O5    S    
C40   H25   S    
C1    C11   S    
Cr3   O23   S    
C23   O1    A    
C10   H6    S    
Cr1   O5    S    
S3    O34   D    
C6    H29   S    
Cr5   O8    S    
Cr3   O3    S    
C37   O4    A    
C26   C27   D    
C16   H16   S    
Cr2   O21   S    
C8    C29   S    
C29   O8    A    
C5    H26   S    
Cr4   O7    S    
C36   O2    A    
C33   O16   A    
C38   C39   S    
Cr6   O17   S    
Cr3   O4    S    
C40   H3    S    
S1    O29   S    
C18   C19   S    
O32   H31   S    
C17   H15   S    
C22   H17   S    
C11   C15   D    
C32   O15   A    
C20   C24   D    
C3    C38   S    
C8    C9    D    
C9    H5    S    
C34   O25   A    
S2    O30   D    
Cr1   O24   S    
C13   C14   D    
C4    C12   S    
C11   H12   S    
C9    C10   S    
C2    H28   S    
C25   C34   S    
C20   S2    S    
C24   H18   S    
C31   O11   A    
C21   C22   D    
S2    O31   D    
C2    C6    S    
C17   C33   S    
Cr5   O19   S    
S3    O33   D    
C35   O18   A    
Cr1   O12   S    
C21   C32   S    
C34   O26   A    
Cr2   O20   S    
C28   H21   S    
C4    C6    S    
Cr4   O6    S    
C33   O17   A    
Cr3   O5    S    
C25   C28   D    
C15   H9    S    
C3    C30   S    
C38   H11   S    
C35   O13   A    
C18   H13   S    
C32   O14   A    
Cr6   O19   S    
C4    C39   S    
C1    O20   A    
C17   C18   D    
C38   H1    S    
Cr1   O25   S    
C30   O10   A    
S1    O28   D    
Cr5   O15   S    
C12   O22   A    
C2    H27   S    
C6    H2    S    
C39   S3    S    
C14   H8    S    
C3    C40   S    
S2    O32   S    
C22   C24   S    
C5    H4    S    
Cr5   O9    S    
C25   H23   S    
C7    H7    S    
Cr2   O26   S    
C37   O24   A    
C21   H19   S    
C13   C31   S    
Cr3   O22   S    
C4    C5    S    
C19   H14   S    
O29   H30   S    
C31   O6    A    
C26   H22   S    
Cr6   O10   S    
C2    C3    S    
C29   O7    A    
C27   H20   S    
C36   O3    A    
C13   H10   S    
C16   C36   S    
Cr1   O1    S    
C20   C37   S    
Cr6   O18   S    
C16   C19   D    
C7    C23   S    
C39   H24   S    
C30   O9    A    
S1    O27   D    
Cr5   O16   S    
Cr4   O19   S    
C26   C35   S    
C23   O23   A    
Cr2   O2    S    
C5    C40   S    
C27   C28   S    
C14   C15   S    
C12   O21   A    
Cr4   O13   S    
C8    S1    S    
S3    O35   S    
Cr4   O14   S    
O35   H32   S    
Cr6   O11   S    
