data_mof_unit_14046.cif
_audit_creation_date              2013-03-05T16:48:42-0500
_audit_creation_method            fapswitch 2.2
_symmetry_space_group_name_H-M    P1
_symmetry_Int_Tables_number       1
_space_group_crystal_system       triclinic
_cell_length_a                    27.790946
_cell_length_b                    8.910408
_cell_length_c                    8.101059
_cell_angle_alpha                 89.927255
_cell_angle_beta                  89.983722
_cell_angle_gamma                 90.010652
_cell_volume                      2006.05271342

loop_
_atom_site_label
_atom_site_type_symbol
_atom_site_description
_atom_site_fract_x
_atom_site_fract_y
_atom_site_fract_z
_atom_type_partial_charge
O1    O     O_R   0.500000 0.285350 0.636850 -0.612815
O2    O     O_R   0.500000 0.714650 0.363150 -0.612701
O3    O     O_R   0.500000 0.714650 0.636850 -0.618633
O4    O     O_R   0.500000 0.285350 0.363150 -0.618627
C1    C     C_R   0.500008 0.218019 0.500068 0.927718
C2    C     C_R   0.499995 0.781981 0.499932 0.928586
O5    O     O_R   0.428760 0.500000 0.636860 -0.560503
O6    O     O_R   0.571240 0.500000 0.363140 -0.561580
O7    O     O_R   0.571240 0.500000 0.636860 -0.620697
O8    O     O_R   0.428760 0.500000 0.363140 -0.620279
C3    C     C_R   0.405873 0.502238 0.500032 0.917200
C4    C     C_R   0.594112 0.497786 0.499965 0.917978
Zn1   Zn    Zn3+2 0.500000 0.500000 0.682780 1.053408
Zn2   Zn    Zn3+2 0.500000 0.500000 0.317220 1.053184
C5    C     C_R   0.177568 0.369757 0.460144 0.529913
C6    C     C_R   0.822392 0.628637 0.543147 0.530140
C7    C     C_R   0.177619 0.631193 0.523404 0.524617
C8    C     C_R   0.822288 0.368831 0.472228 0.524867
O9    O     O_2   0.202421 0.243246 0.426495 -0.531739
O10   O     O_2   0.797556 0.754321 0.580567 -0.532591
O11   O     O_2   0.202516 0.757869 0.556074 -0.533274
O12   O     O_2   0.797354 0.243048 0.435854 -0.534197
N1    N     N_R   0.201554 0.500507 0.491286 -0.337180
N2    N     N_R   0.798385 0.498734 0.508202 -0.337080
C9    C     C_R   0.278068 0.584802 0.375724 -0.083305
C10   C     C_R   0.721889 0.412401 0.622019 -0.082475
C11   C     C_R   0.277537 0.419519 0.613351 -0.208228
C12   C     C_R   0.722402 0.582305 0.388329 -0.207958
C13   C     C_R   0.327969 0.592599 0.380653 0.355615
C14   C     C_R   0.671978 0.405034 0.617270 0.355544
C15   C     C_R   0.327875 0.420455 0.617534 0.405386
C16   C     C_R   0.672064 0.581578 0.384318 0.405056
C17   C     C_R   0.252904 0.500434 0.492431 0.164433
C18   C     C_R   0.747041 0.498926 0.507195 0.164385
C19   C     C_R   0.101675 0.500189 0.494346 -0.050046
C20   C     C_R   0.898257 0.498941 0.505061 -0.049680
C21   C     C_R   0.127239 0.366945 0.462174 -0.030903
C22   C     C_R   0.872718 0.631428 0.541104 -0.031147
C23   C     C_R   0.127310 0.633700 0.524288 -0.028053
C24   C     C_R   0.872597 0.366232 0.471266 -0.028326
C25   C     C_R   0.102257 0.234000 0.433094 -0.136639
C26   C     C_R   0.897726 0.763507 0.574496 -0.137366
C27   C     C_R   0.102425 0.766515 0.554966 -0.135489
C28   C     C_R   0.897456 0.234240 0.436231 -0.136201
C29   C     C_R   0.353309 0.506661 0.500086 -0.221554
C30   C     C_R   0.646649 0.493274 0.499866 -0.220810
H1    H     H_    0.257294 0.355440 0.703454 0.165241
H2    H     H_    0.742637 0.648094 0.299695 0.165375
H3    H     H_    0.258525 0.648579 0.283603 0.186073
H4    H     H_    0.741448 0.346770 0.712534 0.186177
H5    H     H_    0.121156 0.130008 0.408644 0.191015
H6    H     H_    0.878853 0.866730 0.603019 0.192353
H7    H     H_    0.121391 0.870796 0.577321 0.191124
H8    H     H_    0.878467 0.130746 0.409795 0.192500
C31   C     C_R   0.974390 0.363870 0.467451 0.047458
C32   C     C_R   0.025528 0.635564 0.530178 0.047789
C33   C     C_R   0.974514 0.634853 0.534923 0.047740
C34   C     C_R   0.025425 0.363893 0.466224 0.048063
C35   C     C_R   0.949289 0.499213 0.502520 0.073398
C36   C     C_R   0.050640 0.499886 0.496874 0.073092
C37   C     C_R   0.947274 0.232656 0.434377 -0.220225
C38   C     C_R   0.052610 0.767915 0.557442 -0.219128
C39   C     C_R   0.947547 0.765577 0.571606 -0.219532
C40   C     C_R   0.052432 0.232041 0.435328 -0.218386
H9    H     H_    0.963098 0.125813 0.405203 0.138536
H10   H     H_    0.036740 0.875798 0.580844 0.136006
H11   H     H_    0.963510 0.872400 0.600049 0.138693
H12   H     H_    0.036504 0.124114 0.412614 0.136105
C41   C     C_1   0.500006 0.065238 0.500099 -0.153843
C42   C     C_1   0.499999 0.934762 0.499901 -0.153705
N3    N     N_1   0.500000 0.500000 0.073640 -0.003778
N4    N     N_1   0.500000 0.500000 0.926360 -0.003698
O13   O     O_3   0.352814 0.335961 0.732383 -0.721741
H13   H     H_    0.329552 0.282404 0.804276 0.348032
O14   O     O_3   0.647095 0.668270 0.271537 -0.722645
H14   H     H_    0.670341 0.723184 0.200823 0.348260
O15   O     O_3   0.350190 0.687586 0.269534 -0.716120
H15   H     H_    0.380844 0.723232 0.317691 0.339324
O16   O     O_3   0.649759 0.308217 0.726508 -0.716449
H16   H     H_    0.618775 0.274903 0.678776 0.338946

loop_
_geom_bond_atom_site_label_1
_geom_bond_atom_site_label_2
_geom_bond_distance
_ccdc_geom_bond_type
C31   C35   1.422235 A    
Zn2   N3    1.973256 S    
C20   C35   1.418359 A    
C16   O14   1.382659 S    
O15   H15   0.989559 S    
C11   C17   1.395291 A    
C5    O9    1.350207 S    
C7    N1    1.366418 A    
O1    C1    1.260740 A    
C40   H12   1.074686 S    
C19   C21   1.408274 A    
C22   C26   1.393500 A    
C10   H4    1.083685 S    
C7    C23   1.398323 A    
C15   O13   1.382609 S    
C34   C36   1.421830 A    
C32   C33   1.418233 A    
O13   H13   0.991877 S    
C8    C24   1.398337 A    
C5    C21   1.398991 A    
C20   C24   1.407981 A    
O7    Zn1   2.014366 S    
C27   H7    1.083659 S    
N1    C17   1.427098 S    
C1    C41   1.361337 S    
C8    N2    1.366380 A    
O3    Zn1   1.948011 S    
C6    O10   1.350369 S    
O3    C2    1.260370 A    
C5    N1    1.365962 A    
C12   C18   1.395295 A    
C6    N2    1.365908 A    
C21   C25   1.393301 A    
O2    C2    1.260740 A    
C10   C18   1.394937 A    
C33   C39   1.416984 A    
C9    C13   1.389104 A    
C39   H11   1.075336 S    
C38   H10   1.074747 S    
C11   C15   1.399365 A    
C12   C16   1.399319 A    
C4    C30   1.460633 S    
O8    Zn2   2.014369 S    
C23   C27   1.393383 A    
C34   C40   1.416760 A    
N2    C18   1.426948 S    
C32   C36   1.422121 A    
C13   C29   1.420256 A    
C19   C36   1.418455 A    
C19   C23   1.407881 A    
O14   H14   0.991923 S    
C37   H9    1.075297 S    
O5    C3    1.278272 A    
C24   C28   1.393597 A    
O6    C4    1.278030 A    
C9    C17   1.394893 A    
C14   O16   1.380641 S    
C10   C14   1.389166 A    
C32   C38   1.416476 A    
C3    C29   1.461317 S    
O1    Zn1   1.948939 S    
C11   H1    1.083461 S    
C2    C42   1.361339 S    
C12   H2    1.083536 S    
O6    Zn2   2.014574 S    
C8    O12   1.350493 S    
C16   C30   1.411285 A    
C14   C30   1.420200 A    
O4    C1    1.260370 A    
Zn1   N4    1.973256 S    
C28   C37   1.384627 A    
C20   C22   1.408427 A    
N3    N4    1.193123 T    
C31   C37   1.416775 A    
O4    Zn2   1.948012 S    
C41   C42   1.162598 T    
O2    Zn2   1.948938 S    
O7    C4    1.278257 A    
C9    H3    1.083575 S    
C33   C35   1.421871 A    
O8    C3    1.278458 A    
O16   H16   0.989691 S    
C28   H8    1.084037 S    
O5    Zn1   2.014577 S    
C13   O15   1.380428 S    
C15   C29   1.411559 A    
C31   C34   1.418332 A    
C6    C22   1.398919 A    
C25   C40   1.384915 A    
C26   C39   1.384864 A    
C25   H5    1.083644 S    
C27   C38   1.384621 A    
C26   H6    1.084023 S    
C7    O11   1.350335 S    
