data_mof_unit_41827.cif
_audit_creation_date              2013-03-05T15:50:23-0500
_audit_creation_method            fapswitch 2.2
_symmetry_space_group_name_H-M    P1
_symmetry_Int_Tables_number       1
_space_group_crystal_system       triclinic
_cell_length_a                    18.257599
_cell_length_b                    25.843189
_cell_length_c                    18.316295
_cell_angle_alpha                 89.95512
_cell_angle_beta                  90.038214
_cell_angle_gamma                 89.748089
_cell_volume                      8642.17326458

loop_
_atom_site_label
_atom_site_type_symbol
_atom_site_description
_atom_site_fract_x
_atom_site_fract_y
_atom_site_fract_z
_atom_type_partial_charge
Zn1   Zn    Zn3+2 0.249990 0.293780 0.913250 1.047049
Zn2   Zn    Zn3+2 0.249990 0.706220 0.086750 1.047766
Zn3   Zn    Zn3+2 0.249990 0.706220 0.913250 1.044418
Zn4   Zn    Zn3+2 0.249990 0.293780 0.086750 1.075006
Zn5   Zn    Zn3+2 0.749990 0.793780 0.413250 1.033589
Zn6   Zn    Zn3+2 0.749990 0.206220 0.586750 1.068512
Zn7   Zn    Zn3+2 0.749990 0.206220 0.413250 1.049584
Zn8   Zn    Zn3+2 0.749990 0.793780 0.586750 1.073893
Zn9   Zn    Zn3+2 0.336760 0.206240 0.000000 1.019248
Zn10  Zn    Zn3+2 0.336760 0.793760 0.000000 1.069154
Zn11  Zn    Zn3+2 0.836760 0.706240 0.500000 1.021344
Zn12  Zn    Zn3+2 0.836760 0.293760 0.500000 1.060906
Zn13  Zn    Zn3+2 0.163250 0.206230 0.000000 1.031928
Zn14  Zn    Zn3+2 0.163250 0.793770 0.000000 1.040009
Zn15  Zn    Zn3+2 0.663250 0.706230 0.500000 1.044280
Zn16  Zn    Zn3+2 0.663250 0.293770 0.500000 1.023585
O1    O     O_3   0.249990 0.250010 0.000000 -0.516410
O2    O     O_3   0.249990 0.749990 0.000000 -0.517278
O3    O     O_3   0.749990 0.750010 0.500000 -0.518060
O4    O     O_3   0.749990 0.249990 0.500000 -0.521158
O5    O     O_R   0.335430 0.280650 0.146160 -0.662119
O6    O     O_R   0.335430 0.719350 0.853840 -0.631948
O7    O     O_R   0.335430 0.719350 0.146160 -0.654517
O8    O     O_R   0.335430 0.280650 0.853840 -0.650848
O9    O     O_R   0.835430 0.780650 0.646160 -0.642859
O10   O     O_R   0.835430 0.219350 0.353840 -0.625118
O11   O     O_R   0.835430 0.219350 0.646160 -0.622267
O12   O     O_R   0.835430 0.780650 0.353840 -0.662598
O13   O     O_R   0.164550 0.280640 0.853840 -0.600349
O14   O     O_R   0.164550 0.719360 0.146160 -0.599234
O15   O     O_R   0.164550 0.719360 0.853840 -0.592702
O16   O     O_R   0.164550 0.280640 0.146160 -0.583346
O17   O     O_R   0.664550 0.780640 0.353840 -0.623981
O18   O     O_R   0.664550 0.219360 0.646160 -0.568111
O19   O     O_R   0.664550 0.219360 0.353840 -0.590369
O20   O     O_R   0.664550 0.780640 0.646160 -0.584504
O21   O     O_R   0.396160 0.219380 0.914560 -0.637168
O22   O     O_R   0.396160 0.780620 0.085440 -0.582326
O23   O     O_R   0.396160 0.780620 0.914560 -0.631075
O24   O     O_R   0.396160 0.219380 0.085440 -0.578865
O25   O     O_R   0.896160 0.719380 0.414560 -0.589970
O26   O     O_R   0.896160 0.280620 0.585440 -0.593692
O27   O     O_R   0.896160 0.280620 0.414560 -0.633780
O28   O     O_R   0.896160 0.719380 0.585440 -0.631846
O29   O     O_R   0.103840 0.219370 0.085450 -0.645083
O30   O     O_R   0.103840 0.780630 0.914550 -0.642517
O31   O     O_R   0.103840 0.780630 0.085450 -0.649066
O32   O     O_R   0.103840 0.219370 0.914550 -0.625707
O33   O     O_R   0.603840 0.719370 0.585450 -0.622089
O34   O     O_R   0.603840 0.280630 0.414550 -0.645582
O35   O     O_R   0.603840 0.280630 0.585450 -0.670382
O36   O     O_R   0.603840 0.719370 0.414550 -0.613741
O37   O     O_R   0.310730 0.133160 0.000000 -0.617427
O38   O     O_R   0.310730 0.866840 0.000000 -0.624760
O39   O     O_R   0.810730 0.633160 0.500000 -0.617968
O40   O     O_R   0.810730 0.366840 0.500000 -0.619777
O41   O     O_R   0.249970 0.366860 0.060720 -0.607210
O42   O     O_R   0.249970 0.633140 0.939280 -0.640956
O43   O     O_R   0.249970 0.633140 0.060720 -0.624431
O44   O     O_R   0.249970 0.366860 0.939280 -0.632672
O45   O     O_R   0.749970 0.866860 0.560720 -0.607472
O46   O     O_R   0.749970 0.133140 0.439280 -0.640760
O47   O     O_R   0.749970 0.133140 0.560720 -0.624744
O48   O     O_R   0.749970 0.866860 0.439280 -0.635272
O49   O     O_R   0.189290 0.133150 0.000000 -0.674567
O50   O     O_R   0.189290 0.866850 0.000000 -0.643401
O51   O     O_R   0.689290 0.633150 0.500000 -0.675461
O52   O     O_R   0.689290 0.366850 0.500000 -0.648488
C1    C     C_R   0.389661 0.249796 0.140080 0.791786
C2    C     C_R   0.389746 0.749962 0.860204 0.786496
C3    C     C_R   0.390015 0.749832 0.139616 0.809033
C4    C     C_R   0.389723 0.249808 0.859924 0.760615
C5    C     C_R   0.889870 0.749850 0.639808 0.761242
C6    C     C_R   0.890375 0.249362 0.360695 0.783447
C7    C     C_R   0.890140 0.249528 0.639507 0.788287
C8    C     C_R   0.889637 0.749703 0.359947 0.773552
C9    C     C_R   0.109873 0.250172 0.860593 0.926666
C10   C     C_R   0.110323 0.750311 0.139985 0.921002
C11   C     C_R   0.110453 0.750417 0.859942 0.927453
C12   C     C_R   0.109518 0.250604 0.139031 0.928574
C13   C     C_R   0.609974 0.750321 0.360446 0.924669
C14   C     C_R   0.610445 0.250366 0.640054 0.920488
C15   C     C_R   0.610712 0.250584 0.359757 0.927704
C16   C     C_R   0.609971 0.750055 0.639627 0.926462
C17   C     C_R   0.250115 0.108992 0.009844 0.835169
C18   C     C_R   0.249814 0.890904 0.009983 0.883686
C19   C     C_R   0.750037 0.609053 0.491681 0.843532
C20   C     C_R   0.749627 0.391148 0.507365 0.880054
C21   C     C_R   0.248122 0.391234 0.000107 0.897850
C22   C     C_R   0.247346 0.608867 0.000178 0.877078
C23   C     C_R   0.747486 0.891176 0.500093 0.900407
C24   C     C_R   0.746285 0.108871 0.500164 0.881798
C25   C     C_3   0.218289 0.469981 0.077575 0.066042
C26   C     C_3   0.190958 0.530618 0.938871 0.086698
C27   C     C_3   0.220869 0.530230 0.079150 0.090523
C28   C     C_3   0.193588 0.470067 0.936118 0.060165
C29   C     C_3   0.717106 0.969744 0.577552 0.069410
C30   C     C_3   0.688425 0.030472 0.439275 0.082341
C31   C     C_3   0.719384 0.030056 0.579148 0.089213
C32   C     C_3   0.691323 0.969777 0.436394 0.066449
H1    H     H_    0.261396 0.456947 0.116867 0.120898
H2    H     H_    0.216221 0.543577 0.886500 0.128078
H3    H     H_    0.267574 0.540513 0.115644 0.107367
H4    H     H_    0.223506 0.459927 0.884945 0.114351
H5    H     H_    0.760405 0.956826 0.616709 0.123105
H6    H     H_    0.713006 0.043542 0.386640 0.127945
H7    H     H_    0.766127 0.040470 0.615514 0.113044
H8    H     H_    0.721029 0.959861 0.385019 0.112753
H9    H     H_    0.116388 0.905690 0.083112 0.192421
H10   H     H_    0.118186 0.095336 0.085189 0.168807
H11   H     H_    0.608674 0.419030 0.562444 0.173699
H12   H     H_    0.614441 0.583312 0.425479 0.168556
H13   H     H_    0.359173 0.456739 0.030665 0.208262
H14   H     H_    0.339195 0.543176 0.929927 0.231888
H15   H     H_    0.360631 0.544970 0.025056 0.230329
H16   H     H_    0.343586 0.455018 0.934481 0.219758
H17   H     H_    0.857617 0.957141 0.530183 0.214543
H18   H     H_    0.834798 0.042576 0.428151 0.245117
H19   H     H_    0.858873 0.045228 0.522952 0.257320
H20   H     H_    0.841773 0.954898 0.434052 0.222487
C33   C     C_3   0.321195 0.470115 0.986879 -0.536003
C34   C     C_3   0.320450 0.529904 0.984641 -0.477059
C35   C     C_3   0.819375 0.970130 0.486383 -0.534347
C36   C     C_3   0.818044 0.029775 0.483613 -0.451136
C37   C     C_3   0.242683 0.448866 0.000546 -0.135988
C38   C     C_3   0.242307 0.551371 0.001178 -0.139288
C39   C     C_3   0.741170 0.948712 0.500456 -0.140342
C40   C     C_3   0.740368 0.051281 0.501114 -0.158918
H21   H     H_    0.149143 0.101799 0.703975 0.185539
H22   H     H_    0.926739 0.623179 0.076623 0.209232
H23   H     H_    0.917991 0.632474 0.931924 0.199904
H24   H     H_    0.118165 0.085673 0.263106 0.222499
H25   H     H_    0.719385 0.695477 0.131807 0.189453
H26   H     H_    0.379701 0.200507 0.530185 0.176377
H27   H     H_    0.415856 0.136401 0.435683 0.211434
H28   H     H_    0.625079 0.589130 0.776493 0.225895
C41   C     C_R   0.987536 0.322588 0.867047 0.536071
C42   C     C_R   0.118544 0.821662 0.262707 0.463424
C43   C     C_R   0.126483 0.814026 0.729574 0.494223
C44   C     C_R   0.003163 0.335004 0.149335 0.565358
C45   C     C_R   0.462952 0.788950 0.391975 0.552104
C46   C     C_R   0.644348 0.284564 0.787892 0.509994
C47   C     C_R   0.627162 0.313346 0.228676 0.498497
C48   C     C_R   0.501591 0.833251 0.646519 0.592496
C49   C     C_R   0.930812 0.358936 0.867300 0.683754
C50   C     C_R   0.121872 0.855191 0.322293 0.654495
C51   C     C_R   0.133395 0.843853 0.666413 0.668801
C52   C     C_R   0.952848 0.375516 0.156259 0.710927
C53   C     C_R   0.391558 0.805176 0.406886 0.658452
C54   C     C_R   0.660859 0.297328 0.859959 0.657954
C55   C     C_R   0.633625 0.343467 0.165774 0.673152
C56   C     C_R   0.449822 0.873001 0.651286 0.726174
C57   C     C_R   0.338090 0.802792 0.353219 -0.264582
C58   C     C_R   0.607575 0.294053 0.913550 -0.300347
C59   C     C_R   0.578903 0.342963 0.113149 -0.323679
C60   C     C_R   0.398373 0.873171 0.706970 -0.269997
C61   C     C_R   0.879732 0.359719 0.811157 -0.183140
C62   C     C_R   0.068318 0.853715 0.375993 -0.292296
C63   C     C_R   0.079177 0.842962 0.613264 -0.293931
C64   C     C_R   0.902352 0.375617 0.212787 -0.268420
C65   C     C_R   0.355633 0.784699 0.283934 -0.178559
C66   C     C_R   0.536934 0.278840 0.895503 -0.260564
C67   C     C_R   0.517525 0.311968 0.122458 -0.281467
C68   C     C_R   0.397418 0.833238 0.757823 -0.227114
C69   C     C_R   0.884386 0.323767 0.754854 -0.108548
C70   C     C_R   0.010644 0.818956 0.370462 -0.275391
C71   C     C_R   0.017545 0.812233 0.622658 -0.272102
C72   C     C_R   0.900625 0.334753 0.262115 -0.225290
C73   C     C_R   0.427430 0.767320 0.267092 0.005820
C74   C     C_R   0.518520 0.264494 0.823060 0.020704
C75   C     C_R   0.509131 0.281050 0.185742 0.021660
C76   C     C_R   0.448564 0.791941 0.754064 -0.004122
C77   C     C_R   0.941887 0.286911 0.752482 -0.018108
C78   C     C_R   0.005243 0.784703 0.310376 0.021376
C79   C     C_R   0.008955 0.781335 0.685960 0.019841
C80   C     C_R   0.950270 0.292647 0.256182 0.001799
C81   C     C_R   0.995096 0.286715 0.808582 -0.179627
C82   C     C_R   0.059990 0.785655 0.255736 -0.145066
C83   C     C_R   0.063971 0.782038 0.740406 -0.144952
C84   C     C_R   0.003253 0.292979 0.199828 -0.178327
C85   C     C_R   0.481912 0.768678 0.321984 -0.166098
C86   C     C_R   0.573231 0.266324 0.768479 -0.145006
C87   C     C_R   0.564415 0.281674 0.239925 -0.143594
C88   C     C_R   0.502159 0.791996 0.698282 -0.177460
C89   C     C_R   0.446050 0.750394 0.195964 -0.023081
C90   C     C_R   0.446146 0.250270 0.803916 -0.048033
C91   C     C_R   0.446031 0.250398 0.196188 -0.023427
C92   C     C_R   0.445372 0.750009 0.803552 -0.032416
C93   C     C_R   0.945596 0.249380 0.696497 -0.028574
C94   C     C_R   0.946050 0.749879 0.304038 -0.030286
C95   C     C_R   0.946581 0.749823 0.695477 -0.035367
C96   C     C_R   0.945848 0.249562 0.303698 -0.039943
C97   C     C_R   0.518573 0.735695 0.177998 0.027386
C98   C     C_R   0.427245 0.237901 0.730980 0.026684
C99   C     C_R   0.436127 0.221176 0.260682 0.031287
C100  C     C_R   0.493104 0.707100 0.797142 0.043534
C101  C     C_R   0.999563 0.209975 0.697440 0.030619
C102  C     C_R   0.939997 0.715978 0.243844 0.030998
C103  C     C_R   0.938307 0.718310 0.757954 0.023270
C104  C     C_R   0.991757 0.205761 0.294336 0.027089
C105  C     C_R   0.053833 0.210503 0.752160 0.085569
C106  C     C_R   0.994732 0.716387 0.189657 0.049327
C107  C     C_R   0.992317 0.719412 0.812856 0.051518
C108  C     C_R   0.045763 0.206540 0.239447 0.054466
C109  C     C_R   0.572496 0.735433 0.233002 0.057459
C110  C     C_R   0.482468 0.236843 0.677354 0.068922
C111  C     C_R   0.491665 0.220765 0.314038 0.049555
C112  C     C_R   0.547293 0.707223 0.742435 0.051884
C113  C     C_R   0.052700 0.249843 0.805648 -0.080098
C114  C     C_R   0.054345 0.750876 0.196122 -0.093372
C115  C     C_R   0.054660 0.751012 0.803652 -0.092933
C116  C     C_R   0.052521 0.250567 0.194139 -0.092930
C117  C     C_R   0.553648 0.751193 0.304625 -0.096765
C118  C     C_R   0.554755 0.251109 0.696349 -0.097636
C119  C     C_R   0.554995 0.251047 0.303491 -0.091162
C120  C     C_R   0.552749 0.750185 0.694680 -0.090424
C121  C     C_R   0.538424 0.720659 0.106122 -0.230851
C122  C     C_R   0.354286 0.225927 0.710277 -0.241934
C123  C     C_R   0.371693 0.192182 0.273103 -0.161260
C124  C     C_R   0.488231 0.664084 0.844996 -0.187954
C125  C     C_R   0.000095 0.169559 0.645237 -0.237268
C126  C     C_R   0.880011 0.681699 0.236425 -0.192428
C127  C     C_R   0.877300 0.685164 0.766410 -0.238721
C128  C     C_R   0.985246 0.161053 0.338857 -0.241211
C129  C     C_R   0.610702 0.706986 0.088547 0.366382
C130  C     C_R   0.336327 0.213923 0.637862 0.369271
C131  C     C_R   0.363658 0.161363 0.335736 0.358376
C132  C     C_R   0.535562 0.621481 0.838463 0.372996
C133  C     C_R   0.053143 0.130111 0.647525 0.370719
C134  C     C_R   0.874522 0.647931 0.176633 0.339614
C135  C     C_R   0.869561 0.653714 0.828403 0.364052
C136  C     C_R   0.030041 0.117387 0.327710 0.351666
C137  C     C_R   0.107415 0.131633 0.701183 -0.126400
C138  C     C_R   0.929398 0.648658 0.123426 -0.128375
C139  C     C_R   0.922615 0.656115 0.883338 -0.128890
C140  C     C_R   0.083127 0.118817 0.273128 -0.119619
C141  C     C_R   0.663242 0.705936 0.143831 -0.137388
C142  C     C_R   0.392095 0.210407 0.586180 -0.174884
C143  C     C_R   0.420104 0.160195 0.387218 -0.158842
C144  C     C_R   0.588359 0.621725 0.783330 -0.111007
C145  C     C_R   0.107861 0.171047 0.752797 -0.166745
C146  C     C_R   0.988373 0.682327 0.129539 -0.178964
C147  C     C_R   0.983028 0.688353 0.875866 -0.176863
C148  C     C_R   0.091995 0.162842 0.230688 -0.212824
C149  C     C_R   0.644475 0.719070 0.215037 -0.198995
C150  C     C_R   0.464093 0.221086 0.605510 -0.188307
C151  C     C_R   0.482695 0.189805 0.377173 -0.179819
C152  C     C_R   0.595004 0.664060 0.736728 -0.205642
H29   H     H_    0.282894 0.815762 0.364954 0.237562
H30   H     H_    0.620736 0.304259 0.969254 0.206012
H31   H     H_    0.583922 0.366827 0.064829 0.211370
H32   H     H_    0.358251 0.904056 0.710260 0.240566
H33   H     H_    0.835357 0.387640 0.811924 0.250372
H34   H     H_    0.071268 0.879790 0.422120 0.213928
H35   H     H_    0.084826 0.866237 0.564442 0.208426
H36   H     H_    0.863315 0.407081 0.217719 0.246421
H37   H     H_    0.312283 0.785241 0.243732 0.234744
H38   H     H_    0.497145 0.279147 0.939137 0.178441
H39   H     H_    0.476486 0.312964 0.079813 0.154436
H40   H     H_    0.355229 0.834749 0.799225 0.208343
H41   H     H_    0.841970 0.324829 0.713663 0.233623
H42   H     H_    0.970282 0.819426 0.413712 0.158304
H43   H     H_    0.976885 0.812925 0.579633 0.159740
H44   H     H_    0.858807 0.336196 0.303866 0.209875
H45   H     H_    0.498198 0.719290 0.062884 0.167888
H46   H     H_    0.310327 0.225597 0.749699 0.170470
H47   H     H_    0.327074 0.193507 0.234349 0.182167
H48   H     H_    0.448007 0.663380 0.888263 0.157710
H49   H     H_    0.959094 0.168100 0.602622 0.152515
H50   H     H_    0.837014 0.681012 0.276996 0.170772
H51   H     H_    0.835442 0.683255 0.724681 0.158895
H52   H     H_    0.945273 0.159596 0.382329 0.167819
H53   H     H_    0.151039 0.169995 0.793276 0.121623
H54   H     H_    0.028759 0.681377 0.086335 0.153843
H55   H     H_    0.022596 0.688232 0.919897 0.146468
H56   H     H_    0.135357 0.161699 0.190557 0.158095
H57   H     H_    0.687595 0.716593 0.255383 0.150859
H58   H     H_    0.504737 0.217292 0.562935 0.147220
H59   H     H_    0.524091 0.187800 0.419403 0.153304
H60   H     H_    0.637886 0.662261 0.696083 0.154752
H61   H     H_    0.007230 0.048874 0.109319 0.154904
H62   H     H_    0.006232 0.953602 0.107929 0.153050
H63   H     H_    0.498063 0.542305 0.454003 0.154592
H64   H     H_    0.495246 0.460911 0.525063 0.155002
C153  C     C_R   0.382860 0.052461 0.074026 0.369331
C154  C     C_R   0.381143 0.945307 0.076958 0.356273
C155  C     C_R   0.884305 0.543516 0.456375 0.366951
C156  C     C_R   0.881350 0.456199 0.548043 0.377949
C157  C     C_R   0.448887 0.024848 0.072407 -0.241354
C158  C     C_R   0.448024 0.971389 0.074169 -0.236367
C159  C     C_R   0.949601 0.520275 0.480038 -0.247927
C160  C     C_R   0.948072 0.478706 0.528112 -0.245885
C161  C     C_R   0.316248 0.971789 0.053832 -0.065789
C162  C     C_R   0.316865 0.026973 0.052881 -0.060665
C163  C     C_R   0.815156 0.475580 0.517025 -0.083864
C164  C     C_R   0.816254 0.524450 0.483133 -0.078284
C165  C     C_R   0.249634 0.945627 0.037562 -0.145902
C166  C     C_R   0.250284 0.054077 0.037253 -0.136111
C167  C     C_R   0.748243 0.447955 0.518051 -0.115300
C168  C     C_R   0.749609 0.552542 0.478728 -0.099100
C169  C     C_R   0.183347 0.972716 0.052511 0.088801
C170  C     C_R   0.183775 0.027708 0.052805 0.091998
C171  C     C_R   0.681092 0.475145 0.509810 0.070779
C172  C     C_R   0.682169 0.525831 0.481961 0.070855
C173  C     C_R   0.118386 0.946810 0.073705 -0.082890
C174  C     C_R   0.119377 0.054317 0.074901 -0.120462
C175  C     C_R   0.612588 0.453774 0.529836 -0.097949
C176  C     C_R   0.615498 0.548092 0.457398 -0.090681
C177  C     C_R   0.055014 0.974159 0.091319 -0.130509
C178  C     C_R   0.055553 0.027758 0.092065 -0.140611
C179  C     C_R   0.547159 0.478219 0.510668 -0.138092
C180  C     C_R   0.548701 0.524334 0.471757 -0.134781
H65   H     H_    0.500493 0.044050 0.082508 0.214188
H66   H     H_    0.498999 0.951346 0.085413 0.214374
H67   H     H_    0.002093 0.534624 0.461717 0.215341
H68   H     H_    0.999294 0.463960 0.549679 0.214258
N1    N     N_R   0.050899 0.088052 0.596356 0.225928
O53   O     O_R   0.107162 0.057524 0.588038 -0.290642
O54   O     O_R   0.990770 0.077850 0.561293 -0.376586
N2    N     N_R   0.813451 0.613123 0.169832 0.224862
O55   O     O_R   0.808650 0.581940 0.114277 -0.274155
O56   O     O_R   0.761525 0.612710 0.218466 -0.364575
N3    N     N_R   0.808389 0.619102 0.835034 0.234353
O57   O     O_R   0.797053 0.593755 0.895405 -0.266713
O58   O     O_R   0.764876 0.611278 0.779840 -0.417556
N4    N     N_R   0.021564 0.071609 0.371470 0.232287
O59   O     O_R   0.068286 0.033562 0.366805 -0.299949
O60   O     O_R   0.965659 0.066815 0.414662 -0.390880
N5    N     N_R   0.630721 0.694629 0.014615 0.224536
O61   O     O_R   0.693728 0.673212 0.000172 -0.319411
O62   O     O_R   0.587879 0.707413 0.960718 -0.400099
N6    N     N_R   0.261360 0.206274 0.616745 0.205046
O63   O     O_R   0.245405 0.181889 0.556691 -0.326555
O64   O     O_R   0.208858 0.228147 0.653629 -0.399754
N7    N     N_R   0.298532 0.131217 0.346817 0.239053
O65   O     O_R   0.288825 0.105524 0.407167 -0.275784
O66   O     O_R   0.248736 0.128597 0.296212 -0.376880
N8    N     N_R   0.530537 0.578449 0.888218 0.224849
O67   O     O_R   0.571620 0.537625 0.879506 -0.327742
O68   O     O_R   0.486166 0.580173 0.943754 -0.417895
N9    N     N_R   0.381813 0.100468 0.113886 0.231688
O69   O     O_R   0.323877 0.113409 0.151067 -0.417932
O70   O     O_R   0.442833 0.124577 0.127175 -0.377838
N10   N     N_R   0.378396 0.897822 0.118395 0.230527
O71   O     O_R   0.438939 0.873782 0.135104 -0.374061
O72   O     O_R   0.319147 0.885529 0.153797 -0.348066
N11   N     N_R   0.887544 0.581973 0.399497 0.223001
O73   O     O_R   0.947264 0.608179 0.388548 -0.361491
O74   O     O_R   0.834091 0.586545 0.352932 -0.379092
N12   N     N_R   0.880798 0.418426 0.605831 0.216093
O75   O     O_R   0.939393 0.391481 0.620461 -0.377969
O76   O     O_R   0.825294 0.415901 0.650216 -0.422125
N13   N     N_R   0.149020 0.448047 0.104465 0.277183
O77   O     O_R   0.085952 0.465195 0.081928 -0.166342
O78   O     O_R   0.150348 0.416374 0.159737 -0.327910
N14   N     N_R   0.116922 0.553518 0.939589 0.252072
O79   O     O_R   0.064352 0.534492 0.979032 -0.212732
O80   O     O_R   0.101318 0.590576 0.893943 -0.385489
N15   N     N_R   0.156089 0.553949 0.114231 0.275363
O81   O     O_R   0.118754 0.591067 0.083657 -0.355146
O82   O     O_R   0.143568 0.543879 0.182726 -0.312612
N16   N     N_R   0.121232 0.445860 0.927474 0.276048
O83   O     O_R   0.101395 0.406720 0.967270 -0.202002
O84   O     O_R   0.082941 0.456478 0.869346 -0.301438
N17   N     N_R   0.648057 0.947549 0.604524 0.275714
O85   O     O_R   0.584876 0.963294 0.580403 -0.178408
O86   O     O_R   0.649501 0.916370 0.660351 -0.328684
N18   N     N_R   0.614396 0.053298 0.440839 0.255600
O87   O     O_R   0.562290 0.034198 0.480802 -0.208248
O88   O     O_R   0.598332 0.090528 0.395633 -0.376856
N19   N     N_R   0.654445 0.053546 0.614228 0.274293
O89   O     O_R   0.618127 0.091520 0.584499 -0.340374
O90   O     O_R   0.641419 0.042787 0.682419 -0.317688
N20   N     N_R   0.619029 0.945225 0.427930 0.273484
O91   O     O_R   0.601286 0.903956 0.464471 -0.233830
O92   O     O_R   0.579582 0.957263 0.371127 -0.287967
F1    F     F_    0.032195 0.321391 0.926154 -0.573280
F2    F     F_    0.172807 0.825447 0.212384 -0.656504
F3    F     F_    0.181477 0.817184 0.779279 -0.664665
F4    F     F_    0.049119 0.336693 0.091202 -0.557323
F5    F     F_    0.512886 0.795189 0.446084 -0.575135
F6    F     F_    0.698037 0.292259 0.737923 -0.666401
F7    F     F_    0.682586 0.316173 0.277950 -0.662361
F8    F     F_    0.548941 0.835135 0.589547 -0.551323
F9    F     F_    0.924490 0.392990 0.923291 -0.499604
F10   F     F_    0.177525 0.889570 0.327871 -0.570830
F11   F     F_    0.193285 0.873976 0.656740 -0.592293
F12   F     F_    0.951937 0.414525 0.106723 -0.490783
F13   F     F_    0.374387 0.824150 0.473796 -0.564015
F14   F     F_    0.728964 0.313863 0.877777 -0.620565
F15   F     F_    0.693439 0.373640 0.155963 -0.589088
F16   F     F_    0.448705 0.911295 0.600643 -0.501426

loop_
_geom_bond_atom_site_label_1
_geom_bond_atom_site_label_2
_geom_bond_distance
_ccdc_geom_bond_type
C156  N12   1.439384 S    
C48   C88   1.426191 A    
C32   C39   1.579438 S    
C129  C141  1.394534 A    
C159  C160  1.388876 A    
C21   C37   1.492314 S    
C169  C170  1.421223 A    
C62   C70   1.390779 A    
O26   C7    1.279882 A    
C174  C178  1.391034 A    
C23   C39   1.490902 S    
C75   C87   1.415213 A    
C162  C166  1.428983 A    
C109  C149  1.417751 A    
O30   C11   1.274839 A    
C32   N20   1.475140 S    
C29   N17   1.472791 S    
C159  H67   1.082575 S    
C52   C64   1.386821 A    
C53   C57   1.386497 A    
Zn12  O26   1.932398 S    
C29   C31   1.559688 S    
C56   C60   1.387031 A    
N4    O59   1.301775 A    
C55   C59   1.387900 A    
C29   H5    1.116834 S    
C110  C118  1.415156 A    
C47   C55   1.395309 A    
H26   C142  1.081291 S    
O11   C7    1.275817 A    
C171  C175  1.417846 A    
N18   O87   1.299597 A    
N13   O78   1.301539 A    
O34   C15   1.275311 A    
C87   C119  1.418325 A    
C70   C78   1.416581 A    
H16   C33   1.113614 S    
N3    O57   1.301925 A    
H61   C178  1.082800 S    
Zn1   O44   1.948231 S    
C25   H1    1.116841 S    
N7    O66   1.299932 A    
C59   H31   1.082486 S    
H63   C180  1.082490 S    
C163  C167  1.417824 A    
H23   C139  1.082613 S    
Zn5   O48   1.948231 S    
C57   C65   1.389907 A    
Zn6   O47   1.948234 S    
C41   F1    1.355143 S    
Zn7   O46   1.947510 S    
C127  H51   1.081791 S    
O16   C12   1.279047 A    
C49   C61   1.387849 A    
C171  C172  1.405548 A    
C169  C173  1.418730 A    
H12   C176  1.081493 S    
C108  C116  1.413636 A    
Zn1   O13   1.932817 S    
C22   C38   1.489233 S    
C141  C149  1.390642 A    
C20   C167  1.481336 S    
H18   C36   1.111654 S    
H10   C174  1.076958 S    
C26   C28   1.566206 S    
H24   C140  1.082697 S    
C139  C147  1.391931 A    
Zn4   O16   1.933689 S    
C46   C86   1.428134 A    
H28   C144  1.081679 S    
C31   N19   1.477296 S    
C58   C66   1.389721 A    
Zn6   O4    1.949723 S    
C93   C101  1.413967 A    
C7    C93   1.453719 S    
C136  N4    1.437465 S    
C111  C151  1.415682 A    
C134  N2    1.441114 S    
C31   C40   1.578569 S    
C155  C159  1.400863 A    
C18   C165  1.502102 S    
C170  C174  1.418816 A    
C30   H6    1.116400 S    
Zn10  O22   1.932398 S    
N17   O85   1.298576 A    
O25   C8    1.275405 A    
Zn13  O29   1.934251 S    
C46   C54   1.393949 A    
C135  N3    1.439107 S    
Zn10  O2    1.950642 S    
C151  H59   1.082150 S    
O44   C21   1.280683 A    
C44   C84   1.425935 A    
C63   C71   1.390811 A    
C134  C138  1.398352 A    
O29   C12   1.275654 A    
C45   C85   1.427523 A    
C64   C72   1.389746 A    
N12   O75   1.301533 A    
C43   C83   1.426057 A    
N7    O65   1.301661 A    
C47   F7    1.357701 S    
C66   H38   1.080408 S    
N15   O81   1.300501 A    
O37   C17   1.285883 A    
O48   C23   1.280063 A    
C122  C130  1.401411 A    
C46   F6    1.356728 S    
Zn16  O35   1.935495 S    
C99   C123  1.415966 A    
C35   C36   1.542294 S    
Zn15  O33   1.934251 S    
H11   C175  1.080649 S    
Zn7   O10   1.933644 S    
C52   F12   1.355790 S    
O33   C16   1.275913 A    
C53   F13   1.356755 S    
C132  C144  1.396552 A    
C133  N1    1.436469 S    
C166  C170  1.423897 A    
O40   C20   1.285126 A    
N16   O83   1.299269 A    
C49   F9    1.356566 S    
C106  C146  1.415295 A    
C153  C157  1.398525 A    
C136  C140  1.393477 A    
C82   C114  1.418771 A    
C84   C116  1.418797 A    
N20   O91   1.300980 A    
C122  H46   1.080002 S    
C13   C117  1.449743 S    
Zn6   O11   1.932772 S    
Zn5   O17   1.932817 S    
C102  C106  1.409001 A    
C77   C81   1.413584 A    
C1    C91   1.454085 S    
C2    C92   1.452432 S    
C12   C116  1.450225 S    
C65   C73   1.418010 A    
C70   H42   1.082344 S    
C25   C27   1.558232 S    
C74   C86   1.414608 A    
N5    O62   1.300668 A    
C107  C115  1.413912 A    
H25   C141  1.081768 S    
C3    C89   1.452866 S    
C105  C113  1.412536 A    
H64   C179  1.082514 S    
C27   H3    1.116268 S    
N20   O92   1.301732 A    
N9    O70   1.301762 A    
C32   H8    1.115870 S    
Zn8   O3    1.951166 S    
C97   C109  1.408150 A    
C8    C94   1.452939 S    
N6    O63   1.301610 A    
C61   C69   1.391000 A    
O38   C18   1.285099 A    
C96   C104  1.416149 A    
C58   H30   1.081174 S    
C59   C67   1.390837 A    
O5    C1    1.273528 A    
N3    O58   1.301800 A    
N2    O56   1.301391 A    
O32   C9    1.273649 A    
C100  C112  1.408626 A    
C62   H34   1.082565 S    
C33   C37   1.557604 S    
C161  C162  1.426315 A    
C35   C39   1.555238 S    
C55   F15   1.356638 S    
C104  C108  1.408846 A    
Zn15  O51   1.945513 S    
N14   O80   1.301280 A    
C157  C158  1.382059 A    
Zn11  O28   1.934504 S    
C71   H43   1.082366 S    
C72   H44   1.081536 S    
C26   H2    1.116468 S    
C138  C146  1.391839 A    
N8    O68   1.301476 A    
C68   C76   1.416752 A    
H62   C177  1.082735 S    
C147  H55   1.082356 S    
O8    C4    1.273998 A    
C71   C79   1.416492 A    
C137  C145  1.390296 A    
C72   C80   1.417414 A    
C157  H65   1.082711 S    
C73   C85   1.414413 A    
C90   C98   1.416670 A    
C129  N5    1.438612 S    
C160  H68   1.082589 S    
O50   C18   1.283317 A    
C50   C62   1.387987 A    
C67   H39   1.082210 S    
Zn1   O1    1.949724 S    
Zn13  O1    1.950344 S    
Zn2   O14   1.931578 S    
C48   C56   1.395695 A    
C27   C38   1.578841 S    
C54   F14   1.356299 S    
C173  C177  1.391394 A    
O9    C5    1.276074 A    
O39   C19   1.282670 A    
O36   C13   1.278310 A    
C152  H60   1.081606 S    
C172  C176  1.416962 A    
O13   C9    1.280142 A    
N10   O71   1.301806 A    
C126  C134  1.404663 A    
Zn1   O8    1.931535 S    
Zn2   O7    1.932772 S    
C148  H56   1.080994 S    
C165  C169  1.422325 A    
Zn3   O6    1.933644 S    
N4    O60   1.298101 A    
O18   C14   1.274021 A    
O31   C10   1.274157 A    
C149  H57   1.081056 S    
O6    C2    1.276630 A    
C43   F3    1.357666 S    
C176  C180  1.392912 A    
Zn4   O41   1.947507 S    
C121  C129  1.402341 A    
C42   C82   1.426130 A    
C63   H35   1.082562 S    
N18   O88   1.301261 A    
N13   O77   1.298952 A    
Zn14  O30   1.934756 S    
C11   C115  1.448890 S    
Zn11  O3    1.942547 S    
O41   C21   1.276364 A    
C123  H47   1.080561 S    
C19   C168  1.479813 S    
C156  C160  1.400730 A    
C41   C49   1.395144 A    
C110  C150  1.418259 A    
Zn16  O34   1.934756 S    
C88   C120  1.420025 A    
N19   O89   1.300872 A    
C124  C132  1.401869 A    
C143  C151  1.390345 A    
Zn8   O20   1.933689 S    
C145  H53   1.082079 S    
N1    O54   1.299609 A    
C28   N16   1.472643 S    
C153  C162  1.429140 A    
C67   C75   1.416116 A    
C78   C82   1.415202 A    
C153  N9    1.440079 S    
H20   C35   1.113835 S    
C36   C40   1.554612 S    
C30   C40   1.573367 S    
C109  C117  1.416164 A    
C103  C107  1.408332 A    
Zn8   O9    1.930063 S    
C56   F16   1.355950 S    
C25   N13   1.473096 S    
O15   C11   1.274966 A    
C108  C148  1.416205 A    
C127  C135  1.403435 A    
C158  H66   1.082674 S    
C50   F10   1.356527 S    
C154  C158  1.398319 A    
O7    C3    1.278692 A    
C163  C164  1.407057 A    
O19   C15   1.273734 A    
C177  C178  1.385346 A    
H22   C138  1.082561 S    
Zn9   O24   1.934504 S    
Zn6   O18   1.931578 S    
Zn10  O23   1.934002 S    
C47   C87   1.425876 A    
Zn12  O40   1.945472 S    
C97   C121  1.419763 A    
C66   C74   1.418584 A    
C131  C143  1.396599 A    
O14   C10   1.274982 A    
C74   C90   1.417031 A    
C111  C119  1.412330 A    
Zn15  O36   1.932651 S    
N12   O76   1.301427 A    
O42   C22   1.280310 A    
C4    C90   1.454371 S    
C33   C34   1.545647 S    
C78   C94   1.414189 A    
Zn4   O1    1.951166 S    
C130  N6    1.436629 S    
C155  N11   1.440675 S    
Zn9   O37   1.949525 S    
O12   C8    1.274512 A    
N11   O73   1.301646 A    
Zn11  O39   1.949525 S    
C94   C102  1.413335 A    
C132  N8    1.440504 S    
Zn2   O43   1.948234 S    
O51   C19   1.278836 A    
C95   C103  1.412605 A    
C15   C119  1.447588 S    
C60   H32   1.082735 S    
Zn5   O3    1.949724 S    
C31   H7    1.116228 S    
C101  C125  1.416621 A    
C44   F4    1.356861 S    
C64   H36   1.082792 S    
N17   O86   1.301545 A    
C51   F11   1.356667 S    
N16   O84   1.301712 A    
C27   N15   1.477395 S    
C175  C179  1.393490 A    
C161  C165  1.425546 A    
O28   C5    1.274961 A    
C25   C37   1.576910 S    
Zn3   O42   1.947510 S    
C164  C168  1.416380 A    
C99   C111  1.407820 A    
Zn7   O4    1.951168 S    
O21   C4    1.277285 A    
C125  C133  1.403662 A    
C144  C152  1.392878 A    
C123  C131  1.404195 A    
C167  C171  1.418326 A    
C168  C172  1.415479 A    
C179  C180  1.388518 A    
C130  C142  1.393425 A    
H9    C173  1.077185 S    
Zn2   O2    1.949723 S    
N5    O61   1.301799 A    
Zn14  O2    1.942249 S    
C26   N14   1.473285 S    
C29   C39   1.575571 S    
C51   C63   1.388184 A    
C44   C52   1.395714 A    
C45   C53   1.394758 A    
C98   C122  1.420230 A    
Zn13  O49   1.945513 S    
H19   C36   1.112067 S    
C43   C51   1.395754 A    
Zn12  O4    1.950642 S    
C102  C126  1.418170 A    
N6    O64   1.300561 A    
Zn12  O27   1.934002 S    
C128  C136  1.405871 A    
C79   C95   1.413743 A    
C80   C96   1.415319 A    
C107  C147  1.415988 A    
C69   C77   1.415132 A    
C83   C115  1.419084 A    
C105  C145  1.415642 A    
C155  C164  1.425649 A    
Zn3   O2    1.951168 S    
C156  C163  1.423925 A    
C81   C113  1.417158 A    
C150  H58   1.081034 S    
C41   C81   1.423337 A    
C85   C117  1.419955 A    
Zn15  O3    1.950344 S    
N19   O90   1.301651 A    
O46   C24   1.280955 A    
O47   C24   1.276514 A    
C101  C105  1.409012 A    
Zn16  O52   1.949567 S    
Zn16  O4    1.942249 S    
Zn8   O45   1.947507 S    
O27   C6    1.280219 A    
C112  C120  1.416790 A    
H15   C34   1.113548 S    
C14   C118  1.448668 S    
C133  C137  1.395869 A    
C142  C150  1.390028 A    
C106  C114  1.414748 A    
C24   C40   1.492792 S    
C100  C124  1.418256 A    
C26   C38   1.572568 S    
C98   C110  1.408265 A    
O24   C1    1.278335 A    
C128  H52   1.081201 S    
C104  C128  1.419111 A    
C146  H54   1.082193 S    
C79   C83   1.415135 A    
C57   H29   1.082374 S    
C154  C161  1.429452 A    
H21   C137  1.082669 S    
O43   C22   1.275439 A    
C126  H50   1.081512 S    
C34   C38   1.558486 S    
Zn3   O15   1.930105 S    
C61   H33   1.082646 S    
N11   O74   1.300597 A    
Zn5   O12   1.931535 S    
C76   C88   1.415171 A    
C17   C166  1.504992 S    
C80   C84   1.415140 A    
C45   F5    1.356363 S    
Zn9   O21   1.935245 S    
Zn14  O50   1.949567 S    
H13   C33   1.113642 S    
N15   O82   1.301681 A    
O35   C14   1.274496 A    
C92   C100  1.412362 A    
C5    C95   1.452688 S    
C112  C152  1.416256 A    
C6    C96   1.455030 S    
Zn9   O1    1.942547 S    
N10   O72   1.302001 A    
C68   H40   1.081872 S    
O52   C20   1.277518 A    
C121  H45   1.080420 S    
C69   H41   1.081065 S    
C154  N10   1.443483 S    
C124  H48   1.081008 S    
C125  H49   1.081928 S    
C65   H37   1.080715 S    
C10   C114  1.450274 S    
O22   C3    1.276717 A    
C91   C99   1.413713 A    
Zn7   O19   1.930105 S    
O20   C16   1.280226 A    
C89   C97   1.414997 A    
Zn13  O32   1.932651 S    
C135  C139  1.397829 A    
O49   C17   1.284136 A    
Zn14  O31   1.935495 S    
C9    C113  1.449542 S    
C30   C32   1.570156 S    
C75   C91   1.414001 A    
C42   C50   1.395535 A    
N2    O55   1.301654 A    
C140  C148  1.387567 A    
C28   H4    1.115964 S    
H17   C35   1.113800 S    
C73   C89   1.415749 A    
Zn4   O5    1.930063 S    
C48   F8    1.356527 S    
C76   C92   1.413666 A    
C77   C93   1.413483 A    
N14   O79   1.299784 A    
O10   C6    1.276909 A    
O23   C2    1.278500 A    
H27   C143  1.082507 S    
C28   C37   1.577821 S    
Zn11  O25   1.935245 S    
N1    O53   1.301595 A    
Zn10  O38   1.945472 S    
C30   N18   1.472644 S    
H14   C34   1.113583 S    
O45   C23   1.276194 A    
C103  C127  1.416623 A    
C60   C68   1.389797 A    
N8    O67   1.301783 A    
C54   C58   1.385277 A    
C86   C118  1.419598 A    
N9    O69   1.301049 A    
O17   C13   1.276068 A    
C16   C120  1.452461 S    
C131  N7    1.438823 S    
C42   F2    1.357411 S    
