data_mof_unit_52552.cif
_audit_creation_date              2012-12-11T16:24:01-0500
_audit_creation_method            fapswitch 2.2
_symmetry_space_group_name_H-M    P1
_symmetry_Int_Tables_number       1
_space_group_crystal_system       triclinic
_cell_length_a                    14.745317
_cell_length_b                    14.765989
_cell_length_c                    33.272364
_cell_angle_alpha                 96.045249
_cell_angle_beta                  96.150234
_cell_angle_gamma                 61.178055
_cell_volume                      6298.4307411

loop_
_atom_site_label
_atom_site_type_symbol
_atom_type_description
_atom_site_fract_x
_atom_site_fract_y
_atom_site_fract_z
_atom_type_partial_charge
C1    C     C_R   0.391016 0.699545 0.446099 0.547483
C2    C     C_R   0.331581 0.348262 0.308586 0.038280
C3    C     C_R   0.412991 0.265359 0.328306 -0.103186
C4    C     C_R   0.432309 0.274260 0.370091 -0.121454
C5    C     C_R   0.398898 0.256142 0.165090 0.114688
C6    C     C_R   0.387586 0.238227 0.123038 -0.100864
C7    C     C_R   0.209035 0.375145 0.122248 -0.128883
C8    C     C_R   0.219567 0.392966 0.164003 -0.135769
C9    C     C_R   0.312835 0.331572 0.185581 0.066995
C10   C     C_1   0.316986 0.340420 0.228962 0.018033
C11   C     C_1   0.321935 0.344705 0.265298 -0.005103
C12   C     C_R   0.405892 0.386379 0.433983 0.545588
C13   C     C_R   0.291638 0.294830 0.101639 -0.002351
C14   C     C_R   0.753484 0.375247 0.409363 0.022445
C15   C     C_R   0.773280 0.443647 0.390190 -0.125527
C16   C     C_R   0.797297 0.423712 0.349848 -0.116127
C17   C     C_R   0.803534 0.334367 0.328179 0.037323
C18   C     C_R   0.793995 0.260878 0.348332 -0.116650
C19   C     C_R   0.768545 0.281446 0.388682 -0.128613
C20   C     C_R   0.818239 0.306423 0.202396 0.359924
C21   C     C_R   0.810457 0.323435 0.284122 0.333084
C22   C     C_R   0.822584 0.386303 0.141234 -0.129333
C23   C     C_R   0.700461 0.410207 0.447404 0.544344
C24   C     C_R   0.855964 0.379623 0.102678 0.084259
C25   C     C_R   0.902814 0.197178 0.096363 -0.124951
C26   C     C_R   0.868076 0.204320 0.134525 0.157431
C27   C     C_R   0.833733 0.298303 0.158601 0.019349
C28   C     C_R   0.902947 0.282249 0.081068 0.012187
C29   C     C_R   0.371114 0.754352 0.409055 0.023435
C30   C     C_R   0.276818 0.784555 0.385921 -0.127722
C31   C     C_R   0.266660 0.812563 0.346391 -0.116829
C32   C     C_R   0.350513 0.811106 0.329358 0.034800
C33   C     C_R   0.441376 0.790361 0.353742 -0.116875
C34   C     C_R   0.393382 0.701380 0.561245 0.545421
C35   C     C_R   0.451628 0.762146 0.393317 -0.126420
C36   C     C_R   0.343192 0.828747 0.204341 0.349023
C37   C     C_R   0.346245 0.821699 0.285608 0.347000
C38   C     C_R   0.257504 0.832873 0.135368 -0.103912
C39   C     C_R   0.237898 0.863347 0.095821 -0.115948
C40   C     C_R   0.381903 0.900970 0.104758 -0.128769
C41   C     C_R   0.401614 0.870313 0.144369 -0.116273
C42   C     C_R   0.336363 0.840821 0.160595 0.031744
C43   C     C_R   0.296699 0.902486 0.080855 0.018209
C44   C     C_R   0.366062 0.368022 0.583663 -0.004030
C45   C     C_R   0.406719 0.388400 0.548816 0.568068
C46   C     C_R   0.277064 0.449771 0.600536 -0.128298
C47   C     C_R   0.246998 0.443460 0.638008 0.157698
C48   C     C_R   0.307099 0.353875 0.659659 0.010180
C49   C     C_R   0.388948 0.268098 0.640810 -0.116352
C50   C     C_R   0.418620 0.273887 0.603190 0.149383
C51   C     C_R   0.296381 0.338946 0.783671 0.337230
C52   C     C_R   0.294106 0.349677 0.702698 0.367935
C53   C     C_R   0.224694 0.410095 0.851447 -0.083796
C54   C     C_R   0.218580 0.394598 0.891658 0.149501
C55   C     C_R   0.370377 0.225150 0.884900 -0.156180
C56   C     C_R   0.701321 0.413602 0.562683 0.542212
C57   C     C_R   0.374947 0.240856 0.845003 -0.131618
C58   C     C_R   0.299520 0.331232 0.827440 0.004593
C59   C     C_R   0.288886 0.298564 0.908093 0.033259
C60   C     C_R   0.754319 0.380378 0.602868 0.014353
C61   C     C_R   0.779664 0.446903 0.629299 -0.116074
C62   C     C_R   0.808385 0.426303 0.670053 -0.100414
C63   C     C_R   0.812541 0.338958 0.684761 0.035834
C64   C     C_R   0.793678 0.269059 0.658246 -0.103257
C65   C     C_R   0.765017 0.289387 0.617484 -0.115072
C66   C     C_R   0.887244 0.212546 0.822681 -0.108641
C67   C     C_R   0.370497 0.366636 0.392464 0.021192
C68   C     C_R   0.914373 0.201337 0.864096 -0.125298
C69   C     C_R   0.872868 0.382083 0.873312 -0.110946
C70   C     C_R   0.845620 0.393078 0.831958 -0.103484
C71   C     C_R   0.855654 0.307661 0.806452 0.038797
C72   C     C_1   0.840404 0.316349 0.763434 -0.014532
C73   C     C_1   0.828670 0.325322 0.727464 -0.014660
C74   C     C_R   0.910839 0.285193 0.889601 0.017330
C75   C     C_R   0.375881 0.755199 0.601917 0.018213
C76   C     C_R   0.280661 0.789646 0.619104 -0.112647
C77   C     C_R   0.270969 0.819206 0.660302 -0.095260
C78   C     C_R   0.284256 0.446672 0.372695 -0.122975
C79   C     C_R   0.356000 0.815071 0.684723 0.039373
C80   C     C_R   0.449085 0.787127 0.667502 -0.104179
C81   C     C_R   0.458982 0.757671 0.626241 -0.117684
C82   C     C_R   0.395465 0.887269 0.832384 -0.109239
C83   C     C_R   0.375926 0.914328 0.873238 -0.124978
C84   C     C_R   0.229025 0.880979 0.862874 -0.120665
C85   C     C_R   0.248899 0.853776 0.822062 -0.105538
C86   C     C_R   0.330344 0.859603 0.806592 0.039542
C87   C     C_1   0.342418 0.843813 0.763830 -0.012320
C88   C     C_1   0.349615 0.831644 0.727786 -0.010646
C89   C     C_R   0.265238 0.437569 0.330881 -0.110456
C90   C     C_R   0.290429 0.914637 0.888621 0.020043
C91   C     C_R   0.962669 0.264531 0.045410 0.554246
C92   C     C_R   0.272773 0.259566 0.059997 0.546710
C93   C     C_R   0.259212 0.959620 0.043769 0.547928
C94   C     C_R   0.962744 0.267600 0.930696 0.537725
C95   C     C_R   0.270884 0.263992 0.945178 0.566110
C96   C     C_R   0.256139 0.965150 0.928922 0.543987
Cr1   Cr    Cr6+3 0.576280 0.580550 0.506370 1.032140
Cr2   Cr    Cr6+3 0.346780 0.572400 0.496520 1.025631
Cr3   Cr    Cr6+3 0.576960 0.347070 0.497150 1.059689
Cr4   Cr    Cr6+3 0.087320 0.083240 0.984860 1.029570
Cr5   Cr    Cr6+3 0.087720 0.316210 0.996740 1.090103
Cr6   Cr    Cr6+3 0.317350 0.090340 0.995890 1.022526
H1    H     H_    0.452097 0.176674 0.107428 0.134571
H2    H     H_    0.754338 0.227028 0.402798 0.131420
H3    H     H_    0.806494 0.480525 0.335101 0.136139
H4    H     H_    0.799282 0.190990 0.332229 0.138923
H5    H     H_    0.792215 0.460271 0.158424 0.143722
H6    H     H_    0.934533 0.122769 0.079444 0.166847
H7    H     H_    0.212975 0.780425 0.397401 0.134435
H8    H     H_    0.525055 0.739963 0.410557 0.133810
H9    H     H_    0.172519 0.862370 0.077911 0.149862
H10   H     H_    0.194817 0.830296 0.328581 0.142636
H11   H     H_    0.506868 0.789879 0.341589 0.139028
H12   H     H_    0.207206 0.808379 0.146774 0.154557
H13   H     H_    0.429076 0.930059 0.093910 0.137219
H14   H     H_    0.463857 0.875942 0.162948 0.145292
H15   H     H_    0.232514 0.521384 0.585444 0.168574
H16   H     H_    0.434205 0.197121 0.656244 0.173683
H17   H     H_    0.464473 0.195794 0.311157 0.132733
H18   H     H_    0.167653 0.481654 0.838419 0.164322
H19   H     H_    0.427022 0.151439 0.896466 0.141472
H20   H     H_    0.435415 0.180084 0.827380 0.142214
H21   H     H_    0.943931 0.125572 0.875619 0.133704
H22   H     H_    0.895035 0.146038 0.803114 0.118923
H23   H     H_    0.796961 0.201106 0.669386 0.130486
H24   H     H_    0.745871 0.236668 0.597981 0.159958
H25   H     H_    0.771876 0.517704 0.619070 0.143373
H26   H     H_    0.820867 0.467120 0.819631 0.123465
H27   H     H_    0.869354 0.448076 0.892100 0.155843
H28   H     H_    0.499203 0.211292 0.384414 0.136760
H29   H     H_    0.823135 0.480725 0.690413 0.130600
H30   H     H_    0.424405 0.940334 0.892184 0.129482
H31   H     H_    0.458805 0.891815 0.820625 0.117632
H32   H     H_    0.515281 0.783829 0.686242 0.121262
H33   H     H_    0.533468 0.731086 0.613993 0.137873
H34   H     H_    0.215288 0.788583 0.601229 0.145498
H35   H     H_    0.198262 0.832133 0.802251 0.128379
H36   H     H_    0.162531 0.880631 0.873725 0.139232
H37   H     H_    0.198522 0.840984 0.673428 0.133294
H38   H     H_    0.235289 0.518835 0.389045 0.132040
H39   H     H_    0.153337 0.451482 0.179725 0.126843
H40   H     H_    0.134170 0.420013 0.106594 0.156757
H41   H     H_    0.201854 0.501964 0.315750 0.119021
H42   H     H_    0.763170 0.516182 0.405385 0.135554
N1    N     N_R   0.777379 0.400624 0.222864 -0.240704
N2    N     N_R   0.253149 0.437205 0.727496 -0.149329
N3    N     N_R   0.335792 0.256761 0.719292 -0.237237
N4    N     N_R   0.336702 0.251513 0.758933 -0.226790
N5    N     N_R   0.773385 0.409011 0.262840 -0.225592
N6    N     N_R   0.850257 0.229093 0.263862 -0.211527
N7    N     N_R   0.855026 0.220890 0.223826 -0.141836
N8    N     N_R   0.266336 0.823043 0.221098 -0.211846
N9    N     N_R   0.268018 0.819226 0.260890 -0.219585
N10   N     N_R   0.423442 0.827072 0.268890 -0.224508
N11   N     N_R   0.421580 0.831237 0.229031 -0.222935
N12   N     N_R   0.253218 0.432127 0.767208 -0.215222
O1    O     O_R   0.679450 0.499830 0.463150 -0.516796
O2    O     O_R   0.356040 0.477400 0.534170 -0.513970
O3    O     O_R   0.495910 0.323070 0.537100 -0.450517
O4    O     O_R   0.663920 0.359620 0.542290 -0.495762
O5    O     O_3   0.500010 0.500010 0.500010 -0.249421
O6    O     O_R   0.170070 0.978950 0.027680 -0.510873
O7    O     O_R   0.001760 0.175230 0.026640 -0.512786
O8    O     O_R   0.984760 0.333570 0.037150 -0.471168
O9    O     O_R   0.183410 0.309240 0.041890 -0.491678
O10   O     O_R   0.340240 0.172500 0.045430 -0.517685
O11   O     O_R   0.309670 0.000990 0.032050 -0.501638
O12   O     O_R   0.480650 0.664000 0.464630 -0.499651
O13   O     O_R   0.168330 0.982130 0.939200 -0.513868
O14   O     O_R   0.000140 0.178170 0.944610 -0.505978
O15   O     O_R   0.983010 0.336750 0.948660 -0.493319
O16   O     O_R   0.181800 0.312190 0.959860 -0.445497
O17   O     O_R   0.338500 0.175680 0.956950 -0.530608
O18   O     O_R   0.308050 0.003930 0.950020 -0.503834
O19   O     O_3   0.164130 0.163270 0.992500 -0.254303
O20   O     O_R   0.323930 0.675950 0.455370 -0.518262
O21   O     O_R   0.354700 0.475360 0.451930 -0.503400
O22   O     O_R   0.494470 0.320860 0.448390 -0.511042
O23   O     O_R   0.662580 0.357570 0.460050 -0.502126
O24   O     O_R   0.680900 0.502040 0.551870 -0.514935
O25   O     O_R   0.481990 0.666040 0.546870 -0.498968
O26   O     O_R   0.325370 0.678160 0.544080 -0.514213
N13   N     N_3   0.845577 0.470619 0.086193 -0.586797
H43   H     H_    0.814843 0.534591 0.106993 0.225211
H44   H     H_    0.791531 0.487494 0.061312 0.235987
Br1   Br    Br    0.871252 0.081776 0.150988 -0.482834
N14   N     N_3   0.495346 0.194679 0.187377 -0.608405
H45   H     H_    0.525365 0.243994 0.199153 0.247148
H46   H     H_    0.549492 0.139198 0.167981 0.244037
Br2   Br    Br    0.533313 0.150427 0.581814 -0.490824
Br3   Br    Br    0.111044 0.506536 0.921422 -0.497326
Br4   Br    Br    0.123134 0.560056 0.657222 -0.485578

loop_
_geom_bond_atom_site_label_1
_geom_bond_atom_site_label_2
_ccdc_geom_bond_type
C66   C68   A    
C87   C88   T    
C55   H19   S    
C1    O20   A    
Cr6   O11   S    
Cr3   O3    S    
C41   C42   A    
C74   C94   S    
C36   C42   S    
N3    N4    A    
C45   O3    A    
N13   H43   S    
C76   H34   S    
C53   H18   S    
C7    C8    A    
C31   C32   A    
C85   C86   A    
C25   C28   A    
C5    C9    A    
C26   C27   A    
C62   C63   A    
C96   O18   A    
C34   O25   A    
C93   O6    A    
C38   C42   A    
C55   C59   A    
N13   H44   S    
C56   O24   A    
C5    C6    A    
C38   H12   S    
C40   H13   S    
C68   C74   A    
C15   C16   A    
C80   H32   S    
Cr5   O16   S    
C18   C19   A    
C47   Br4   S    
C44   C50   A    
C43   C93   S    
C57   H20   S    
Cr3   O5    S    
C77   H37   S    
C92   O9    A    
C40   C43   A    
Cr2   O2    S    
C16   C17   A    
C31   H10   S    
Cr5   O15   S    
C70   C71   A    
C21   N5    A    
Cr4   O7    S    
C95   O16   A    
C23   O23   A    
C64   H23   S    
C34   C75   S    
C39   H9    S    
C12   O21   A    
C84   H36   S    
Cr6   O10   S    
Cr3   O4    S    
C63   C64   A    
C24   N13   S    
C91   O7    A    
C61   C62   A    
C67   C78   A    
C59   C95   S    
C2    C11   S    
C37   N10   A    
C68   H21   S    
C79   C88   S    
C44   C46   A    
C81   H33   S    
C54   C59   A    
C77   C79   A    
C78   C89   A    
C38   C39   A    
C12   C67   S    
C51   N12   A    
C32   C37   S    
C54   Br3   S    
C30   H7    S    
Cr4   O14   S    
Cr1   O25   S    
C80   C81   A    
C37   N9    A    
C76   C77   A    
Cr3   O22   S    
C86   C87   S    
C8    C9    A    
Cr1   O24   S    
C4    H28   S    
C63   C73   S    
C1    O12   A    
C25   C26   A    
C53   C54   A    
C17   C21   S    
C56   C60   S    
C46   H15   S    
C60   C61   A    
Cr6   O17   S    
Cr1   O1    S    
C14   C23   S    
Cr2   O26   S    
C2    C89   A    
C75   C76   A    
C18   H4    S    
C66   C71   A    
Cr3   O23   S    
C29   C30   A    
C94   O15   A    
Cr2   O20   S    
C19   H2    S    
C47   C48   A    
C7    C13   A    
Cr4   O19   S    
C1    C29   S    
C17   C18   A    
C69   C74   A    
C61   H25   S    
C51   C58   S    
C6    H1    S    
C84   C85   A    
Cr2   O21   S    
Cr5   O9    S    
N10   N11   A    
C8    H39   S    
C35   H8    S    
C3    H17   S    
C16   H3    S    
C15   H42   S    
C40   C41   A    
C60   C65   A    
C49   C50   A    
C52   N3    A    
Cr1   O5    S    
C22   C27   A    
C55   C57   A    
C13   C92   S    
C36   N11   A    
C66   H22   S    
C91   O8    A    
Cr5   O19   S    
C5    N14   S    
C41   H14   S    
C3    C4    A    
C85   H35   S    
Cr2   O5    S    
C44   C45   S    
C9    C10   S    
C84   C90   A    
C70   H26   S    
C83   C90   A    
C46   C47   A    
C48   C49   A    
C52   N2    A    
Cr4   O13   S    
C14   C15   A    
C62   H29   S    
Cr5   O8    S    
C36   N8    A    
C45   O2    A    
C24   C28   A    
C72   C73   T    
C78   H38   S    
C4    C67   A    
C39   C43   A    
C53   C58   A    
C90   C96   S    
C20   C27   S    
C75   C81   A    
Cr6   O18   S    
Cr1   O12   S    
C29   C35   A    
C33   H11   S    
N6    N7    A    
C20   N7    A    
C96   O13   A    
C71   C72   S    
C65   H24   S    
C82   H31   S    
C2    C3    A    
Cr6   O19   S    
C83   H30   S    
C56   O4    A    
C89   H41   S    
C32   C33   A    
C6    C13   A    
C82   C86   A    
C26   Br1   S    
C21   N6    A    
C57   C58   A    
C30   C31   A    
C51   N4    A    
C23   O1    A    
C64   C65   A    
C14   C19   A    
C33   C35   A    
C34   O26   A    
C28   C91   S    
C22   C24   A    
C95   O17   A    
C69   C70   A    
C50   Br2   S    
N1    N5    A    
N14   H46   S    
C10   C11   T    
C79   C80   A    
C49   H16   S    
C92   O10   A    
C48   C52   S    
N2    N12   A    
N8    N9    A    
C93   O11   A    
C69   H27   S    
C82   C83   A    
C20   N1    A    
N14   H45   S    
Cr4   O6    S    
C12   O22   A    
C7    H40   S    
C94   O14   A    
C22   H5    S    
C25   H6    S    
