data_mof_unit_57837.cif
_audit_creation_date              2012-12-10T20:53:17-0500
_audit_creation_method            fapswitch 2.2
_symmetry_space_group_name_H-M    P1
_symmetry_Int_Tables_number       1
_space_group_crystal_system       triclinic
_cell_length_a                    15.856252
_cell_length_b                    15.076244
_cell_length_c                    10.744669
_cell_angle_alpha                 90.005077
_cell_angle_beta                  90.04237
_cell_angle_gamma                 90.001004
_cell_volume                      2568.54168097

loop_
_atom_site_label
_atom_site_type_symbol
_atom_type_description
_atom_site_fract_x
_atom_site_fract_y
_atom_site_fract_z
_atom_type_partial_charge
C1    C     C_R   0.339045 0.499963 0.499968 0.911582
C2    C     C_R   0.660955 0.499964 0.500030 0.911418
C3    C     C_R   0.458294 0.953668 0.404258 0.015425
C4    C     C_R   0.541706 0.953682 0.595736 0.015433
C5    C     C_R   0.500000 0.905230 0.499997 -0.030439
C6    C     C_R   0.541574 0.047687 0.593807 -0.223707
C7    C     C_R   0.458429 0.047674 0.406184 -0.223697
C8    C     C_R   0.500002 0.095302 0.499995 0.053624
C9    C     C_1   0.500000 0.807053 0.500000 0.053770
C10   C     C_1   0.500001 0.192942 0.499997 0.052647
C11   C     C_R   0.496703 0.499874 0.262110 0.790378
C12   C     C_R   0.503330 0.499883 0.737888 0.790382
C13   C     C_2   0.496292 0.427026 0.933478 -0.286174
C14   C     C_2   0.504147 0.427063 0.066520 -0.286110
C15   C     C_2   0.517193 0.499085 0.868316 0.562019
C16   C     C_2   0.482951 0.499044 0.131664 0.561975
C17   C     C_R   0.955787 0.581351 0.499837 -0.058277
C18   C     C_R   0.044217 0.581349 0.500114 -0.058276
C19   C     C_R   0.912831 0.499596 0.500456 0.031689
C20   C     C_R   0.087168 0.499593 0.499457 0.031695
C21   C     C_R   0.955807 0.417865 0.500608 -0.060001
C22   C     C_R   0.044187 0.417863 0.499251 -0.059997
C23   C     C_1   0.823620 0.499614 0.500613 -0.034414
C24   C     C_1   0.176379 0.499609 0.499330 -0.034399
C25   C     C_1   0.251016 0.499819 0.499555 -0.166805
C26   C     C_1   0.748984 0.499824 0.500417 -0.166803
H1    H     H_    0.472703 0.367131 0.889163 0.139657
H2    H     H_    0.527925 0.367268 0.110866 0.139579
H3    H     H_    0.426635 0.084042 0.332825 0.137269
H4    H     H_    0.573367 0.084066 0.667166 0.137261
N1    N     N_1   0.500000 0.270550 0.500000 -0.086915
N2    N     N_1   0.500000 0.729450 0.500000 -0.080470
O1    O     O_R   0.378020 0.573650 0.500040 -0.602340
O2    O     O_R   0.621980 0.573650 0.499960 -0.602369
O3    O     O_R   0.378020 0.426320 0.500100 -0.606053
O4    O     O_R   0.621980 0.426320 0.499900 -0.606104
O5    O     O_R   0.500000 0.573650 0.319080 -0.577111
O6    O     O_R   0.500000 0.573650 0.680920 -0.577024
O7    O     O_R   0.500000 0.426320 0.319140 -0.655254
O8    O     O_R   0.500000 0.426320 0.680860 -0.655294
Zn1   Zn    Zn3+2 0.500000 0.598370 0.500000 1.017367
Zn2   Zn    Zn3+2 0.500000 0.401630 0.500000 0.967631
F1    F     F_    0.556821 0.570201 0.920520 -0.654454
F2    F     F_    0.443121 0.570016 0.079431 -0.654453
C27   C     C_R   0.091827 0.666536 0.499126 0.135721
C28   C     C_R   0.141868 0.690789 0.601636 -0.155603
C29   C     C_R   0.186214 0.770954 0.600866 -0.131372
C30   C     C_R   0.180409 0.827696 0.498388 -0.096319
C31   C     C_R   0.130475 0.804197 0.396328 -0.122005
C32   C     C_R   0.086614 0.723748 0.396232 -0.130344
H5    H     H_    0.146256 0.647706 0.682038 0.128203
H6    H     H_    0.224802 0.789258 0.679940 0.126475
H7    H     H_    0.214390 0.889950 0.498281 0.117959
H8    H     H_    0.125570 0.848380 0.317360 0.119685
H9    H     H_    0.048423 0.706108 0.316370 0.122727
C33   C     C_R   0.908182 0.666539 0.500869 0.135723
C34   C     C_R   0.858137 0.690805 0.398375 -0.155597
C35   C     C_R   0.813796 0.770971 0.399184 -0.131381
C36   C     C_R   0.819609 0.827702 0.501688 -0.096305
C37   C     C_R   0.869545 0.804189 0.603735 -0.122010
C38   C     C_R   0.913401 0.723739 0.603791 -0.130356
H10   H     H_    0.853743 0.647730 0.317954 0.128193
H11   H     H_    0.775207 0.789286 0.320122 0.126465
H12   H     H_    0.785633 0.889958 0.501825 0.117953
H13   H     H_    0.874454 0.848363 0.682724 0.119681
H14   H     H_    0.951593 0.706088 0.683642 0.122728
C39   C     C_R   0.908240 0.332705 0.500167 0.137994
C40   C     C_R   0.910673 0.276845 0.395611 -0.132722
C41   C     C_R   0.865982 0.196860 0.395549 -0.133543
C42   C     C_R   0.818469 0.172266 0.499523 -0.109734
C43   C     C_R   0.815708 0.227563 0.603850 -0.132393
C44   C     C_R   0.860504 0.307473 0.604439 -0.151847
H15   H     H_    0.947014 0.295378 0.314362 0.122407
H16   H     H_    0.868080 0.153993 0.314808 0.124889
H17   H     H_    0.783809 0.110393 0.499275 0.116310
H18   H     H_    0.778918 0.208447 0.684310 0.124986
H19   H     H_    0.858185 0.349642 0.685977 0.126913
C45   C     C_R   0.091749 0.332702 0.499638 0.137985
C46   C     C_R   0.089300 0.276813 0.604151 -0.132709
C47   C     C_R   0.133983 0.196825 0.604158 -0.133522
C48   C     C_R   0.181502 0.172255 0.500171 -0.109733
C49   C     C_R   0.184279 0.227580 0.395888 -0.132390
C50   C     C_R   0.139492 0.307494 0.395355 -0.151838
H20   H     H_    0.052954 0.295327 0.685408 0.122406
H21   H     H_    0.131872 0.153936 0.684865 0.124891
H22   H     H_    0.216154 0.110378 0.500377 0.116291
H23   H     H_    0.221074 0.208482 0.315419 0.125007
H24   H     H_    0.141822 0.349685 0.313849 0.126935
C51   C     C_R   0.413575 0.908169 0.300750 0.114988
C52   C     C_R   0.329679 0.930760 0.272277 -0.165992
C53   C     C_R   0.287627 0.888983 0.174004 -0.144663
C54   C     C_R   0.328672 0.824196 0.103593 -0.100972
C55   C     C_R   0.412174 0.801769 0.130446 -0.085051
C56   C     C_R   0.454850 0.844037 0.227690 -0.144123
H25   H     H_    0.296686 0.980388 0.326510 0.112744
H26   H     H_    0.223153 0.906823 0.152441 0.118463
H27   H     H_    0.295912 0.791661 0.027875 0.130637
H28   H     H_    0.443919 0.751826 0.075575 0.189599
H29   H     H_    0.520143 0.827111 0.245341 0.129024
C57   C     C_R   0.586414 0.908200 0.699254 0.114974
C58   C     C_R   0.670313 0.930785 0.727729 -0.166006
C59   C     C_R   0.712352 0.889027 0.826017 -0.144669
C60   C     C_R   0.671288 0.824271 0.896445 -0.100986
C61   C     C_R   0.587781 0.801853 0.869592 -0.084955
C62   C     C_R   0.545121 0.844098 0.772327 -0.144105
H30   H     H_    0.703317 0.980394 0.673489 0.112751
H31   H     H_    0.776829 0.906861 0.847581 0.118464
H32   H     H_    0.704037 0.791753 0.972176 0.130623
H33   H     H_    0.556020 0.751938 0.924481 0.189563
H34   H     H_    0.479823 0.827181 0.754675 0.129025

loop_
_geom_bond_atom_site_label_1
_geom_bond_atom_site_label_2
_ccdc_geom_bond_type
C62   H34   S    
C55   C56   A    
C7    H3    S    
N1    Zn2   S    
O4    Zn2   S    
C48   C49   A    
C34   C35   A    
C1    O1    A    
C7    C8    A    
C27   C28   A    
C57   C62   A    
C58   C59   A    
C27   C32   A    
C19   C21   A    
C3    C7    A    
C46   H20   S    
C31   H8    S    
C35   H11   S    
C33   C34   A    
C39   C44   A    
C23   C26   T    
C51   C56   A    
C11   O5    A    
O3    Zn2   S    
C54   C55   A    
C9    N2    T    
C53   H26   S    
C10   N1    T    
C20   C24   S    
C40   C41   A    
N2    Zn1   S    
C42   C43   A    
C16   F2    S    
C48   H22   S    
C2    O2    A    
O8    Zn2   S    
C50   H24   S    
C36   C37   A    
C21   C22   A    
C21   C39   S    
C1    C25   S    
C59   C60   A    
O2    Zn1   S    
C38   H14   S    
C61   C62   A    
C54   H27   S    
O7    Zn2   S    
C30   H7    S    
C12   O6    A    
C39   C40   A    
C59   H31   S    
C24   C25   T    
C22   C45   S    
O6    Zn1   S    
C4    C6    A    
C53   C54   A    
C45   C46   A    
C4    C5    A    
C6    C8    A    
C34   H10   S    
C40   H15   S    
C28   H5    S    
C37   C38   A    
C12   O8    A    
C19   C23   S    
C5    C9    S    
C47   H21   S    
C11   C16   S    
C29   C30   A    
C12   C15   S    
C17   C18   A    
C36   H12   S    
C41   H16   S    
C2    C26   S    
C11   O7    A    
C17   C33   S    
C60   H32   S    
C30   C31   A    
C6    H4    S    
C20   C22   A    
C37   H13   S    
C31   C32   A    
C4    C57   S    
C14   C16   D    
C18   C27   S    
C43   H18   S    
C42   H17   S    
C1    O3    A    
C2    O4    A    
C58   H30   S    
C28   C29   A    
C47   C48   A    
C3    C5    A    
C52   H25   S    
C45   C50   A    
C44   H19   S    
C29   H6    S    
C32   H9    S    
C3    C51   S    
O1    Zn1   S    
C13   C15   D    
C35   C36   A    
C15   F1    S    
C43   C44   A    
C52   C53   A    
C61   H33   S    
C56   H29   S    
C57   C58   A    
C17   C19   A    
C18   C20   A    
O5    Zn1   S    
C41   C42   A    
C46   C47   A    
C8    C10   S    
C49   C50   A    
C60   C61   A    
C33   C38   A    
C13   H1    S    
C14   H2    S    
C51   C52   A    
C13   C14   S    
C55   H28   S    
C49   H23   S    
