data_mof_unit_56874.cif
_audit_creation_date              2012-12-10T18:47:46-0500
_audit_creation_method            fapswitch 2.2
_symmetry_space_group_name_H-M    P1
_symmetry_Int_Tables_number       1
_space_group_crystal_system       triclinic
_cell_length_a                    9.843906
_cell_length_b                    10.648166
_cell_length_c                    15.299565
_cell_angle_alpha                 89.996351
_cell_angle_beta                  68.560341
_cell_angle_gamma                 89.696984
_cell_volume                      1492.69883541

loop_
_atom_site_label
_atom_site_type_symbol
_atom_type_description
_atom_site_fract_x
_atom_site_fract_y
_atom_site_fract_z
_atom_type_partial_charge
C1    C     C_R   0.501092 0.739772 0.497398 0.880642
C2    C     C_R   0.498964 0.260245 0.502506 0.867054
C3    C     C_R   0.292309 0.434475 0.119064 0.433214
C4    C     C_R   0.602371 0.297048 0.926217 0.437897
C5    C     C_R   0.194384 0.457241 0.074005 -0.165277
C6    C     C_R   0.702520 0.278674 0.970261 -0.145439
C7    C     C_R   0.620262 0.938370 0.432112 0.466471
C8    C     C_R   0.379872 0.061722 0.567754 0.463423
C9    C     C_R   0.618743 0.066988 0.439067 -0.216389
C10   C     C_R   0.381299 0.933119 0.560714 -0.215701
C11   C     C_R   0.499151 0.127891 0.504881 -0.228113
C12   C     C_R   0.500941 0.872176 0.494961 -0.231252
C13   C     C_R   0.957273 0.412616 0.449476 -0.019133
C14   C     C_R   0.042650 0.587230 0.550672 -0.065209
C15   C     C_R   0.100932 0.412359 0.449816 0.027792
C16   C     C_R   0.898759 0.587124 0.550726 -0.001729
C17   C     C_R   0.409384 0.498397 0.676841 0.917169
C18   C     C_R   0.590520 0.497466 0.323506 0.927749
C19   C     C_R   0.352330 0.485038 0.779640 -0.167249
C20   C     C_R   0.642296 0.465030 0.223858 -0.137945
C21   C     C_R   0.148216 0.494944 0.929753 0.518011
C22   C     C_R   0.787951 0.325465 0.098067 0.543187
C23   C     C_R   0.203096 0.502579 0.831308 -0.380047
C24   C     C_R   0.762919 0.385162 0.184636 -0.379509
C25   C     C_R   0.447223 0.453771 0.826304 0.395312
C26   C     C_R   0.549650 0.490017 0.175334 0.409169
C27   C     C_R   0.389190 0.424669 0.922831 -0.127026
C28   C     C_R   0.555883 0.411879 0.099632 -0.142561
C29   C     C_R   0.242586 0.458480 0.975778 0.000091
C30   C     C_R   0.683511 0.338742 0.055436 -0.021487
C31   C     C_R   0.477908 0.375445 0.969680 -0.086767
C32   C     C_R   0.441553 0.408254 0.064354 -0.080454
H1    H     H_    0.081665 0.478202 0.116464 0.211711
H2    H     H_    0.796495 0.218798 0.936424 0.224947
N1    N     N_R   0.142780 0.500030 0.500020 -0.085864
N2    N     N_R   0.857220 0.499970 0.499980 -0.086519
O1    O     O_R   0.385370 0.683250 0.500010 -0.607779
O2    O     O_R   0.614630 0.316750 0.499990 -0.613563
O3    O     O_R   0.614700 0.683220 0.500000 -0.612277
O4    O     O_R   0.385300 0.316780 0.500000 -0.617001
O5    O     O_R   0.319830 0.500020 0.632250 -0.635129
O6    O     O_R   0.680170 0.499980 0.367750 -0.628886
O7    O     O_R   0.549160 0.499990 0.632240 -0.538541
O8    O     O_R   0.450840 0.500010 0.367760 -0.560814
Zn1   Zn    Zn3+2 0.346870 0.500020 0.500000 0.985026
Zn2   Zn    Zn3+2 0.653130 0.499980 0.500000 0.995072
O9    O     O_3   0.455373 0.591535 0.203661 -0.712553
H3    H     H_    0.435898 0.623561 0.148532 0.349819
O10   O     O_3   0.596212 0.460676 0.777992 -0.712380
H4    H     H_    0.641960 0.494511 0.820946 0.335427
H5    H     H_    0.834387 0.365930 0.222710 0.169200
H6    H     H_    0.130331 0.528114 0.795421 0.178703
O11   O     O_3   0.004349 0.524368 0.981862 -0.766380
H7    H     H_    0.953431 0.546812 0.938757 0.334879
O12   O     O_3   0.909028 0.249726 0.056626 -0.755229
H8    H     H_    0.970088 0.250624 0.095778 0.339394
O13   O     O_3   0.235981 0.430214 0.215844 -0.748024
H9    H     H_    0.300163 0.375978 0.236866 0.338725
O14   O     O_3   0.625070 0.230595 0.844577 -0.712378
H10   H     H_    0.530502 0.221983 0.836078 0.351932
O15   O     O_3   0.737063 0.882423 0.362438 -0.736043
H11   H     H_    0.709269 0.797358 0.349245 0.342259
O16   O     O_3   0.263208 0.117688 0.637532 -0.737780
H12   H     H_    0.291233 0.202614 0.650873 0.336995
H13   H     H_    0.708574 0.119992 0.390454 0.179044
H14   H     H_    0.291399 0.880151 0.609274 0.181285
H15   H     H_    0.926239 0.342851 0.408954 0.129886
H16   H     H_    0.073688 0.656916 0.591241 0.131697
H17   H     H_    0.178445 0.341974 0.410003 0.130881
H18   H     H_    0.820794 0.656713 0.591387 0.144364

loop_
_geom_bond_atom_site_label_1
_geom_bond_atom_site_label_2
_ccdc_geom_bond_type
C21   C29   A    
C19   C23   A    
O12   H8    S    
C17   O7    A    
N2    Zn2   S    
C22   O12   S    
C18   O8    A    
C27   C29   A    
C2    O2    A    
C26   C28   A    
C31   C32   A    
C1    O1    A    
O3    Zn2   S    
C3    C5    A    
C6    H2    S    
O15   H11   S    
C24   H5    S    
C13   C15   A    
O13   H9    S    
O14   H10   S    
O11   H7    S    
C16   N2    A    
C21   O11   S    
C9    C11   A    
C23   H6    S    
O4    Zn1   S    
C1    C12   S    
C20   C26   A    
C26   O9    S    
C13   N2    A    
C8    C11   A    
C15   H17   S    
C2    C11   S    
C10   C12   A    
C4    O14   S    
C15   N1    A    
C6    C30   A    
C9    H13   S    
C5    C29   A    
C10   H14   S    
C21   C23   A    
C13   H15   S    
C3    C32   A    
C19   C25   A    
O7    Zn2   S    
C14   C16   A    
C7    C12   A    
O2    Zn2   S    
C17   O5    A    
C25   C27   A    
C1    O3    A    
C8    O16   S    
O1    Zn1   S    
O16   H12   S    
C4    C31   A    
C2    O4    A    
C28   C32   A    
C16   H18   S    
O8    Zn1   S    
C18   C20   S    
C4    C6    A    
O10   H4    S    
O6    Zn2   S    
C22   C24   A    
C14   N1    A    
C7    C9    A    
C14   H16   S    
C7    O15   S    
O5    Zn1   S    
C22   C30   A    
C18   O6    A    
C17   C19   S    
C27   C31   A    
C20   C24   A    
C8    C10   A    
O9    H3    S    
C5    H1    S    
C28   C30   A    
C3    O13   S    
C25   O10   S    
N1    Zn1   S    
