data_mof_unit_39401.cif
_audit_creation_date              2012-12-10T20:34:48-0500
_audit_creation_method            fapswitch 2.2
_symmetry_space_group_name_H-M    P1
_symmetry_Int_Tables_number       1
_space_group_crystal_system       triclinic
_cell_length_a                    10.65034
_cell_length_b                    10.66451
_cell_length_c                    9.914587
_cell_angle_alpha                 90.457235
_cell_angle_beta                  89.637513
_cell_angle_gamma                 91.081642
_cell_volume                      1125.84731925

loop_
_atom_site_label
_atom_site_type_symbol
_atom_type_description
_atom_site_fract_x
_atom_site_fract_y
_atom_site_fract_z
_atom_type_partial_charge
C1    C     C_R   0.494488 0.260040 0.499857 0.870182
C2    C     C_3   0.878496 0.489847 0.499892 0.093591
C3    C     C_3   0.931171 0.623985 0.470761 -0.454244
C4    C     C_3   0.929260 0.389064 0.396735 0.108925
C5    C     C_R   0.467263 0.064378 0.622796 0.059217
C6    C     C_R   0.471012 0.128412 0.500743 -0.127542
C7    C     C_R   0.448137 0.063118 0.379864 -0.224467
C8    C     C_R   0.449374 0.933369 0.379708 -0.232580
C9    C     C_R   0.473251 0.870839 0.500701 -0.083733
C10   C     C_R   0.469981 0.936401 0.622282 0.075291
C11   C     C_3   0.555479 0.931846 0.740795 -0.545560
C12   C     C_R   0.257949 0.495952 0.500590 0.853749
C13   C     C_3   0.551056 0.074311 0.743537 0.053565
C14   C     C_R   0.424045 0.418813 0.070620 0.201890
C15   C     C_R   0.583546 0.571157 0.073609 -0.142432
C16   C     C_R   0.586113 0.571477 0.929213 0.228322
C17   C     C_R   0.423680 0.419139 0.928770 0.244906
C18   C     C_3   0.284104 0.411994 0.924554 -0.515594
C19   C     C_3   0.284500 0.410719 0.077456 -0.527562
C20   C     C_R   0.495638 0.739885 0.500251 0.870261
C21   C     C_R   0.741935 0.494286 0.499676 0.853246
C22   C     C_3   0.070704 0.462131 0.645568 -0.461323
C23   C     C_3   0.926617 0.455077 0.644775 0.017442
C24   C     C_3   0.074405 0.621414 0.458406 -0.397294
C25   C     C_3   0.073696 0.387757 0.403270 -0.460430
C26   C     C_3   0.121642 0.491687 0.501831 0.127783
H1    H     H_    0.100445 0.538142 0.716633 0.171315
H2    H     H_    0.103946 0.642039 0.353080 0.179253
H3    H     H_    0.890123 0.667816 0.381224 0.181918
H4    H     H_    0.438616 0.111365 0.285083 0.165563
H5    H     H_    0.441003 0.883594 0.284407 0.169686
H6    H     H_    0.509727 0.885078 0.828612 0.219340
H7    H     H_    0.649851 0.896703 0.713193 0.185242
H8    H     H_    0.642442 0.123027 0.722758 0.163245
H9    H     H_    0.646356 0.630287 0.131778 0.164083
H10   H     H_    0.110733 0.373042 0.682218 0.181512
H11   H     H_    0.243210 0.498556 0.883560 0.208387
H12   H     H_    0.249033 0.322547 0.879010 0.198858
H13   H     H_    0.242684 0.495921 0.123170 0.212257
H14   H     H_    0.250655 0.320013 0.120043 0.194607
H15   H     H_    0.892823 0.527418 0.717867 0.187168
H16   H     H_    0.116161 0.696714 0.523502 0.157626
H17   H     H_    0.905635 0.687793 0.555726 0.150289
H18   H     H_    0.115716 0.399170 0.301720 0.193958
H19   H     H_    0.104445 0.294599 0.439248 0.130057
H20   H     H_    0.894861 0.296304 0.432999 0.075069
N1    N     N_R   0.499150 0.499140 0.142800 -0.129283
N2    N     N_R   0.499150 0.499180 0.857150 -0.153502
O1    O     O_R   0.500020 0.316790 0.614690 -0.599308
O2    O     O_R   0.500000 0.316760 0.385350 -0.618939
O3    O     O_R   0.314800 0.500000 0.614670 -0.629044
O4    O     O_R   0.314790 0.499960 0.385330 -0.629672
O5    O     O_R   0.500000 0.683240 0.614650 -0.640964
O6    O     O_R   0.499980 0.683210 0.385310 -0.626501
O7    O     O_R   0.685210 0.500040 0.614670 -0.630092
O8    O     O_R   0.685200 0.500000 0.385330 -0.595236
Zn1   Zn    Zn3+2 0.500010 0.500020 0.653130 0.938550
Zn2   Zn    Zn3+2 0.499990 0.499980 0.346870 0.934598
N3    N     N_2   0.883048 0.394928 0.258028 -0.269110
H21   H     H_    0.891580 0.310815 0.206809 0.214016
C27   C     C_3   0.910636 0.501795 0.172837 -0.745922
H22   H     H_    0.892641 0.476142 0.066156 0.222075
H23   H     H_    0.009642 0.533809 0.179941 0.224881
H24   H     H_    0.846438 0.578472 0.196907 0.238769
N4    N     N_2   0.484823 0.122921 0.860725 -0.270778
H25   H     H_    0.395739 0.085526 0.875830 0.228073
C28   C     C_3   0.558295 0.130646 0.982666 -0.801814
H26   H     H_    0.500130 0.169222 0.065576 0.229362
H27   H     H_    0.640483 0.194498 0.968019 0.247157
H28   H     H_    0.590183 0.036212 0.012181 0.235723
N5    N     N_2   0.680033 0.644173 0.859365 -0.294150
H29   H     H_    0.658880 0.669660 0.763550 0.288917
C29   C     C_3   0.753636 0.739366 0.929869 -0.932365
H30   H     H_    0.691204 0.808169 0.979783 0.251625
H31   H     H_    0.815346 0.790101 0.856940 0.242644
H32   H     H_    0.815710 0.695801 0.004396 0.255040
N6    N     N_2   0.880766 0.331560 0.687989 -0.294180
H33   H     H_    0.924909 0.256429 0.643565 0.218598
C30   C     C_3   0.865844 0.315675 0.831872 -0.816007
H34   H     H_    0.835805 0.217608 0.853253 0.226925
H35   H     H_    0.792664 0.379425 0.871075 0.266641
H36   H     H_    0.956435 0.334768 0.883809 0.238228

loop_
_geom_bond_atom_site_label_1
_geom_bond_atom_site_label_2
_ccdc_geom_bond_type
C24   H16   S    
C29   H30   S    
C17   N2    A    
C15   N1    A    
C16   N2    A    
C4    C25   S    
C21   O7    A    
N2    Zn1   S    
C4    H20   S    
N6    H33   S    
C3    H17   S    
C18   H11   S    
C24   C26   S    
O6    Zn2   S    
C5    C6    A    
C5    C10   A    
C15   C16   A    
O1    Zn1   S    
C27   H23   S    
C18   C19   S    
C3    H3    S    
C8    C9    A    
N4    C28   S    
O3    Zn1   S    
C1    O2    A    
C5    C13   S    
N3    H21   S    
C7    H4    S    
C29   H31   S    
C14   C17   A    
C3    C24   S    
C16   N5    S    
C25   H18   S    
C15   H9    S    
C12   O4    A    
N6    C30   S    
O4    Zn2   S    
N3    C27   S    
C28   H26   S    
O2    Zn2   S    
C7    C8    A    
C20   O6    A    
C10   C11   S    
C30   H35   S    
O5    Zn1   S    
C13   N4    S    
C25   C26   S    
C1    C6    S    
C12   C26   S    
C28   H27   S    
C27   H24   S    
C2    C4    S    
C30   H36   S    
C9    C20   S    
C11   H7    S    
C2    C21   S    
C17   C18   S    
C23   N6    S    
C6    C7    A    
C19   H13   S    
C11   H6    S    
C22   H1    S    
O7    Zn1   S    
C29   H32   S    
C25   H19   S    
C12   O3    A    
N5    C29   S    
C9    C10   A    
C8    H5    S    
C14   C19   S    
C24   H2    S    
C20   O5    A    
C21   O8    A    
C14   N1    A    
C22   H10   S    
C23   H15   S    
C28   H28   S    
C2    C3    S    
C18   H12   S    
N5    H29   S    
N1    Zn2   S    
C11   C13   S    
C4    N3    S    
O8    Zn2   S    
C27   H22   S    
C19   H14   S    
C30   H34   S    
C13   H8    S    
N4    H25   S    
C22   C26   S    
C2    C23   S    
C22   C23   S    
C1    O1    A    
