data_mof_unit_43482.cif
_audit_creation_date              2012-12-10T18:13:33-0500
_audit_creation_method            fapswitch 2.2
_symmetry_space_group_name_H-M    P1
_symmetry_Int_Tables_number       1
_space_group_crystal_system       triclinic
_cell_length_a                    12.737045
_cell_length_b                    13.045142
_cell_length_c                    16.856503
_cell_angle_alpha                 87.158013
_cell_angle_beta                  98.366421
_cell_angle_gamma                 97.759743
_cell_volume                      2744.35682979

loop_
_atom_site_label
_atom_site_type_symbol
_atom_type_description
_atom_site_fract_x
_atom_site_fract_y
_atom_site_fract_z
_atom_type_partial_charge
C1    C     C_R   0.558185 0.690122 0.516969 0.874205
C2    C     C_R   0.629367 0.554590 0.244274 -0.236209
C3    C     C_R   0.598633 0.519316 0.868617 -0.070616
C4    C     C_R   0.590693 0.514855 0.786314 -0.244667
C5    C     C_R   0.397324 0.514653 0.773988 0.196450
C6    C     C_R   0.406353 0.515654 0.857373 -0.171862
C7    C     C_R   0.506560 0.519694 0.903653 0.172102
C8    C     C_2   0.557386 0.612386 0.027614 0.497155
C9    C     C_2   0.514503 0.525950 0.989312 -0.304412
C10   C     C_R   0.490455 0.511708 0.737720 -0.073286
C11   C     C_R   0.269848 0.052124 0.511417 0.441708
C12   C     C_R   0.514181 0.503745 0.349768 0.913914
C13   C     C_R   0.405998 0.197420 0.496808 -0.117261
C14   C     C_R   0.700282 0.836121 0.555179 -0.172898
C15   C     C_R   0.732430 0.940905 0.571667 0.259809
C16   C     C_R   0.653576 0.006583 0.567884 -0.214736
C17   C     C_R   0.543332 0.967164 0.554923 0.089401
C18   C     C_R   0.514735 0.860091 0.557334 0.008469
C19   C     C_R   0.460385 0.030162 0.537659 0.000172
C20   C     C_R   0.350915 0.987891 0.538213 -0.040712
C21   C     C_R   0.329393 0.883559 0.564474 0.385558
C22   C     C_R   0.410816 0.820970 0.572628 -0.248406
C23   C     C_R   0.440791 0.308239 0.491069 0.936123
C24   C     C_R   0.484574 0.132737 0.513538 -0.234083
C25   C     C_R   0.298538 0.156591 0.492915 -0.182110
C26   C     C_R   0.591382 0.796125 0.544617 -0.153830
C27   C     C_R   0.882339 0.315814 0.587198 -0.277187
C28   C     C_R   0.207206 0.625681 0.398895 0.229673
C29   C     C_R   0.102464 0.628841 0.360076 0.262088
C30   C     C_R   0.017360 0.566622 0.389817 0.196997
C31   C     C_R   0.036288 0.510718 0.463292 -0.093424
C32   C     C_R   0.143315 0.491848 0.491014 0.032892
C33   C     C_R   0.950662 0.461944 0.503998 -0.035444
C34   C     C_R   0.488591 0.504429 0.650929 0.907780
C35   C     C_R   0.965132 0.371175 0.550686 0.042172
C36   C     C_R   0.064161 0.339190 0.565519 -0.243199
C37   C     C_R   0.153796 0.402467 0.545546 0.405768
C38   C     C_R   0.852603 0.501378 0.504100 0.502725
C39   C     C_R   0.786002 0.354201 0.580731 -0.054327
C40   C     C_R   0.526941 0.534365 0.267110 -0.160428
C41   C     C_R   0.437787 0.557813 0.213722 -0.237492
C42   C     C_R   0.450027 0.598510 0.137801 0.352188
C43   C     C_R   0.551791 0.610909 0.112966 -0.076953
C44   C     C_R   0.642170 0.591669 0.167047 0.372534
H1    H     H_    0.358112 0.543965 0.230465 0.196849
H2    H     H_    0.335525 0.516502 0.885965 0.178369
H3    H     H_    0.236551 0.205740 0.475052 0.203180
H4    H     H_    0.565564 0.163718 0.506330 0.168794
H5    H     H_    0.759317 0.785623 0.550220 0.212732
H6    H     H_    0.680279 0.087443 0.578990 0.124922
H7    H     H_    0.392112 0.741318 0.591879 0.200034
H8    H     H_    0.719928 0.311313 0.606764 0.156068
H9    H     H_    0.664062 0.514508 0.760996 0.187659
H10   H     H_    0.072673 0.268787 0.602013 0.205315
H11   H     H_    0.892686 0.244572 0.621638 0.160634
H12   H     H_    0.476528 0.460043 0.021475 0.154971
H13   H     H_    0.676384 0.522305 0.905081 0.184964
H14   H     H_    0.699091 0.541272 0.286250 0.211048
N1    N     N_R   0.774070 0.445420 0.541180 -0.136644
N2    N     N_R   0.226730 0.554050 0.459240 -0.140194
O1    O     O_R   0.631480 0.627510 0.519670 -0.560335
O2    O     O_R   0.455770 0.662400 0.493360 -0.604526
O3    O     O_R   0.598240 0.480510 0.398910 -0.589665
O4    O     O_R   0.422540 0.515400 0.372600 -0.627379
O5    O     O_R   0.544230 0.337600 0.506640 -0.637003
O6    O     O_R   0.368520 0.372490 0.480330 -0.570206
O7    O     O_R   0.577460 0.484600 0.627400 -0.634704
O8    O     O_R   0.401760 0.519490 0.601090 -0.540569
Zn1   Zn    Zn3+2 0.617320 0.476700 0.517570 0.996714
Zn2   Zn    Zn3+2 0.382680 0.523300 0.482430 1.004344
Cl1   Cl    Cl    0.204921 0.824725 0.589231 -0.596806
Cl2   Cl    Cl    0.132174 0.008038 0.490407 -0.577120
N3    N     N_2   0.842299 0.983297 0.590512 -0.334323
H15   H     H_    0.863086 0.057243 0.568369 0.229986
C45   C     C_3   0.925303 0.916268 0.600213 -0.552926
H16   H     H_    0.003056 0.961393 0.623307 0.278336
H17   H     H_    0.931802 0.883921 0.541658 0.290022
H18   H     H_    0.908147 0.852719 0.644680 0.232785
Cl3   Cl    Cl    0.834509 0.628140 0.469286 -0.609569
N4    N     N_2   0.294745 0.684075 0.366896 -0.251255
H19   H     H_    0.304181 0.661522 0.310963 0.246814
C46   C     C_3   0.303936 0.795561 0.372563 -0.597024
H20   H     H_    0.387368 0.825735 0.396915 0.224724
H21   H     H_    0.248873 0.818673 0.411873 0.265681
H22   H     H_    0.285087 0.832113 0.312131 0.261043
N5    N     N_2   0.917619 0.544321 0.339327 -0.272859
H23   H     H_    0.893992 0.604966 0.302634 0.323779
C47   C     C_3   0.906669 0.448169 0.297685 -0.677831
H24   H     H_    0.825592 0.433147 0.262898 0.253094
H25   H     H_    0.917468 0.382264 0.341123 0.232122
H26   H     H_    0.966786 0.452665 0.255584 0.270030
Cl4   Cl    Cl    0.079745 0.701491 0.269235 -0.515102
Cl5   Cl    Cl    0.262647 0.354166 0.603392 -0.637610
N6    N     N_2   0.294788 0.515619 0.728069 -0.275509
H27   H     H_    0.238506 0.458522 0.746646 0.254224
C48   C     C_3   0.256423 0.615385 0.721894 -0.620173
H28   H     H_    0.183961 0.612827 0.676238 0.265991
H29   H     H_    0.318472 0.676308 0.703584 0.252069
H30   H     H_    0.235320 0.635236 0.780458 0.237893
Cl6   Cl    Cl    0.770798 0.606084 0.137853 -0.522411
Cl7   Cl    Cl    0.613294 0.725560 0.979286 -0.475286
Cl8   Cl    Cl    0.334921 0.625706 0.072738 -0.544502

loop_
_geom_bond_atom_site_label_1
_geom_bond_atom_site_label_2
_ccdc_geom_bond_type
C2    C44   A    
C4    H9    S    
C41   C42   A    
C19   C20   A    
C18   C26   A    
C8    C43   S    
C45   H16   S    
C1    O2    A    
C5    N6    S    
O6    Zn2   S    
C13   C23   S    
C21   Cl1   S    
C23   O6    A    
C36   C37   A    
C16   H6    S    
C3    C7    A    
C30   C31   A    
C12   O4    A    
C27   H11   S    
C14   H5    S    
C38   Cl3   S    
C11   C25   A    
C15   C16   A    
C48   H30   S    
O2    Zn2   S    
N3    H15   S    
C33   C35   A    
O3    Zn1   S    
C27   C39   A    
C8    C9    D    
C48   H29   S    
C31   C33   A    
O4    Zn2   S    
C30   N5    S    
C8    Cl7   S    
C25   H3    S    
C47   H24   S    
C39   H8    S    
C18   C22   A    
C21   C22   A    
N3    C45   S    
C13   C25   A    
C42   Cl8   S    
C28   N2    A    
C11   C20   A    
C24   H4    S    
N4    C46   S    
C34   O8    A    
C12   O3    A    
C11   Cl2   S    
C16   C17   A    
C27   C35   A    
C13   C24   A    
O7    Zn1   S    
C35   C36   A    
C12   C40   S    
C43   C44   A    
C29   C30   A    
C31   C32   A    
C47   H26   S    
N2    Zn2   S    
C39   N1    A    
C48   H28   S    
C17   C18   A    
C37   Cl5   S    
C10   C34   S    
C9    H12   S    
C32   C37   A    
C14   C26   A    
N6    C48   S    
C45   H17   S    
N1    Zn1   S    
C3    H13   S    
C40   C41   A    
C15   N3    S    
C47   H25   S    
C46   H21   S    
C1    C26   S    
C42   C43   A    
C32   N2    A    
C4    C10   A    
C3    C4    A    
O1    Zn1   S    
C7    C9    S    
C28   C29   A    
C6    H2    S    
N5    H23   S    
N4    H19   S    
C1    O1    A    
C34   O7    A    
C2    H14   S    
C6    C7    A    
C46   H22   S    
C33   C38   A    
C23   O5    A    
C19   C24   A    
C5    C10   A    
C44   Cl6   S    
C5    C6    A    
O5    Zn1   S    
C17   C19   A    
N5    C47   S    
N6    H27   S    
C28   N4    S    
C45   H18   S    
C36   H10   S    
C38   N1    A    
C2    C40   A    
C20   C21   A    
O8    Zn2   S    
C46   H20   S    
C41   H1    S    
C14   C15   A    
C29   Cl4   S    
C22   H7    S    
