data_mof_unit_28114.cif
_audit_creation_date              2012-12-10T20:52:59-0500
_audit_creation_method            fapswitch 2.2
_symmetry_space_group_name_H-M    P1
_symmetry_Int_Tables_number       1
_space_group_crystal_system       triclinic
_cell_length_a                    18.511452
_cell_length_b                    18.542604
_cell_length_c                    18.340425
_cell_angle_alpha                 59.709367
_cell_angle_beta                  59.257451
_cell_angle_gamma                 59.3671
_cell_volume                      4395.09751049

loop_
_atom_site_label
_atom_site_type_symbol
_atom_type_description
_atom_site_fract_x
_atom_site_fract_y
_atom_site_fract_z
_atom_type_partial_charge
C1    C     C_R   0.390103 0.110194 0.110384 0.785801
C2    C     C_R   0.319681 0.827255 0.852846 -0.084891
C3    C     C_R   0.031311 0.558237 0.912920 0.084736
C4    C     C_R   0.458422 0.962394 0.093587 0.079124
C5    C     C_R   0.541183 0.037643 0.906310 0.076138
C6    C     C_R   0.945015 0.947282 0.550090 -0.176024
C7    C     C_R   0.055062 0.052581 0.449863 -0.176498
C8    C     C_R   0.946047 0.552010 0.946305 -0.156206
C9    C     C_R   0.054993 0.446063 0.053517 -0.151081
C10   C     C_R   0.552825 0.946137 0.945616 -0.146044
C11   C     C_R   0.447032 0.053858 0.054339 -0.143242
C12   C     C_2   0.040935 0.650042 0.448223 0.894522
C13   C     C_R   0.167522 0.157934 0.664745 -0.120936
C14   C     C_2   0.958594 0.349858 0.553278 0.896916
C15   C     C_2   0.636949 0.460863 0.050739 0.896655
C16   C     C_2   0.334933 0.559481 0.972220 0.926890
C17   C     C_2   0.432197 0.016524 0.674905 0.941743
C18   C     C_2   0.567776 0.981512 0.327555 0.938010
C19   C     C_2   0.071273 0.775418 0.046211 0.932416
C20   C     C_2   0.903787 0.271400 0.969635 0.966871
C21   C     C_2   0.792187 0.058673 0.079658 0.949529
C22   C     C_2   0.223405 0.954279 0.914552 1.022501
C23   C     C_2   0.032180 0.110382 0.754348 1.001632
C24   C     C_R   0.837244 0.856769 0.334303 -0.109648
C25   C     C_2   0.967406 0.911523 0.252483 0.991320
C26   C     C_R   0.133409 0.620457 0.256620 -0.106094
C27   C     C_R   0.861125 0.391604 0.747954 -0.069158
C28   C     C_R   0.615252 0.264889 0.141388 -0.093248
C29   C     C_R   0.378695 0.739875 0.860506 -0.138121
C30   C     C_R   0.258348 0.141505 0.612768 -0.110392
C31   C     C_R   0.746421 0.868871 0.384045 -0.102772
C32   C     C_R   0.060129 0.590701 0.312602 0.197817
C33   C     C_R   0.609881 0.889788 0.889616 0.783296
C34   C     C_R   0.940518 0.410271 0.688603 0.213100
C35   C     C_R   0.591269 0.317153 0.064103 0.199370
C36   C     C_R   0.408394 0.688049 0.934249 0.212049
C37   C     C_R   0.309556 0.063428 0.590305 0.212263
C38   C     C_R   0.689803 0.945521 0.408724 0.219651
C39   C     C_R   0.994124 0.617328 0.278925 -0.152352
C40   C     C_R   0.006675 0.383945 0.721930 -0.156576
C41   C     C_R   0.626929 0.281128 0.996542 -0.169119
C42   C     C_R   0.382102 0.725865 0.997490 -0.130309
C43   C     C_R   0.268360 0.003772 0.617587 -0.137936
C44   C     C_R   0.108632 0.111379 0.391106 0.783994
C45   C     C_R   0.725429 0.008279 0.385544 -0.147957
C46   C     C_R   0.999291 0.675380 0.191577 -0.209828
C47   C     C_R   0.994169 0.339466 0.813222 -0.170002
C48   C     C_R   0.689692 0.195810 0.003410 -0.200184
C49   C     C_R   0.324442 0.813264 0.989189 -0.208930
C50   C     C_R   0.177622 0.020571 0.668582 -0.171967
C51   C     C_R   0.816010 0.995875 0.336767 -0.171872
C52   C     C_R   0.070236 0.708652 0.136421 0.084790
C53   C     C_R   0.915325 0.319907 0.873066 0.070236
C54   C     C_R   0.718318 0.145066 0.077903 0.085801
C55   C     C_R   0.891431 0.888532 0.608893 0.782276
C56   C     C_R   0.290925 0.864270 0.918029 0.107339
C57   C     C_R   0.126620 0.096905 0.694178 0.087620
C58   C     C_R   0.872665 0.920734 0.309467 0.092119
C59   C     C_R   0.006221 0.583665 0.468501 -0.045219
C60   C     C_R   0.994521 0.415618 0.532436 -0.054039
C61   C     C_R   0.580743 0.472696 0.007887 -0.052382
C62   C     C_R   0.413574 0.532871 0.994222 -0.057351
C63   C     C_R   0.464845 0.001550 0.588957 -0.080912
C64   C     C_R   0.535121 0.999862 0.411564 -0.080431
C65   C     C_R   0.953745 0.550033 0.556815 -0.132637
C66   C     C_R   0.111457 0.389864 0.109229 0.773558
C67   C     C_R   0.046631 0.449620 0.443644 -0.130377
C68   C     C_R   0.548638 0.558107 0.951413 -0.129706
C69   C     C_R   0.449169 0.444364 0.045857 -0.144705
C70   C     C_R   0.555987 0.956024 0.550727 -0.140829
C71   C     C_R   0.443903 0.045631 0.449550 -0.143464
C72   C     C_R   0.955387 0.461747 0.591740 -0.123379
C73   C     C_R   0.045824 0.537602 0.409068 -0.119429
C74   C     C_R   0.460318 0.591753 0.952539 -0.121285
C75   C     C_R   0.536434 0.412504 0.046824 -0.117772
C76   C     C_R   0.592587 0.962522 0.459121 -0.115826
C77   C     C_R   0.888523 0.609739 0.891154 0.776455
C78   C     C_R   0.407401 0.040536 0.540799 -0.114672
C79   C     C_R   0.107101 0.390623 0.389620 0.841677
C80   C     C_R   0.892931 0.609340 0.610469 0.830394
C81   C     C_R   0.390951 0.389468 0.106845 0.823062
C82   C     C_R   0.608684 0.610982 0.891666 0.832449
C83   C     C_R   0.389520 0.106479 0.390951 0.831162
C84   C     C_R   0.610476 0.893954 0.609124 0.838335
C85   C     C_R   0.161444 0.952290 0.359776 -0.115023
C86   C     C_R   0.838212 0.047973 0.639592 -0.116977
C87   C     C_R   0.939117 0.380038 0.173382 -0.121862
C88   C     C_R   0.138207 0.679492 0.169158 -0.059504
C89   C     C_R   0.064816 0.614623 0.825086 -0.120801
C90   C     C_R   0.418886 0.923376 0.187130 -0.117247
C91   C     C_R   0.580398 0.076701 0.812704 -0.146942
C92   C     C_R   0.181295 0.885543 0.331674 -0.157400
C93   C     C_R   0.818108 0.114895 0.667569 -0.152674
C94   C     C_R   0.860154 0.366675 0.202498 -0.150616
C95   C     C_R   0.150232 0.617338 0.791605 -0.158510
C96   C     C_R   0.431069 0.833010 0.224900 -0.154836
C97   C     C_R   0.567791 0.167156 0.774830 -0.154031
C98   C     C_R   0.122868 0.839883 0.373596 -0.126007
C99   C     C_R   0.848718 0.346404 0.839696 -0.113363
C100  C     C_R   0.876726 0.160245 0.626081 -0.120760
C101  C     C_R   0.809732 0.412742 0.147164 -0.111117
C102  C     C_R   0.204793 0.563095 0.843633 -0.119294
C103  C     C_R   0.482386 0.779809 0.170728 -0.139106
C104  C     C_R   0.516408 0.220395 0.828969 -0.138593
C105  C     C_R   0.046089 0.857932 0.446664 -0.138332
C106  C     C_R   0.953968 0.141758 0.553517 -0.139522
C107  C     C_R   0.836090 0.475314 0.063471 -0.126917
C108  C     C_R   0.173831 0.506539 0.929865 -0.125385
C109  C     C_R   0.522509 0.816532 0.078607 -0.141335
C110  C     C_R   0.678757 0.179433 0.148097 -0.065027
C111  C     C_R   0.476669 0.183606 0.921173 -0.140437
C112  C     C_R   0.022472 0.927674 0.475337 0.062747
C113  C     C_R   0.977582 0.072158 0.524641 0.058662
C114  C     C_R   0.917402 0.488995 0.031190 0.069684
C115  C     C_R   0.086541 0.503971 0.966388 0.054114
C116  C     C_R   0.511395 0.908147 0.038678 0.069634
C117  C     C_R   0.488182 0.091904 0.961206 0.072655
C118  C     C_R   0.079361 0.978490 0.427712 0.088150
C119  C     C_R   0.920568 0.021512 0.572041 0.085132
C120  C     C_R   0.971009 0.438148 0.086143 0.086067
H1    H     H_    0.860399 0.211470 0.649491 0.180684
H2    H     H_    0.026774 0.655696 0.780190 0.140997
H3    H     H_    0.378776 0.961993 0.232049 0.122282
H4    H     H_    0.620497 0.038062 0.767804 0.124962
H5    H     H_    0.242470 0.868871 0.277373 0.148836
H6    H     H_    0.756606 0.131926 0.721449 0.148985
H7    H     H_    0.838072 0.320159 0.268304 0.140803
H8    H     H_    0.174789 0.660532 0.724288 0.141404
H9    H     H_    0.400451 0.804193 0.296534 0.138702
H10   H     H_    0.598113 0.196017 0.703141 0.139063
H11   H     H_    0.006417 0.816501 0.478792 0.188251
H12   H     H_    0.138859 0.788885 0.350006 0.179066
H13   H     H_    0.993947 0.182766 0.521950 0.189937
H14   H     H_    0.792662 0.511680 0.024459 0.162567
H15   H     H_    0.219627 0.463438 0.966730 0.177899
H16   H     H_    0.562419 0.772315 0.039340 0.134505
H17   H     H_    0.436666 0.227848 0.960417 0.125495
H18   H     H_    0.194064 0.703641 0.127813 0.174620
H19   H     H_    0.786932 0.332839 0.884556 0.159870
H20   H     H_    0.698957 0.141418 0.206762 0.170916
H21   H     H_    0.295165 0.865218 0.797022 0.165786
H22   H     H_    0.129631 0.217652 0.682914 0.158982
H23   H     H_    0.271861 0.564027 0.816376 0.177529
H24   H     H_    0.879535 0.797896 0.314632 0.167338
H25   H     H_    0.184994 0.600314 0.281607 0.118209
H26   H     H_    0.808928 0.412646 0.723384 0.110603
H27   H     H_    0.587851 0.291656 0.194336 0.117917
H28   H     H_    0.398329 0.711575 0.811226 0.117762
H29   H     H_    0.289200 0.188366 0.591758 0.116109
H30   H     H_    0.719995 0.819438 0.402228 0.115998
H31   H     H_    0.937062 0.594957 0.321491 0.148309
H32   H     H_    0.067992 0.398624 0.676921 0.142609
H33   H     H_    0.608833 0.320746 0.936519 0.135815
H34   H     H_    0.749635 0.399615 0.170661 0.161990
H35   H     H_    0.404399 0.686546 0.054914 0.146004
H36   H     H_    0.307098 0.943335 0.600516 0.126022
H37   H     H_    0.682574 0.067488 0.404649 0.129117
H38   H     H_    0.946202 0.696268 0.168300 0.187734
H39   H     H_    0.046614 0.319900 0.836774 0.179480
H40   H     H_    0.718339 0.171118 0.948617 0.182023
H41   H     H_    0.303813 0.839769 0.040273 0.179991
H42   H     H_    0.148076 0.972464 0.690064 0.175341
H43   H     H_    0.841188 0.046196 0.318798 0.176584
H44   H     H_    0.113683 0.674877 0.480862 0.320140
H45   H     H_    0.506890 0.290610 0.799368 0.140326
H46   H     H_    0.888819 0.324813 0.517290 0.319727
H47   H     H_    0.647287 0.513421 0.117774 0.316127
H48   H     H_    0.211908 0.643556 0.969828 0.344087
H49   H     H_    0.453441 0.051663 0.748282 0.348015
H50   H     H_    0.660427 0.978942 0.205804 0.345735
H51   H     H_    0.018068 0.840762 0.948076 0.360861
H52   H     H_    0.947007 0.226882 0.070988 0.362045
H53   H     H_    0.876197 0.963765 0.021292 0.370537
H54   H     H_    0.154711 0.054115 0.966101 0.361135
H55   H     H_    0.924764 0.072324 0.814131 0.365586
H56   H     H_    0.491555 0.709672 0.200233 0.147003
H57   H     H_    0.068717 0.957401 0.196830 0.362364
H58   H     H_    0.212100 0.982009 0.327786 0.136680
H59   H     H_    0.787527 0.018342 0.671313 0.137737
H60   H     H_    0.974663 0.343645 0.220251 0.139677
O1    O     O_3   0.250000 0.250000 0.250000 -0.498156
O2    O     O_R   0.865800 0.694910 0.573470 -0.641925
O3    O     O_R   0.305090 0.426530 0.134200 -0.630877
O4    O     O_R   0.694910 0.573470 0.865800 -0.645009
O5    O     O_R   0.426530 0.134200 0.305090 -0.626443
O6    O     O_R   0.573470 0.865800 0.694910 -0.626786
O7    O     O_R   0.134190 0.426530 0.134200 -0.631143
O8    O     O_R   0.865810 0.573470 0.865800 -0.636577
O9    O     O_R   0.426530 0.134200 0.134190 -0.623650
O10   O     O_R   0.573470 0.865800 0.865810 -0.629767
O11   O     O_R   0.134200 0.134190 0.426530 -0.649996
O12   O     O_3   0.750000 0.750000 0.750000 -0.495678
O13   O     O_R   0.865800 0.865810 0.573470 -0.649539
O14   O     O_R   0.426530 0.305080 0.134210 -0.645392
O15   O     O_R   0.573470 0.694920 0.865790 -0.640884
O16   O     O_R   0.305080 0.134210 0.426530 -0.646164
O17   O     O_R   0.694920 0.865790 0.573470 -0.646757
O18   O     O_R   0.134210 0.426530 0.305080 -0.638684
O19   O     O_R   0.865790 0.573470 0.694920 -0.641627
O20   O     O_2   0.031992 0.719507 0.385726 -0.651896
O21   O     O_R   0.084806 0.630615 0.502722 -0.836768
O22   O     O_2   0.956570 0.286193 0.622316 -0.657759
O23   O     O_R   0.305080 0.134200 0.134200 -0.634883
O24   O     O_R   0.923578 0.364597 0.493141 -0.838726
O25   O     O_2   0.703217 0.395221 0.058468 -0.628791
O26   O     O_R   0.610787 0.527565 0.083320 -0.849117
O27   O     O_2   0.336433 0.515427 0.939282 -0.696796
O28   O     O_R   0.259963 0.633230 0.988918 -0.805083
O29   O     O_2   0.363775 0.003720 0.734757 -0.644578
O30   O     O_R   0.481238 0.044749 0.687088 -0.817349
O31   O     O_2   0.525432 0.953851 0.319720 -0.639782
O32   O     O_R   0.645808 0.995384 0.257990 -0.810286
O33   O     O_2   0.125025 0.814458 0.003145 -0.616871
O34   O     O_R   0.694920 0.865800 0.865800 -0.631083
O35   O     O_R   0.010422 0.794271 0.010128 -0.819946
O36   O     O_2   0.843703 0.240166 0.019411 -0.607801
O37   O     O_R   0.962117 0.260681 0.004097 -0.805302
O38   O     O_2   0.824901 0.019175 0.138669 -0.613392
O39   O     O_R   0.825511 0.022530 0.013051 -0.817505
O40   O     O_2   0.185237 0.994525 0.859888 -0.612178
O41   O     O_R   0.202154 0.992965 0.974778 -0.813976
O42   O     O_2   0.991963 0.167938 0.789218 -0.610503
O43   O     O_R   0.989064 0.056436 0.772396 -0.808016
O44   O     O_2   0.013834 0.853481 0.217711 -0.611667
O45   O     O_R   0.134200 0.134200 0.305080 -0.633070
O46   O     O_R   0.003643 0.970288 0.237045 -0.806004
O47   O     O_R   0.865800 0.865800 0.694920 -0.633318
O48   O     O_R   0.134200 0.305080 0.134200 -0.629792
O49   O     O_R   0.865800 0.694920 0.865800 -0.629463
O50   O     O_R   0.134200 0.305090 0.426530 -0.643958
Zn1   Zn    Zn3+2 0.206620 0.206630 0.380140 0.976790
Zn2   Zn    Zn3+2 0.793380 0.793370 0.619860 0.977168
Zn3   Zn    Zn3+2 0.206630 0.380140 0.206620 0.990359
Zn4   Zn    Zn3+2 0.793370 0.619860 0.793380 0.978859
Zn5   Zn    Zn3+2 0.380140 0.206620 0.206630 0.993406
Zn6   Zn    Zn3+2 0.619860 0.793380 0.793370 0.992155
Zn7   Zn    Zn3+2 0.206620 0.206620 0.206620 0.981293
Zn8   Zn    Zn3+2 0.793380 0.793380 0.793380 0.982769

loop_
_geom_bond_atom_site_label_1
_geom_bond_atom_site_label_2
_ccdc_geom_bond_type
C101  C107  A    
C40   C47   A    
C21   O39   S    
C26   C32   A    
C24   C31   A    
C46   C52   A    
C50   H42   S    
O45   Zn7   S    
C20   O37   S    
O16   Zn1   S    
C84   O6    A    
C1    O23   A    
C1    C11   S    
O14   Zn5   S    
C16   O27   D    
C92   H5    S    
C29   H28   S    
C92   C98   A    
C105  H11   S    
C38   C76   S    
C94   H7    S    
C53   C99   A    
C48   C54   A    
C48   H40   S    
C29   C36   A    
C27   C99   A    
C98   C105  A    
C2    C29   A    
C34   C40   A    
C20   O36   D    
C108  C115  A    
O34   Zn8   S    
O1    Zn1   S    
C97   H10   S    
C107  H14   S    
C17   O29   D    
C44   O11   A    
C21   C54   S    
C77   O49   A    
C64   C71   A    
C13   C57   A    
C89   H2    S    
C45   C51   A    
C68   C74   A    
C46   H38   S    
C87   C94   A    
C82   O4    A    
C25   O46   S    
C77   O8    A    
C40   H32   S    
C25   O44   D    
C23   C57   S    
C100  H1    S    
C90   H3    S    
C32   C39   A    
C55   O47   A    
C83   O16   A    
C93   H6    S    
C103  H56   S    
C38   C45   A    
C109  C116  A    
C87   H60   S    
C9    C66   S    
C12   C59   S    
C36   C42   A    
C95   H8    S    
C71   C83   S    
C94   C101  A    
C85   H58   S    
C14   O24   S    
C23   O42   D    
C51   H43   S    
C86   C119  A    
C67   C73   A    
C80   O2    A    
C70   C84   S    
C44   O45   A    
C59   C73   A    
C49   H41   S    
C95   C102  A    
C8    C114  A    
C47   C53   A    
H51   O35   S    
C103  C109  A    
C81   O14   A    
C65   C80   S    
C113  C119  A    
C66   O7    A    
C109  H16   S    
C15   C61   S    
C7    C118  A    
C99   H19   S    
O50   Zn1   S    
H54   O41   S    
C16   C62   S    
C41   H33   S    
C35   C41   A    
C19   C52   S    
C85   C92   A    
O12   Zn6   S    
O6    Zn6   S    
C106  H13   S    
C27   C34   A    
C12   O20   D    
C22   O41   S    
C106  C113  A    
C9    C115  A    
H47   O26   S    
C13   C30   A    
C52   C88   A    
C45   H37   S    
C28   C35   A    
C108  H15   S    
C3    C8    A    
C39   H31   S    
O19   Zn4   S    
C32   C73   S    
C31   H30   S    
C30   H29   S    
C47   H39   S    
C28   C110  A    
C7    C44   S    
O47   Zn8   S    
C61   C75   A    
C104  H45   S    
C30   C37   A    
C5    C117  A    
C33   O10   A    
C19   O33   D    
C54   C110  A    
C89   C95   A    
C26   H25   S    
C18   O32   S    
C107  C114  A    
C86   C93   A    
O1    Zn5   S    
O12   Zn8   S    
C63   C70   A    
C35   C75   S    
H48   O28   S    
C64   C76   A    
C87   C120  A    
C67   C79   S    
C43   C50   A    
C51   C58   A    
H46   O24   S    
C12   O21   S    
C91   C97   A    
C4    C11   A    
C102  C108  A    
C15   O25   D    
C93   C100  A    
O4    Zn4   S    
C82   O15   A    
O7    Zn3   S    
C36   C74   S    
O3    Zn3   S    
C39   C46   A    
O15   Zn6   S    
C62   C69   A    
C26   C88   A    
C55   O13   A    
C105  C112  A    
C23   O43   S    
C17   O30   S    
C91   H4    S    
C70   C76   A    
C8    C77   S    
C37   C43   A    
O10   Zn6   S    
C102  H23   S    
C81   O3    A    
C66   O48   A    
C43   H36   S    
C11   C117  A    
C34   C72   S    
C6    C119  A    
O8    Zn4   S    
C111  H17   S    
H57   O46   S    
O17   Zn2   S    
O1    Zn7   S    
O12   Zn2   S    
C22   O40   D    
C28   H27   S    
H55   O43   S    
O5    Zn5   S    
C59   C65   A    
C50   C57   A    
C6    C112  A    
C4    C116  A    
C62   C74   A    
C21   O38   D    
O2    Zn2   S    
C101  H34   S    
C20   C53   S    
C16   O28   S    
O18   Zn3   S    
C104  C111  A    
C22   C56   S    
C33   O34   A    
C4    C90   A    
C90   C96   A    
C84   O17   A    
C65   C72   A    
C14   C60   S    
C37   C78   S    
C88   H18   S    
O11   Zn1   S    
C100  C106  A    
C31   C38   A    
C111  C117  A    
C97   C104  A    
C3    C89   A    
C68   C82   S    
C7    C113  A    
C6    C55   S    
C110  H20   S    
C42   H35   S    
C9    C120  A    
C18   O31   D    
C5    C10   A    
C49   C56   A    
C3    C115  A    
C17   C63   S    
C112  C118  A    
C80   O19   A    
C61   C68   A    
C18   C64   S    
C79   O50   A    
O12   Zn4   S    
C24   H24   S    
C27   H26   S    
H49   O30   S    
C14   O22   D    
C86   H59   S    
C41   C48   A    
C69   C75   A    
C10   C33   S    
C19   O35   S    
C85   C118  A    
H53   O39   S    
C10   C116  A    
O23   Zn7   S    
C15   O26   S    
C69   C81   S    
H44   O21   S    
C42   C49   A    
O1    Zn3   S    
O48   Zn7   S    
H50   O32   S    
C5    C91   A    
C24   C58   A    
C25   C58   S    
C96   C103  A    
C98   H12   S    
C79   O18   A    
C2    H21   S    
C60   C72   A    
C60   C67   A    
C83   O5    A    
C2    C56   A    
O13   Zn2   S    
O49   Zn8   S    
O9    Zn5   S    
C71   C78   A    
C114  C120  A    
H52   O37   S    
C1    O9    A    
C96   H9    S    
C63   C78   A    
C13   H22   S    
