data_mof_unit_28552.cif
_audit_creation_date              2012-10-26T19:07:27-0400
_audit_creation_method            fapswitch 2.2
_symmetry_space_group_name_H-M    P1
_symmetry_Int_Tables_number       1
_space_group_crystal_system       triclinic
_cell_length_a                    15.14189
_cell_length_b                    13.724681
_cell_length_c                    10.799686
_cell_angle_alpha                 89.971845
_cell_angle_beta                  85.30114
_cell_angle_gamma                 89.131591
_cell_volume                      2236.56410777

loop_
_atom_site_label
_atom_site_type_symbol
_atom_type_description
_atom_site_fract_x
_atom_site_fract_y
_atom_site_fract_z
_atom_type_partial_charge
C1    C     C_R   0.328865 0.500630 0.499489 0.567115
C2    C     C_R   0.972344 0.429310 0.287022 0.240338
C3    C     C_R   0.428550 0.794056 0.553760 0.031632
C4    C     C_R   0.571982 0.205067 0.449957 0.044087
C5    C     C_R   0.570940 0.791968 0.445644 0.040780
C6    C     C_R   0.428593 0.208042 0.553844 0.038744
C7    C     C_R   0.573918 0.895031 0.446371 -0.026761
C8    C     C_R   0.425771 0.104802 0.554242 -0.014205
C9    C     C_R   0.425572 0.897369 0.554521 -0.027645
C10   C     C_R   0.574448 0.102043 0.449559 -0.012827
C11   C     C_R   0.499793 0.948025 0.500830 -0.022483
C12   C     C_R   0.671558 0.499260 0.496440 0.571118
C13   C     C_R   0.499867 0.051463 0.501224 -0.032544
C14   C     C_R   0.648797 0.946180 0.394308 0.139353
C15   C     C_R   0.350927 0.054415 0.606568 0.156679
C16   C     C_R   0.350931 0.951040 0.607813 0.137824
C17   C     C_R   0.649655 0.049206 0.398657 0.156208
C18   C     C_R   0.503541 0.500261 0.259124 0.549898
C19   C     C_R   0.495911 0.500086 0.740805 0.557617
C20   C     C_3   0.480343 0.591199 0.043421 0.134944
C21   C     C_3   0.517793 0.411191 0.957187 0.150157
C22   C     C_3   0.557347 0.563769 0.947845 0.129668
C23   C     C_R   0.954134 0.501423 0.495572 -0.072319
C24   C     C_3   0.439905 0.438763 0.052266 0.122174
C25   C     C_3   0.416971 0.528663 0.974331 0.102836
C26   C     C_3   0.580656 0.474787 0.025517 0.121652
C27   C     C_3   0.494569 0.500486 0.876914 -0.017743
C28   C     C_3   0.503492 0.501644 0.122989 -0.014202
C29   C     C_R   0.821927 0.466115 0.388541 0.135228
C30   C     C_R   0.179540 0.523789 0.609667 0.137068
C31   C     C_R   0.768666 0.497515 0.494055 0.005130
C32   C     C_R   0.232254 0.502287 0.500480 -0.009350
C33   C     C_R   0.807262 0.530347 0.598068 -0.165122
C34   C     C_R   0.047084 0.502444 0.498698 -0.085585
C35   C     C_R   0.193748 0.477887 0.393170 -0.145018
C36   C     C_R   0.899424 0.534261 0.600248 -0.019668
C37   C     C_R   0.101796 0.474262 0.391790 0.023260
C38   C     C_3   0.266573 0.583572 0.046330 -0.304519
C39   C     C_3   0.730222 0.420447 0.950534 -0.291912
C40   C     C_3   0.446029 0.764971 0.007208 -0.305494
C41   C     C_3   0.556637 0.241412 0.003369 -0.295098
C42   C     C_3   0.674664 0.684518 0.965920 -0.316113
C43   C     C_3   0.321441 0.318057 0.040728 -0.292565
C44   C     C_3   0.750808 0.345086 0.267575 -0.230650
C45   C     C_R   0.915834 0.465958 0.388674 0.039746
C46   C     C_3   0.221322 0.433310 0.788241 -0.251473
C47   C     C_3   0.722522 0.870698 0.211784 -0.323650
C48   C     C_3   0.213949 0.135773 0.565499 -0.308492
C49   C     C_3   0.274621 0.872283 0.785169 -0.323818
C50   C     C_3   0.789003 0.113369 0.450108 -0.316840
C51   C     C_R   0.085689 0.529688 0.609011 0.031659
C52   C     C_R   0.937546 0.567694 0.707148 0.236490
C53   C     C_R   0.064727 0.441406 0.285077 0.238380
C54   C     C_R   0.029891 0.560338 0.714508 0.297919
Cu1   Cu    Cu3+1 0.500000 0.597420 0.500000 0.932225
Cu2   Cu    Cu3+1 0.500000 0.402580 0.500000 0.933068
H1    H     H_    0.763874 0.551166 0.678012 0.105318
H2    H     H_    0.263715 0.523160 0.113924 0.189897
H3    H     H_    0.693783 0.508336 0.102756 0.256543
H4    H     H_    0.796899 0.406575 0.983080 0.165718
H5    H     H_    0.736204 0.477309 0.877794 0.166671
H6    H     H_    0.707770 0.351996 0.909802 0.181748
H7    H     H_    0.419347 0.689820 0.172650 0.265577
H8    H     H_    0.457103 0.836516 0.050736 0.136877
H9    H     H_    0.376340 0.763020 0.983539 0.121149
H10   H     H_    0.490682 0.758842 0.920895 0.197342
H11   H     H_    0.496243 0.289114 0.848194 0.262123
H12   H     H_    0.236420 0.458470 0.311925 0.143583
H13   H     H_    0.585881 0.175111 0.956492 0.125883
H14   H     H_    0.494463 0.220994 0.058067 0.171222
H15   H     H_    0.604347 0.268861 0.067317 0.177282
H16   H     H_    0.649260 0.609700 0.804489 0.252682
H17   H     H_    0.694212 0.754638 0.921260 0.141901
H18   H     H_    0.735644 0.641087 0.978217 0.162516
H19   H     H_    0.639808 0.700135 0.058171 0.177241
H20   H     H_    0.352096 0.392176 0.199559 0.257316
H21   H     H_    0.297360 0.251888 0.091170 0.150353
H22   H     H_    0.355136 0.295134 0.950281 0.139074
H23   H     H_    0.374034 0.752600 0.595753 0.134709
H24   H     H_    0.263489 0.365028 0.025148 0.176839
H25   H     H_    0.809146 0.475192 0.199654 0.288357
H26   H     H_    0.784115 0.310147 0.183273 0.177769
H27   H     H_    0.678552 0.345913 0.257930 0.170356
H28   H     H_    0.765441 0.300631 0.349376 0.159804
H29   H     H_    0.218569 0.588537 0.771394 0.296215
H30   H     H_    0.180012 0.441094 0.877441 0.172582
H31   H     H_    0.290212 0.412642 0.805721 0.164233
H32   H     H_    0.194304 0.373012 0.734448 0.133311
H33   H     H_    0.842270 0.652905 0.772785 0.316139
H34   H     H_    0.627798 0.244870 0.411192 0.141628
H35   H     H_    0.087302 0.429029 0.105905 0.331564
H36   H     H_    0.020660 0.596401 0.891357 0.369744
H37   H     H_    0.981747 0.328056 0.160103 0.333173
H38   H     H_    0.747187 0.838914 0.394601 0.242772
H39   H     H_    0.666954 0.820753 0.199984 0.134250
H40   H     H_    0.785635 0.834162 0.176996 0.147536
H41   H     H_    0.713391 0.937311 0.155534 0.148667
H42   H     H_    0.242812 0.078293 0.735135 0.272510
H43   H     H_    0.160175 0.182787 0.610282 0.137435
H44   H     H_    0.184098 0.069897 0.527296 0.163499
H45   H     H_    0.625046 0.749066 0.401921 0.137069
H46   H     H_    0.248565 0.177572 0.488385 0.155213
H47   H     H_    0.251240 0.849540 0.600238 0.245953
H48   H     H_    0.208738 0.843703 0.818668 0.158515
H49   H     H_    0.289786 0.934652 0.845022 0.146936
H50   H     H_    0.325086 0.813753 0.793350 0.120800
H51   H     H_    0.758859 0.073153 0.273854 0.272184
H52   H     H_    0.847035 0.155011 0.410779 0.141995
H53   H     H_    0.812929 0.041751 0.483228 0.167893
H54   H     H_    0.756389 0.155085 0.529819 0.149782
H55   H     H_    0.373789 0.250496 0.597027 0.157414
H56   H     H_    0.335896 0.617988 0.878612 0.251478
H57   H     H_    0.200023 0.593187 0.011652 0.175885
H58   H     H_    0.282950 0.651469 0.094203 0.133129
N1    N     N_R   0.500000 0.743810 0.500000 -0.247673
N2    N     N_2   0.222222 0.524792 0.721253 -0.488119
N3    N     N_2   0.725634 0.895545 0.341453 -0.526705
N4    N     N_2   0.274745 0.108036 0.656399 -0.539372
N5    N     N_2   0.273118 0.902810 0.657139 -0.525033
N6    N     N_2   0.727819 0.099704 0.355677 -0.546862
N7    N     N_R   0.500000 0.256190 0.500000 -0.257829
N8    N     N_2   0.330968 0.562572 0.943025 -0.526329
N9    N     N_2   0.669683 0.451737 0.054106 -0.529656
N10   N     N_2   0.462964 0.688163 0.094292 -0.500845
N11   N     N_2   0.538712 0.313675 0.910654 -0.502503
N12   N     N_2   0.618057 0.633055 0.887503 -0.507818
N13   N     N_2   0.380969 0.368950 0.115096 -0.503115
N14   N     N_2   0.779996 0.444364 0.279437 -0.504894
O1    O     O_R   0.370260 0.582280 0.500030 -0.509364
O2    O     O_3   0.120232 0.418929 0.180608 -0.768716
O3    O     O_3   0.066822 0.588375 0.821643 -0.735237
O4    O     O_3   0.937594 0.377389 0.193471 -0.747733
O5    O     O_R   0.629740 0.417720 0.499970 -0.505282
O6    O     O_R   0.629740 0.582280 0.499970 -0.516336
O7    O     O_R   0.370260 0.417720 0.500030 -0.514408
O8    O     O_R   0.499980 0.582260 0.316850 -0.504787
O9    O     O_R   0.500020 0.417740 0.683150 -0.504808
O10   O     O_R   0.500020 0.582260 0.683150 -0.495401
O11   O     O_R   0.499980 0.417740 0.316850 -0.494731
O12   O     O_3   0.886239 0.607971 0.806307 -0.748703

loop_
_geom_bond_atom_site_label_1
_geom_bond_atom_site_label_2
_ccdc_geom_bond_type
Cu1   Cu2   S    
C8    C13   A    
C23   C45   A    
C34   C37   A    
C6    H55   S    
C30   C51   A    
C44   H27   S    
C3    H23   S    
C49   H48   S    
H7    N10   S    
H35   O2    S    
C30   N2    S    
C43   H22   S    
C7    C11   A    
C54   O3    S    
C34   C51   A    
Cu1   O10   S    
C50   N6    S    
C35   C37   A    
C9    C16   A    
C44   H26   S    
H11   N11   S    
C38   H58   S    
H38   N3    S    
C22   N12   S    
C20   C25   S    
C10   C17   A    
C15   C16   A    
C50   H54   S    
C33   C36   A    
C39   N9    S    
C39   H6    S    
Cu2   O5    S    
C17   N6    S    
C38   H2    S    
C7    C14   A    
Cu1   O1    S    
C24   N13   S    
C2    O4    S    
C47   H40   S    
C31   C33   A    
C18   O8    A    
H37   O4    S    
C19   C27   S    
C25   N8    S    
C46   H32   S    
C36   C52   A    
C41   H15   S    
C37   C53   A    
C23   C34   A    
C21   C27   S    
C40   H10   S    
C5    N1    A    
C50   H52   S    
C14   C17   A    
C48   H44   S    
C21   C26   S    
C52   C54   A    
H42   N4    S    
C4    H34   S    
C2    C45   A    
H3    N9    S    
C39   H5    S    
C5    H45   S    
C42   H18   S    
C32   C35   A    
C41   N11   S    
H36   O3    S    
C18   C28   S    
C24   C25   S    
C16   N5    S    
C43   N13   S    
C5    C7    A    
Cu2   O11   S    
C48   N4    S    
C20   C28   S    
C43   H24   S    
C10   C13   A    
C50   H53   S    
H16   N12   S    
H56   N8    S    
C3    C9    A    
C19   O9    A    
C14   N3    S    
C48   H46   S    
C42   H19   S    
C40   N10   S    
C9    C11   A    
C38   N8    S    
C6    C8    A    
C20   C22   S    
C8    C15   A    
C40   H9    S    
C12   C31   S    
C22   C27   S    
C21   C24   S    
C43   H21   S    
C26   N9    S    
C21   N11   S    
H51   N6    S    
Cu2   O7    S    
C41   H13   S    
C46   H31   S    
C38   H57   S    
C48   H43   S    
C44   N14   S    
C42   H17   S    
C33   H1    S    
C26   C28   S    
H29   N2    S    
H47   N5    S    
C24   C28   S    
C44   H28   S    
C2    C53   A    
C40   H8    S    
C49   H49   S    
C49   H50   S    
C25   C27   S    
Cu1   O6    S    
C1    O1    A    
C47   H41   S    
C15   N4    S    
C46   N2    S    
C12   O5    A    
C51   C54   A    
Cu2   N7    S    
H25   N14   S    
C3    N1    A    
C30   C32   A    
Cu2   O9    S    
C11   C13   A    
C49   N5    S    
Cu1   N1    S    
C35   H12   S    
C19   O10   A    
C39   H4    S    
C52   O12   S    
C4    N7    A    
C1    C32   S    
C18   O11   A    
C20   N10   S    
C42   N12   S    
C47   N3    S    
C29   C31   A    
C23   C36   A    
C22   C26   S    
C29   N14   S    
C29   C45   A    
H20   N13   S    
C47   H39   S    
H33   O12   S    
C12   O6    A    
C53   O2    S    
C6    N7    A    
C1    O7    A    
C4    C10   A    
Cu1   O8    S    
C41   H14   S    
C46   H30   S    
