data_mof_unit_61435.cif
_audit_creation_date              2012-12-10T20:16:56-0500
_audit_creation_method            fapswitch 2.2
_symmetry_space_group_name_H-M    P1
_symmetry_Int_Tables_number       1
_space_group_crystal_system       triclinic
_cell_length_a                    19.041772
_cell_length_b                    18.416113
_cell_length_c                    19.094493
_cell_angle_alpha                 90.053876
_cell_angle_beta                  90.135383
_cell_angle_gamma                 89.995561
_cell_volume                      6695.94777384

loop_
_atom_site_label
_atom_site_type_symbol
_atom_type_description
_atom_site_fract_x
_atom_site_fract_y
_atom_site_fract_z
_atom_type_partial_charge
C1    C     C_R   0.365343 0.499960 0.498632 0.990247
C2    C     C_R   0.963417 0.419355 0.442871 -0.162915
C3    C     C_R   0.072892 0.485183 0.438743 0.140924
C4    C     C_R   0.926845 0.485269 0.438849 0.141655
C5    C     C_R   0.540698 0.725938 0.546949 -0.040837
C6    C     C_R   0.458264 0.273924 0.454088 -0.040654
C7    C     C_R   0.459524 0.726019 0.452992 -0.025288
C8    C     C_R   0.541807 0.274166 0.545973 -0.030525
C9    C     C_R   0.541789 0.802185 0.548090 0.285942
C10   C     C_R   0.457352 0.197678 0.453027 0.285836
C11   C     C_R   0.458594 0.802254 0.451941 0.281577
C12   C     C_R   0.634652 0.499968 0.498757 0.981227
C13   C     C_R   0.542872 0.197930 0.547155 0.283880
C14   C     C_R   0.500206 0.841657 0.500059 -0.109915
C15   C     C_R   0.500146 0.158337 0.500126 -0.109603
C16   C     C_R   0.439220 0.961844 0.517616 -0.088710
C17   C     C_R   0.561203 0.038090 0.482704 -0.088912
C18   C     C_R   0.561227 0.961833 0.482719 -0.081599
C19   C     C_R   0.439218 0.038098 0.517683 -0.081134
C20   C     C_R   0.500199 0.077081 0.500193 0.188656
C21   C     C_R   0.500226 0.922878 0.500144 0.190004
C22   C     C_R   0.501152 0.499982 0.365077 0.924126
C23   C     C_R   0.851535 0.487364 0.452665 -0.034815
C24   C     C_R   0.501422 0.500025 0.634921 0.900451
C25   C     C_R   0.518107 0.565968 0.253641 -0.085333
C26   C     C_R   0.520301 0.434232 0.746284 -0.123359
C27   C     C_R   0.518904 0.566031 0.746512 -0.167137
C28   C     C_R   0.519079 0.434168 0.253551 -0.172991
C29   C     C_R   0.533315 0.566088 0.182660 -0.128331
C30   C     C_R   0.535579 0.434330 0.817332 -0.124494
C31   C     C_R   0.534180 0.566143 0.817558 -0.127729
C32   C     C_R   0.534262 0.434271 0.182555 -0.131138
C33   C     C_R   0.541337 0.500235 0.146560 0.064861
C34   C     C_R   0.148247 0.487216 0.452515 -0.035787
C35   C     C_R   0.542338 0.500288 0.853549 0.065954
C36   C     C_R   0.511041 0.500012 0.289499 -0.031253
C37   C     C_R   0.511823 0.500080 0.710496 -0.042024
C38   C     C_R   0.552199 0.500340 0.929423 0.304337
C39   C     C_R   0.551610 0.500313 0.070789 0.304810
C40   C     C_R   0.753686 0.455172 0.527029 0.344812
C41   C     C_R   0.262947 0.536249 0.427143 0.343895
C42   C     C_R   0.246326 0.455750 0.527305 0.347473
C43   C     C_R   0.736849 0.537144 0.427913 0.347252
C44   C     C_R   0.824418 0.449692 0.510304 -0.180189
C45   C     C_R   0.709607 0.499211 0.485946 -0.227873
C46   C     C_R   0.192055 0.530176 0.411073 -0.181989
C47   C     C_R   0.175515 0.450199 0.510593 -0.182135
C48   C     C_R   0.807636 0.531010 0.411753 -0.191698
C49   C     C_R   0.290332 0.499145 0.485729 -0.233068
C50   C     C_R   0.963479 0.550488 0.429299 -0.154895
C51   C     C_R   0.036303 0.419317 0.442852 -0.159201
C52   C     C_R   0.036286 0.550439 0.429222 -0.155631
Cl1   Cl    Cl    0.722532 0.407793 0.600920 -0.578160
Cl2   Cl    Cl    0.316163 0.587216 0.369874 -0.602243
Cl3   Cl    Cl    0.277689 0.409223 0.601733 -0.567576
Cl4   Cl    Cl    0.683594 0.589467 0.371513 -0.596179
Cl5   Cl    Cl    0.593899 0.846050 0.611577 -0.546962
Cl6   Cl    Cl    0.403977 0.153702 0.390659 -0.547494
Cl7   Cl    Cl    0.406638 0.846175 0.388438 -0.523676
Cl8   Cl    Cl    0.596362 0.154299 0.609575 -0.526571
H1    H     H_    0.512667 0.617505 0.280483 0.184989
H2    H     H_    0.171176 0.558430 0.365826 0.187548
H3    H     H_    0.141429 0.418250 0.543880 0.185766
H4    H     H_    0.828362 0.559812 0.366860 0.185176
H5    H     H_    0.936008 0.601929 0.426703 0.156033
H6    H     H_    0.064112 0.368403 0.449099 0.158704
H7    H     H_    0.063826 0.601827 0.426548 0.156851
H8    H     H_    0.935619 0.368454 0.449090 0.157121
H9    H     H_    0.572305 0.695562 0.583872 0.173915
H10   H     H_    0.425725 0.304194 0.417894 0.176518
H11   H     H_    0.428028 0.695747 0.415907 0.212677
H12   H     H_    0.515809 0.382627 0.719367 0.177651
H13   H     H_    0.574289 0.304628 0.582123 0.200885
H14   H     H_    0.391636 0.933112 0.531517 0.168620
H15   H     H_    0.608770 0.066802 0.468708 0.169124
H16   H     H_    0.608814 0.933091 0.468778 0.170840
H17   H     H_    0.391633 0.066815 0.531671 0.172288
H18   H     H_    0.513275 0.617569 0.719780 0.171391
H19   H     H_    0.514401 0.382567 0.280323 0.171755
H20   H     H_    0.538103 0.617772 0.156103 0.168730
H21   H     H_    0.541315 0.382723 0.843866 0.169710
H22   H     H_    0.538797 0.617822 0.844272 0.168676
H23   H     H_    0.539789 0.382664 0.155907 0.167358
H24   H     H_    0.858560 0.417259 0.543259 0.186913
N1    N     N_R   0.553398 0.436891 0.034783 -0.158181
N2    N     N_R   0.552840 0.563777 0.965448 -0.157241
N3    N     N_R   0.553682 0.436904 0.965314 -0.156208
N4    N     N_R   0.552558 0.563764 0.034915 -0.155879
N5    N     N_R   0.500000 0.689440 0.500000 -0.142342
N6    N     N_R   0.500000 0.310560 0.500000 -0.144846
O1    O     O_R   0.398180 0.560840 0.499980 -0.586450
O2    O     O_R   0.601820 0.439160 0.500020 -0.592693
O3    O     O_R   0.601820 0.560840 0.500020 -0.582416
O4    O     O_R   0.398180 0.439160 0.499980 -0.585247
O5    O     O_R   0.499990 0.560830 0.398130 -0.588400
O6    O     O_R   0.500010 0.439170 0.601870 -0.605416
O7    O     O_R   0.500010 0.560830 0.601870 -0.635168
O8    O     O_R   0.499990 0.439170 0.398130 -0.640748
Zn1   Zn    Zn3+2 0.500000 0.581210 0.500000 1.021705
Zn2   Zn    Zn3+2 0.500000 0.418790 0.500000 1.012391

loop_
_geom_bond_atom_site_label_1
_geom_bond_atom_site_label_2
_ccdc_geom_bond_type
C8    C13   A    
C22   O8    A    
C18   C21   A    
C26   H12   S    
C22   O5    A    
C19   C20   A    
C27   H18   S    
C13   Cl8   S    
C7    C11   A    
C33   C39   S    
C31   H22   S    
C30   C35   A    
N5    Zn1   S    
C16   H14   S    
C14   C21   S    
C10   Cl6   S    
C2    H8    S    
C10   C15   A    
C24   O6    A    
C7    H11   S    
C11   C14   A    
N2    N4    A    
C48   H4    S    
C7    N5    A    
C29   C33   A    
C17   C20   A    
C41   C49   A    
C19   H17   S    
C28   H19   S    
C5    H9    S    
C1    O4    A    
C50   C52   A    
C41   C46   A    
C34   C46   A    
C38   N2    A    
C43   C48   A    
O3    Zn1   S    
C9    Cl5   S    
C1    O1    A    
C40   C45   A    
C39   N4    A    
C11   Cl7   S    
N6    Zn2   S    
O7    Zn1   S    
C24   C37   S    
N1    N3    A    
C25   C29   A    
C15   C20   S    
C27   C31   A    
C24   O7    A    
C28   C32   A    
C35   C38   S    
C4    C23   S    
C3    C51   A    
C42   C49   A    
C3    C34   S    
C6    N6    A    
C23   C44   A    
C4    C50   A    
C51   H6    S    
C2    C4    A    
C9    C14   A    
C5    C9    A    
C42   Cl3   S    
O4    Zn2   S    
C17   C18   A    
C26   C37   A    
C25   H1    S    
C43   C45   A    
C52   H7    S    
C46   H2    S    
C26   C30   A    
O8    Zn2   S    
C13   C15   A    
C31   C35   A    
C12   O3    A    
C8    N6    A    
C39   N1    A    
O2    Zn2   S    
C6    H10   S    
C32   H23   S    
C18   H16   S    
C23   C48   A    
C12   O2    A    
C12   C45   S    
C44   H24   S    
C6    C10   A    
C3    C52   A    
C16   C21   A    
C22   C36   S    
C38   N3    A    
C32   C33   A    
C30   H21   S    
C47   H3    S    
C29   H20   S    
C27   C37   A    
C16   C19   A    
O6    Zn2   S    
C8    H13   S    
O5    Zn1   S    
C42   C47   A    
C50   H5    S    
C41   Cl2   S    
C2    C51   A    
C25   C36   A    
C43   Cl4   S    
C40   C44   A    
C28   C36   A    
C40   Cl1   S    
C17   H15   S    
C34   C47   A    
O1    Zn1   S    
C1    C49   S    
C5    N5    A    
