data_mof_unit_32842.cif
_audit_creation_date              2012-12-10T21:10:46-0500
_audit_creation_method            fapswitch 2.2
_symmetry_space_group_name_H-M    P1
_symmetry_Int_Tables_number       1
_space_group_crystal_system       triclinic
_cell_length_a                    17.520561
_cell_length_b                    16.69103
_cell_length_c                    10.647476
_cell_angle_alpha                 90.137628
_cell_angle_beta                  90.072642
_cell_angle_gamma                 90.059156
_cell_volume                      3113.69436491

loop_
_atom_site_label
_atom_site_type_symbol
_atom_type_description
_atom_site_fract_x
_atom_site_fract_y
_atom_site_fract_z
_atom_type_partial_charge
C1    C     C_R   0.352932 0.499979 0.497880 0.894538
C2    C     C_R   0.114374 0.500393 0.435491 0.113314
C3    C     C_1   0.965942 0.499908 0.422475 -0.031616
C4    C     C_1   0.033742 0.500102 0.423670 -0.031077
C5    C     C_R   0.453163 0.832012 0.416918 -0.276674
C6    C     C_R   0.546932 0.832446 0.582621 -0.275171
C7    C     C_R   0.454079 0.747722 0.418398 0.010585
C8    C     C_R   0.545972 0.748147 0.581419 0.007380
C9    C     C_R   0.500044 0.875330 0.499725 0.162845
C10   C     C_1   0.500012 0.963008 0.499688 -0.051263
C11   C     C_1   0.499988 0.036130 0.499715 -0.008394
C12   C     C_R   0.647058 0.500080 0.497934 0.894464
C13   C     C_R   0.511508 0.500010 0.260130 0.907676
C14   C     C_R   0.489053 0.500219 0.740167 0.908526
C15   C     C_R   0.451846 0.167612 0.417575 0.095679
C16   C     C_R   0.548102 0.167881 0.582180 0.095161
C17   C     C_R   0.453005 0.252192 0.420196 -0.031458
C18   C     C_R   0.546963 0.252454 0.579750 -0.031287
C19   C     C_R   0.499980 0.124312 0.499813 0.115485
C20   C     C_R   0.544270 0.647201 0.112363 -0.186424
C21   C     C_R   0.461752 0.648698 0.890081 -0.187713
C22   C     C_R   0.526275 0.720871 0.056910 0.228983
C23   C     C_R   0.729348 0.500217 0.480526 -0.135080
C24   C     C_R   0.481697 0.721666 0.946812 0.227849
C25   C     C_R   0.485934 0.574614 0.940800 0.012804
C26   C     C_R   0.518097 0.574046 0.060375 0.012654
C27   C     C_R   0.522702 0.500270 0.124860 -0.189633
C28   C     C_R   0.478885 0.500954 0.875692 -0.191119
C29   C     C_R   0.515803 0.426880 0.059803 0.172016
C30   C     C_R   0.484015 0.427340 0.940103 0.171424
C31   C     C_R   0.844810 0.572667 0.428018 0.193533
C32   C     C_R   0.152519 0.573528 0.456561 0.190758
C33   C     C_R   0.766993 0.572117 0.453527 -0.223343
C34   C     C_R   0.270487 0.499868 0.481954 -0.135107
C35   C     C_R   0.230712 0.572519 0.479675 -0.208134
C36   C     C_3   0.545001 0.348641 0.114049 -0.842019
C37   C     C_3   0.452730 0.349901 0.885327 -0.842709
C38   C     C_3   0.399492 0.124815 0.327396 -0.935376
C39   C     C_3   0.600412 0.125373 0.672311 -0.935152
C40   C     C_3   0.553368 0.797511 0.117468 -0.922269
C41   C     C_3   0.456373 0.799246 0.887905 -0.924082
C42   C     C_3   0.881804 0.652161 0.398678 -0.932227
C43   C     C_3   0.110696 0.652478 0.455189 -0.927394
C44   C     C_3   0.890278 0.348476 0.463647 -0.922373
C45   C     C_R   0.769590 0.427900 0.481928 -0.206855
C46   C     C_3   0.113566 0.348319 0.415342 -0.920812
C47   C     C_R   0.232104 0.427495 0.460499 -0.206671
C48   C     C_R   0.847690 0.426918 0.458242 0.187898
C49   C     C_R   0.153934 0.427022 0.437087 0.187820
C50   C     C_R   0.885227 0.499670 0.431790 0.119687
H1    H     H_    0.573315 0.312420 0.039982 0.229491
H2    H     H_    0.633980 0.168324 0.730062 0.235312
H3    H     H_    0.566307 0.087274 0.736647 0.250068
H4    H     H_    0.640950 0.087053 0.619252 0.250420
H5    H     H_    0.416259 0.286035 0.358150 0.139807
H6    H     H_    0.583688 0.286496 0.641919 0.140855
H7    H     H_    0.579921 0.647235 0.195494 0.164939
H8    H     H_    0.425719 0.650141 0.807481 0.167269
H9    H     H_    0.586479 0.785943 0.204603 0.240730
H10   H     H_    0.590678 0.830737 0.051404 0.243740
H11   H     H_    0.503695 0.835440 0.142745 0.246492
H12   H     H_    0.589383 0.359229 0.186791 0.243132
H13   H     H_    0.422866 0.788938 0.800692 0.241757
H14   H     H_    0.419952 0.833027 0.954773 0.244476
H15   H     H_    0.506915 0.836084 0.863221 0.245388
H16   H     H_    0.942569 0.646616 0.371715 0.249246
H17   H     H_    0.851426 0.680853 0.319011 0.242740
H18   H     H_    0.878039 0.692045 0.482044 0.245016
H19   H     H_    0.065463 0.652506 0.528150 0.249779
H20   H     H_    0.149544 0.703726 0.474313 0.239243
H21   H     H_    0.084313 0.661761 0.361517 0.242303
H22   H     H_    0.735685 0.628087 0.450466 0.172101
H23   H     H_    0.497152 0.313487 0.154323 0.243996
H24   H     H_    0.260637 0.628537 0.495297 0.164765
H25   H     H_    0.740206 0.372208 0.501956 0.165905
H26   H     H_    0.263112 0.371340 0.461013 0.165986
H27   H     H_    0.851432 0.297145 0.481667 0.239326
H28   H     H_    0.919764 0.337547 0.372961 0.247224
H29   H     H_    0.933072 0.350662 0.540525 0.243802
H30   H     H_    0.153865 0.296983 0.416060 0.238523
H31   H     H_    0.070795 0.338458 0.490490 0.246028
H32   H     H_    0.084300 0.349173 0.322788 0.245725
H33   H     H_    0.416272 0.863043 0.351453 0.140410
H34   H     H_    0.423484 0.314474 0.959160 0.229680
H35   H     H_    0.583855 0.863825 0.647955 0.140599
H36   H     H_    0.418017 0.714603 0.354066 0.138507
H37   H     H_    0.582029 0.715365 0.645834 0.139299
H38   H     H_    0.408623 0.361652 0.812699 0.242072
H39   H     H_    0.499617 0.313455 0.844758 0.244494
H40   H     H_    0.365891 0.167582 0.269816 0.235151
H41   H     H_    0.433567 0.086667 0.262908 0.250090
H42   H     H_    0.358982 0.086508 0.380403 0.250433
N1    N     N_R   0.500000 0.707230 0.500000 -0.096373
N2    N     N_R   0.500000 0.292770 0.500000 -0.121890
O1    O     O_R   0.389110 0.566570 0.499990 -0.628155
O2    O     O_R   0.610890 0.566570 0.500010 -0.628837
O3    O     O_R   0.389090 0.433480 0.499980 -0.625130
O4    O     O_R   0.610910 0.433480 0.500020 -0.624772
O5    O     O_R   0.500000 0.566560 0.316760 -0.626769
O6    O     O_R   0.500000 0.566560 0.683240 -0.626719
O7    O     O_R   0.499970 0.433470 0.316760 -0.609311
O8    O     O_R   0.500030 0.433470 0.683240 -0.608152
Zn1   Zn    Zn3+2 0.500000 0.588860 0.500000 0.929105
Zn2   Zn    Zn3+2 0.500000 0.411140 0.500000 0.931039

loop_
_geom_bond_atom_site_label_1
_geom_bond_atom_site_label_2
_ccdc_geom_bond_type
O5    Zn1   S    
C35   H24   S    
C23   C45   A    
C31   C42   S    
C27   C29   A    
C37   H38   S    
N1    Zn1   S    
C6    C9    A    
C47   C49   A    
C25   C28   A    
C15   C19   A    
C29   C36   S    
C11   C19   S    
C26   C27   A    
C6    H35   S    
C40   H10   S    
C44   H27   S    
C47   H26   S    
C5    H33   S    
C14   O8    A    
C7    H36   S    
C38   H42   S    
C2    C32   A    
C34   C35   A    
C33   H22   S    
C46   H32   S    
C23   C33   A    
C31   C33   A    
C37   H34   S    
C9    C10   S    
C17   H5    S    
C12   O4    A    
C18   H6    S    
C48   C50   A    
C39   H2    S    
N2    Zn2   S    
C43   H19   S    
C40   H9    S    
C42   H18   S    
C24   C41   S    
C36   H12   S    
C3    C50   S    
O1    Zn1   S    
C1    C34   S    
C7    N1    A    
C32   C35   A    
C36   H23   S    
C1    O3    A    
C5    C7    A    
C6    C8    A    
C25   C26   A    
C38   H41   S    
O6    Zn1   S    
C40   H11   S    
C30   C37   S    
C13   O5    A    
C2    C4    S    
C15   C38   S    
C5    C9    A    
C29   C30   A    
C2    C49   A    
C46   H31   S    
C12   C23   S    
C1    O1    A    
C22   C40   S    
O8    Zn2   S    
C36   H1    S    
C20   C22   A    
O7    Zn2   S    
C42   H17   S    
C18   N2    A    
C46   C49   S    
C21   C24   A    
C41   H13   S    
C31   C50   A    
C13   O7    A    
C3    C4    T    
C45   C48   A    
C15   C17   A    
C21   C25   A    
C43   H21   S    
C44   H29   S    
C12   O2    A    
C8    N1    A    
C41   H15   S    
C14   O6    A    
C34   C47   A    
C43   H20   S    
C38   H40   S    
C37   H39   S    
C45   H25   S    
C8    H37   S    
C44   H28   S    
C21   H8    S    
C46   H30   S    
C39   H3    S    
C20   C26   A    
C16   C19   A    
O4    Zn2   S    
C28   C30   A    
C32   C43   S    
C22   C24   A    
O3    Zn2   S    
C10   C11   T    
C16   C39   S    
C39   H4    S    
C16   C18   A    
O2    Zn1   S    
C42   H16   S    
C13   C27   S    
C17   N2    A    
C41   H14   S    
C14   C28   S    
C20   H7    S    
C44   C48   S    
