data_mof_unit_19230.cif
_audit_creation_date              2013-03-05T15:55:42-0500
_audit_creation_method            fapswitch 2.2
_symmetry_space_group_name_H-M    P1
_symmetry_Int_Tables_number       1
_space_group_crystal_system       triclinic
_cell_length_a                    6.919837
_cell_length_b                    17.752296
_cell_length_c                    19.434868
_cell_angle_alpha                 108.549121
_cell_angle_beta                  89.563464
_cell_angle_gamma                 90.472015
_cell_volume                      2263.3047926

loop_
_atom_site_label
_atom_site_type_symbol
_atom_site_description
_atom_site_fract_x
_atom_site_fract_y
_atom_site_fract_z
_atom_type_partial_charge
O1    O     O_R   0.494330 0.415710 0.413720 -0.559145
O2    O     O_R   0.819360 0.430070 0.560210 -0.580269
O3    O     O_R   0.994320 0.584290 0.586280 -0.583152
C1    C     C_R   0.651183 0.415973 0.582631 1.079486
O4    O     O_R   0.823740 0.406290 0.412670 -0.562099
O5    O     O_R   0.998730 0.560340 0.437690 -0.579700
C2    C     C_R   0.654826 0.383320 0.384491 1.201376
O6    O     O_R   0.489920 0.439660 0.562310 -0.560427
O7    O     O_3   0.662330 0.550570 0.508380 -0.241798
V1    V     V_3+5 0.935370 0.490620 0.498440 1.407094
O8    O     O_R   0.328720 0.569930 0.439790 -0.558762
C3    C     C_R   0.160578 0.585091 0.418290 1.133734
O9    O     O_R   0.324340 0.593710 0.587330 -0.550320
C4    C     C_R   0.153516 0.616864 0.615527 1.166457
V2    V     V_3+5 0.435940 0.509380 0.501560 1.424666
O10   O     O_3   0.159110 0.449430 0.491620 -0.240654
C5    C     C_R   0.285192 0.743018 0.703396 0.705111
C6    C     C_R   0.280603 0.804992 0.769362 0.699722
C7    C     C_R   0.120698 0.814817 0.816462 -0.735106
C8    C     C_R   0.967290 0.760116 0.796682 0.715766
C9    C     C_R   0.972476 0.695971 0.731723 0.212219
C10   C     C_R   0.136135 0.685715 0.684206 -0.690874
C11   C     C_R   0.289576 0.625163 0.313893 0.887911
C12   C     C_R   0.152375 0.634904 0.369600 -0.613158
C13   C     C_R   0.006675 0.692047 0.378961 0.804052
C14   C     C_R   0.992790 0.738401 0.331719 -0.201772
C15   C     C_R   0.132462 0.728284 0.275650 -0.077823
C16   C     C_R   0.282361 0.672013 0.267355 -0.324580
C17   C     C_R   0.846413 0.796015 0.339915 0.203836
C18   C     C_R   0.838249 0.841230 0.292595 0.675114
C19   C     C_R   0.975248 0.831498 0.236193 -0.163756
C20   C     C_R   0.124337 0.775096 0.228308 -0.059083
C21   C     C_R   0.266639 0.765704 0.173417 -0.318948
C22   C     C_R   0.416065 0.710487 0.166970 0.675707
C23   C     C_R   0.423523 0.664281 0.213047 0.676674
C24   C     C_R   0.968478 0.877464 0.188186 0.373301
C25   C     C_R   0.109714 0.867416 0.132975 -0.562439
C26   C     C_R   0.257456 0.811610 0.126125 0.905045
C27   C     C_R   0.755599 0.195836 0.880179 0.332323
C28   C     C_R   0.620968 0.133160 0.868146 -0.420668
C29   C     C_R   0.493270 0.116117 0.808770 0.358719
C30   C     C_R   0.487234 0.166047 0.764348 -0.130248
C31   C     C_R   0.627004 0.227759 0.775070 0.080515
C32   C     C_R   0.763475 0.242618 0.832815 -0.087613
C33   C     C_R   0.348232 0.154840 0.708221 0.212002
C34   C     C_R   0.354059 0.201267 0.661688 0.264463
C35   C     C_R   0.495488 0.261298 0.670590 -0.255081
C36   C     C_R   0.632874 0.273966 0.727001 0.001266
C37   C     C_R   0.779843 0.331707 0.734279 0.011762
C38   C     C_R   0.916432 0.343373 0.789472 -0.173186
C39   C     C_R   0.905868 0.302815 0.839864 0.324375
C40   C     C_R   0.501779 0.309547 0.624824 0.824701
C41   C     C_R   0.646519 0.367296 0.632435 -0.518081
C42   C     C_R   0.789964 0.376720 0.686043 0.324838
H1    H     H_    0.032200 0.386293 0.795840 0.207792
C43   C     C_R   0.802211 0.264315 0.290700 0.671173
C44   C     C_R   0.791771 0.200927 0.225763 0.716121
C45   C     C_R   0.621600 0.185854 0.183776 -0.790388
C46   C     C_R   0.463487 0.237200 0.208279 0.679250
C47   C     C_R   0.474479 0.301027 0.272962 0.694692
C48   C     C_R   0.643691 0.315335 0.315471 -0.793483
O11   O     O_R   0.774940 0.060470 0.937800 -0.581748
O12   O     O_R   0.440880 0.093730 0.087350 -0.561021
O13   O     O_R   0.266130 0.939630 0.062280 -0.567178
C49   C     C_R   0.609918 0.117178 0.115265 1.220748
O14   O     O_R   0.445480 0.069960 0.939820 -0.563474
O15   O     O_R   0.270770 0.915690 0.913690 -0.560695
C50   C     C_R   0.614216 0.083830 0.917335 1.060504
O16   O     O_R   0.770300 0.084410 0.086380 -0.556720
O17   O     O_3   0.602600 0.949510 0.991670 -0.250586
V3    V     V_3+5 0.329470 0.009370 0.001550 1.425766
O18   O     O_R   0.940760 0.906160 0.912560 -0.561104
C51   C     C_R   0.110179 0.883126 0.884798 1.199586
O19   O     O_R   0.936150 0.929930 0.060100 -0.580453
C52   C     C_R   0.103901 0.915563 0.082420 1.079651
V4    V     V_3+5 0.828930 0.990450 0.998310 1.417467
O20   O     O_3   0.105670 0.050490 0.008320 -0.239429
F1    F     F_    0.431356 0.742083 0.656282 -0.566855
F2    F     F_    0.389451 0.800744 0.071693 -0.598412
F3    F     F_    0.557556 0.700925 0.116127 -0.568742
F4    F     F_    0.571830 0.612383 0.204467 -0.573805
N1    N     N_R   0.887150 0.209465 0.939621 0.253464
O21   O     O_R   0.822781 0.237071 0.005955 -0.336852
O22   O     O_R   0.060915 0.180532 0.927843 -0.300703
N2    N     N_R   0.393660 0.041092 0.787265 0.248155
O23   O     O_R   0.234902 0.031308 0.819778 -0.326460
O24   O     O_R   0.457012 0.983631 0.731922 -0.251921
N3    N     N_R   0.193470 0.098358 0.698909 0.277177
O25   O     O_R   0.183407 0.037954 0.639729 -0.228207
O26   O     O_R   0.044564 0.115734 0.742115 -0.350574
N4    N     N_R   0.214907 0.185467 0.604461 0.302801
O27   O     O_R   0.033676 0.202098 0.619725 -0.331369
O28   O     O_R   0.264558 0.143932 0.538691 -0.217477
F5    F     F_    0.371688 0.299295 0.570554 -0.615252
N5    N     N_R   0.947154 0.431579 0.691344 0.227033
O29   O     O_R   0.959766 0.495121 0.747520 -0.361525
O30   O     O_R   0.097949 0.408964 0.649806 -0.339902
F6    F     F_    0.431492 0.856809 0.785930 -0.573752
N6    N     N_R   0.041185 0.325746 0.898324 0.263097
O31   O     O_R   0.983783 0.370943 0.961830 -0.254410
O32   O     O_R   0.225487 0.319148 0.884061 -0.354952
F7    F     F_    0.967632 0.274504 0.329822 -0.561789
F8    F     F_    0.948951 0.153691 0.204881 -0.562227
F9    F     F_    0.298582 0.227185 0.168888 -0.557222
F10   F     F_    0.319627 0.349826 0.292850 -0.572122
F11   F     F_    0.809459 0.768977 0.840574 -0.586518
N7    N     N_R   0.807325 0.643748 0.715209 0.275963
O33   O     O_R   0.700159 0.641938 0.660176 -0.294561
O34   O     O_R   0.730591 0.619759 0.765991 -0.274980
F12   F     F_    0.429112 0.569320 0.304967 -0.602934
F13   F     F_    0.884573 0.703899 0.436420 -0.614807
N8    N     N_R   0.703681 0.810370 0.396421 0.305336
O35   O     O_R   0.570769 0.757303 0.393592 -0.326371
O36   O     O_R   0.685453 0.881254 0.442876 -0.212479
F14   F     F_    0.692143 0.894333 0.302509 -0.605489
N9    N     N_R   0.824264 0.937330 0.197387 0.274242
O37   O     O_R   0.654562 0.918628 0.168389 -0.310962
O38   O     O_R   0.862171 0.010485 0.235554 -0.293598

loop_
_geom_bond_atom_site_label_1
_geom_bond_atom_site_label_2
_geom_bond_distance
_ccdc_geom_bond_type
O14   C50   1.292629 A    
O12   C49   1.301463 A    
C1    C41   1.488589 S    
C29   C30   1.421544 A    
C17   N8    1.433892 S    
N5    O29   1.299345 A    
O18   V4    2.007005 S    
N8    O36   1.300981 A    
C23   F4    1.358328 S    
C41   C42   1.414520 A    
N9    O37   1.300557 A    
C14   C15   1.419898 A    
C17   C18   1.401574 A    
O19   V4    1.998609 S    
C46   F9    1.357648 S    
C24   C25   1.415443 A    
C6    C7    1.406734 A    
O5    C3    1.296298 A    
C18   C19   1.412991 A    
C26   F2    1.359751 S    
C37   C42   1.413144 A    
C43   C44   1.400269 A    
O16   V4    2.015101 S    
C22   C23   1.395043 A    
O13   V3    2.007684 S    
C2    C48   1.493958 S    
C22   F3    1.358345 S    
O8    V2    1.998698 S    
C19   C20   1.416803 A    
C16   C23   1.407605 A    
N9    O38   1.300013 A    
C11   C12   1.404058 A    
C40   F5    1.358521 S    
O17   V3    2.153136 S    
O15   C51   1.294904 A    
C31   C36   1.426074 A    
C1    O6    1.303132 A    
C25   C52   1.494312 S    
C46   C47   1.401343 A    
O9    C4    1.312014 A    
N7    O34   1.301171 A    
O11   V4    2.003009 S    
N8    O35   1.299977 A    
C38   C39   1.389099 A    
C8    F11   1.359604 S    
C18   F14   1.358370 S    
N2    O24   1.300660 A    
C39   N6    1.431439 S    
C44   F8    1.357439 S    
O19   C52   1.297554 A    
C35   C36   1.418399 A    
C7    C51   1.488273 S    
C33   N3    1.433469 S    
C12   C13   1.405444 A    
N4    O27   1.301003 A    
O4    C2    1.300865 A    
C34   N4    1.433965 S    
C45   C46   1.409620 A    
N2    O23   1.300933 A    
C47   C48   1.412243 A    
C30   C33   1.424583 A    
O2    C1    1.289841 A    
C31   C32   1.429888 A    
C25   C26   1.405380 A    
N4    O28   1.301313 A    
C45   C49   1.494311 S    
O14   V3    2.008184 S    
N7    O33   1.297983 A    
C38   H1    1.081233 S    
C8    C9    1.406108 A    
C5    C6    1.399150 A    
C43   C48   1.409339 A    
C11   C16   1.411458 A    
V4    O20   2.163611 S    
C42   N5    1.436174 S    
C9    N7    1.437820 S    
O3    C4    1.288779 A    
O1    V2    2.009274 S    
C32   C39   1.422385 A    
C36   C37   1.413426 A    
N6    O32   1.301325 A    
O12   V3    2.007343 S    
C37   C38   1.399196 A    
O6    V2    2.002361 S    
N1    O22   1.301235 A    
O9    V2    2.006965 S    
O17   V4    1.709500 S    
C30   C31   1.421071 A    
C27   C32   1.422980 A    
O2    V1    2.008268 S    
V3    O20   1.703801 S    
C40   C41   1.401733 A    
O7    V1    2.153256 S    
C11   F12   1.359768 S    
C34   C35   1.411204 A    
C28   C29   1.411746 A    
C15   C20   1.424201 A    
O1    C2    1.296087 A    
C21   C26   1.411103 A    
C27   N1    1.434010 S    
N3    O26   1.299716 A    
O18   C51   1.300238 A    
O5    V1    2.007730 S    
O8    C3    1.298044 A    
N5    O30   1.299844 A    
C35   C40   1.417817 A    
C29   N2    1.434833 S    
C3    C12   1.488191 S    
C5    C10   1.408897 A    
N6    O31   1.301011 A    
O11   C50   1.298616 A    
C20   C21   1.417414 A    
C4    C10   1.500660 S    
C7    C8    1.403350 A    
C13   C14   1.418696 A    
C43   F7    1.357746 S    
O4    V1    2.007328 S    
O3    V1    2.009778 S    
V1    O10   1.703869 S    
C44   C45   1.412323 A    
C49   O16   1.295610 A    
C5    F1    1.355797 S    
O13   C52   1.299147 A    
C21   C22   1.407944 A    
O15   V3    2.009755 S    
O7    V2    1.711447 S    
C13   F13   1.358038 S    
C27   C28   1.407581 A    
C33   C34   1.404243 A    
N3    O25   1.301098 A    
C14   C17   1.417176 A    
N1    O21   1.301321 A    
C28   C50   1.488032 S    
C15   C16   1.418411 A    
C19   C24   1.422766 A    
C6    F6    1.356791 S    
C9    C10   1.431437 A    
C47   F10   1.357948 S    
V2    O10   2.163513 S    
C24   N9    1.432181 S    
