data_mof_unit_26303.cif
_audit_creation_date              2012-12-10T17:41:01-0500
_audit_creation_method            fapswitch 2.2
_symmetry_space_group_name_H-M    P1
_symmetry_Int_Tables_number       1
_space_group_crystal_system       triclinic
_cell_length_a                    14.540345
_cell_length_b                    15.446642
_cell_length_c                    9.934865
_cell_angle_alpha                 90.014262
_cell_angle_beta                  91.083181
_cell_angle_gamma                 90.353957
_cell_volume                      2230.92429319

loop_
_atom_site_label
_atom_site_type_symbol
_atom_type_description
_atom_site_fract_x
_atom_site_fract_y
_atom_site_fract_z
_atom_type_partial_charge
Br1   Br    Br    0.265382 0.992366 0.744275 -0.448537
Br2   Br    Br    0.765382 0.492359 0.744308 -0.448547
Br3   Br    Br    0.554752 0.368733 0.821469 -0.498933
Br4   Br    Br    0.471759 0.719297 0.998005 -0.570868
Br5   Br    Br    0.054785 0.868765 0.821338 -0.498790
Br6   Br    Br    0.971633 0.219424 0.998141 -0.570991
C1    C     C_R   0.392366 0.871333 0.499834 0.914848
C2    C     C_R   0.740052 0.197608 0.382783 -0.207987
C3    C     C_R   0.176295 0.246368 0.425864 -0.212779
C4    C     C_R   0.239983 0.697682 0.382766 -0.207757
C5    C     C_R   0.693146 0.820570 0.501635 -0.065694
C6    C     C_R   0.712003 0.163629 0.506035 -0.099793
C7    C     C_R   0.193147 0.320570 0.501635 -0.065698
C8    C     C_R   0.211985 0.663656 0.506016 -0.099797
C9    C     C_R   0.338843 0.049637 0.132170 0.517869
C10   C     C_R   0.838865 0.549665 0.132176 0.517877
C11   C     C_R   0.283988 0.112029 0.067642 -0.336551
C12   C     C_R   0.382657 0.121701 0.499529 0.936236
C13   C     C_R   0.784004 0.612051 0.067649 -0.336500
C14   C     C_R   0.288431 0.119999 0.929142 -0.254541
C15   C     C_R   0.788440 0.620013 0.929146 -0.254612
C16   C     C_R   0.342965 0.061741 0.859805 0.324740
C17   C     C_R   0.842970 0.561750 0.859810 0.324695
C18   C     C_R   0.422219 0.027151 0.925937 0.052178
C19   C     C_R   0.922225 0.527160 0.925939 0.052207
C20   C     C_R   0.421494 0.024518 0.070020 0.046300
C21   C     C_R   0.921503 0.524532 0.070020 0.046239
C22   C     C_R   0.574451 0.974839 0.073414 -0.065348
C23   C     C_R   0.892338 0.371344 0.499838 0.914998
C24   C     C_R   0.074448 0.474835 0.073414 -0.065301
C25   C     C_R   0.627600 0.113190 0.502005 0.836110
C26   C     C_R   0.622331 0.882725 0.500746 0.818678
C27   C     C_R   0.127594 0.613198 0.502003 0.836057
C28   C     C_R   0.122333 0.382725 0.500747 0.818729
C29   C     C_R   0.574046 0.973876 0.930561 -0.089074
C30   C     C_R   0.074043 0.473875 0.930558 -0.089073
C31   C     C_R   0.426406 0.280474 0.645379 -0.248608
C32   C     C_R   0.402244 0.747206 0.728876 -0.173285
C33   C     C_R   0.926416 0.780486 0.645332 -0.248783
C34   C     C_R   0.882658 0.621702 0.499530 0.936183
C35   C     C_R   0.902180 0.247266 0.728962 -0.173236
C36   C     C_R   0.443247 0.356139 0.718531 0.347091
C37   C     C_R   0.388320 0.703220 0.848907 0.334547
C38   C     C_R   0.943268 0.856162 0.718437 0.347070
C39   C     C_R   0.888235 0.203302 0.849007 0.334473
C40   C     C_R   0.878700 0.922279 0.716355 -0.172149
C41   C     C_R   0.814354 0.146685 0.859302 -0.195780
C42   C     C_R   0.378677 0.422249 0.716470 -0.172205
C43   C     C_R   0.314425 0.646623 0.859219 -0.195850
C44   C     C_R   0.796477 0.912037 0.643414 -0.255362
C45   C     C_R   0.240728 0.182611 0.424527 -0.187394
C46   C     C_R   0.755765 0.132157 0.748816 -0.234511
C47   C     C_R   0.296463 0.412013 0.643498 -0.255378
C48   C     C_R   0.255810 0.632123 0.748752 -0.234580
C49   C     C_R   0.776391 0.834157 0.574135 0.112032
C50   C     C_R   0.767385 0.177143 0.625183 0.133747
C51   C     C_R   0.276385 0.334147 0.574171 0.111993
C52   C     C_R   0.267408 0.677128 0.625136 0.133752
C53   C     C_R   0.342200 0.268235 0.573771 0.030364
C54   C     C_R   0.339786 0.738084 0.618484 0.081067
C55   C     C_R   0.842204 0.768241 0.573746 0.030452
C56   C     C_R   0.308125 0.758748 0.379515 -0.197154
C57   C     C_R   0.839750 0.238115 0.618540 0.081034
C58   C     C_R   0.321894 0.192613 0.498993 -0.086943
C59   C     C_R   0.348316 0.787382 0.499568 -0.138968
C60   C     C_R   0.821893 0.692612 0.498997 -0.086952
C61   C     C_R   0.848299 0.287389 0.499598 -0.138838
C62   C     C_3   0.225842 0.954615 0.199606 0.053899
C63   C     C_3   0.165729 0.936722 0.321627 -0.331526
C64   C     C_3   0.085388 0.876388 0.285583 -0.870196
C65   C     C_3   0.725933 0.454520 0.199399 0.054014
C66   C     C_3   0.665588 0.436802 0.321197 -0.332010
C67   C     C_R   0.740724 0.682603 0.424559 -0.187354
C68   C     C_3   0.585357 0.376383 0.285044 -0.870268
C69   C     C_R   0.808163 0.258707 0.379538 -0.197064
C70   C     C_R   0.676290 0.746360 0.425898 -0.212798
H1    H     H_    0.225989 0.124249 0.368426 0.181525
H2    H     H_    0.464176 0.785835 0.722075 0.184477
H3    H     H_    0.980061 0.732482 0.644938 0.185169
H4    H     H_    0.964114 0.285892 0.722178 0.184525
H5    H     H_    0.892454 0.981845 0.770589 0.179631
H6    H     H_    0.803939 0.111267 0.951905 0.164198
H7    H     H_    0.392421 0.481804 0.770744 0.179645
H8    H     H_    0.304013 0.611203 0.951822 0.164218
H9    H     H_    0.749484 0.965589 0.640358 0.150431
H10   H     H_    0.705186 0.082631 0.764250 0.177502
H11   H     H_    0.249467 0.465557 0.640454 0.150462
H12   H     H_    0.322987 0.788958 0.284137 0.194326
H13   H     H_    0.205224 0.582609 0.764181 0.177503
H14   H     H_    0.612189 0.737113 0.369897 0.174100
H15   H     H_    0.705009 0.182131 0.288550 0.177448
H16   H     H_    0.112198 0.237125 0.369839 0.174116
H17   H     H_    0.204885 0.682265 0.288546 0.177477
H18   H     H_    0.635631 0.954862 0.128360 0.146044
H19   H     H_    0.135625 0.454856 0.128358 0.146051
H20   H     H_    0.226613 0.140677 0.118979 0.194686
H21   H     H_    0.726614 0.640678 0.118979 0.194781
H22   H     H_    0.249364 0.892617 0.155701 0.172613
H23   H     H_    0.725986 0.624234 0.368482 0.181560
H24   H     H_    0.181207 0.986846 0.122476 0.176881
H25   H     H_    0.207459 0.907575 0.404145 0.253117
H26   H     H_    0.137545 0.998571 0.359456 0.223385
H27   H     H_    0.039143 0.907456 0.209847 0.280219
H28   H     H_    0.045413 0.862163 0.377223 0.267848
H29   H     H_    0.110767 0.814496 0.244000 0.263576
H30   H     H_    0.749567 0.392478 0.155835 0.172678
H31   H     H_    0.681429 0.486597 0.121951 0.176994
H32   H     H_    0.707173 0.407812 0.404007 0.253236
H33   H     H_    0.637282 0.498688 0.358608 0.223418
H34   H     H_    0.823065 0.288882 0.284150 0.194290
H35   H     H_    0.539506 0.407096 0.208458 0.280500
H36   H     H_    0.544912 0.362633 0.376415 0.267840
H37   H     H_    0.610912 0.314290 0.244506 0.263602
H38   H     H_    0.233044 0.153504 0.876997 0.217433
H39   H     H_    0.733046 0.653509 0.877003 0.217481
H40   H     H_    0.634742 0.952734 0.878885 0.136553
H41   H     H_    0.134735 0.452733 0.878881 0.136550
H42   H     H_    0.480053 0.232474 0.644970 0.185194
N1    N     N_R   0.498810 0.000000 0.142780 -0.103387
N2    N     N_R   0.998810 0.500000 0.142780 -0.103390
N3    N     N_R   0.498740 0.000000 0.857170 -0.103582
N4    N     N_R   0.998740 0.500000 0.857170 -0.103582
O1    O     O_R   0.408390 0.908380 0.614690 -0.575937
O2    O     O_R   0.591620 0.908390 0.614640 -0.645356
O3    O     O_R   0.091620 0.591610 0.614640 -0.640976
O4    O     O_R   0.091620 0.408390 0.614640 -0.645359
O5    O     O_R   0.591610 0.091610 0.385310 -0.624416
O6    O     O_R   0.591610 0.908390 0.385310 -0.620865
O7    O     O_R   0.091610 0.591610 0.385310 -0.624413
O8    O     O_R   0.091610 0.408390 0.385310 -0.620846
O9    O     O_3   0.304019 0.004486 0.240348 -0.609114
O10   O     O_3   0.804010 0.504476 0.240290 -0.609146
O11   O     O_R   0.408390 0.091620 0.614690 -0.606436
O12   O     O_R   0.908390 0.408380 0.614690 -0.576010
O13   O     O_R   0.908390 0.591620 0.614690 -0.606413
O14   O     O_R   0.408370 0.908380 0.385360 -0.562230
O15   O     O_R   0.408370 0.091620 0.385360 -0.572007
O16   O     O_R   0.908370 0.408380 0.385360 -0.562238
O17   O     O_R   0.908370 0.591620 0.385360 -0.572065
O18   O     O_R   0.591620 0.091610 0.614640 -0.640983
Zn1   Zn    Zn3+2 0.500010 0.000000 0.653130 0.969191
Zn2   Zn    Zn3+2 0.000010 0.500000 0.653130 0.969177
Zn3   Zn    Zn3+2 0.499980 0.000000 0.346870 0.995994
Zn4   Zn    Zn3+2 0.999980 0.500000 0.346870 0.995987

loop_
_geom_bond_atom_site_label_1
_geom_bond_atom_site_label_2
_ccdc_geom_bond_type
Br3   C36   S    
Br6   C39   S    
C65   H31   S    
C62   O9    S    
N1    Zn3   S    
C26   O2    A    
C3    C45   A    
C25   O5    A    
C15   H39   S    
C8    C27   S    
C62   H24   S    
C13   H21   S    
O7    Zn4   S    
C21   N2    A    
C23   O16   A    
C53   C58   A    
C43   H8    S    
C13   C15   A    
C18   C20   A    
O14   Zn3   S    
C5    C70   A    
C68   H36   S    
C64   H28   S    
C51   C53   A    
C7    C51   A    
C52   C54   A    
C43   C48   A    
C34   O17   A    
C11   C14   A    
C12   O11   A    
C22   H18   S    
C41   H6    S    
C31   C36   A    
C3    C7    A    
C7    C28   S    
C44   H9    S    
C65   O10   S    
C23   C61   S    
C55   C60   A    
O13   Zn2   S    
C31   H42   S    
C66   H32   S    
C22   C29   A    
C62   C63   S    
N2    Zn4   S    
O8    Zn4   S    
C19   N4    A    
C2    C6    A    
C10   C21   A    
C23   O12   A    
O15   Zn3   S    
Br1   C16   S    
C34   C60   S    
C4    C56   A    
C35   H4    S    
C8    C52   A    
C3    H16   S    
C38   C40   A    
C39   C41   A    
C42   C47   A    
C33   C55   A    
C34   O13   A    
C57   C61   A    
N3    Zn1   S    
C29   N3    A    
O18   Zn1   S    
C48   H13   S    
C66   C68   S    
C4    C8    A    
C68   H35   S    
C2    H15   S    
C47   C51   A    
C64   H27   S    
C37   C43   A    
C9    C20   A    
C36   C42   A    
C32   H2    S    
C4    H17   S    
C63   H26   S    
C60   C67   A    
C56   H12   S    
O4    Zn2   S    
C2    C69   A    
C32   C37   A    
C33   H3    S    
C12   O15   A    
C30   N4    A    
C45   H1    S    
C24   H19   S    
O12   Zn2   S    
C40   H5    S    
O17   Zn4   S    
O3    Zn2   S    
C28   O4    A    
O1    Zn1   S    
C27   O3    A    
C50   C57   A    
C29   H40   S    
C47   H11   S    
C11   H20   S    
O5    Zn3   S    
C20   N1    A    
C30   H41   S    
C31   C53   A    
C32   C54   A    
Br5   C38   S    
C14   C16   A    
C54   C59   A    
C15   C17   A    
C6    C25   S    
C67   C70   A    
C16   C18   A    
O2    Zn1   S    
C61   C69   A    
C35   C57   A    
C5    C49   A    
C48   C52   A    
C27   O7    A    
C67   H23   S    
C66   H33   S    
C69   H34   S    
C35   C39   A    
C56   C59   A    
C1    C59   S    
C45   C58   A    
C1    O1    A    
C22   N1    A    
C5    C26   S    
C9    C11   A    
C33   C38   A    
Br4   C37   S    
C63   H25   S    
C19   C21   A    
C40   C44   A    
O11   Zn1   S    
C44   C49   A    
C64   H29   S    
C42   H7    S    
C24   C30   A    
C26   O6    A    
C46   H10   S    
C1    O14   A    
O16   Zn4   S    
C14   H38   S    
C68   H37   S    
C12   C58   S    
C24   N2    A    
C10   C13   A    
C49   C55   A    
C18   N3    A    
C6    C50   A    
C17   C19   A    
C63   C64   S    
C10   O10   S    
O6    Zn3   S    
C62   H22   S    
C65   C66   S    
C9    O9    S    
C28   O8    A    
C65   H30   S    
C41   C46   A    
Br2   C17   S    
N4    Zn2   S    
C25   O18   A    
C46   C50   A    
C70   H14   S    
