data_mof_unit_36220.cif
_audit_creation_date              2012-12-11T15:30:32-0500
_audit_creation_method            fapswitch 2.2
_symmetry_space_group_name_H-M    P1
_symmetry_Int_Tables_number       1
_space_group_crystal_system       triclinic
_cell_length_a                    6.993559
_cell_length_b                    20.457596
_cell_length_c                    24.412694
_cell_angle_alpha                 89.724798
_cell_angle_beta                  90.056086
_cell_angle_gamma                 89.699502
_cell_volume                      3492.6683343

loop_
_atom_site_label
_atom_site_type_symbol
_atom_type_description
_atom_site_fract_x
_atom_site_fract_y
_atom_site_fract_z
_atom_type_partial_charge
O1    O     O_R   0.507310 0.423620 0.460450 -0.537328
O2    O     O_R   0.170760 0.556060 0.437190 -0.538276
O3    O     O_R   0.004040 0.576380 0.539550 -0.536498
C1    C     C_R   0.339348 0.576136 0.421368 0.727363
O4    O     O_R   0.177350 0.422870 0.454070 -0.535190
O5    O     O_R   0.010680 0.442240 0.556560 -0.529180
C2    C     C_R   0.346460 0.399134 0.443340 0.693825
O6    O     O_R   0.500670 0.557760 0.443440 -0.535889
O7    O     O_3   0.340380 0.506510 0.533610 -0.364340
V1    V     V_3+5 0.064130 0.498790 0.493770 1.443881
O8    O     O_R   0.681170 0.443940 0.562810 -0.539485
C3    C     C_R   0.849815 0.424115 0.578688 0.725440
O9    O     O_R   0.674570 0.577130 0.545930 -0.539921
C4    C     C_R   0.842797 0.600696 0.556771 0.723106
V2    V     V_3+5 0.564560 0.501210 0.506230 1.436791
O10   O     O_3   0.838170 0.493490 0.466390 -0.370114
C5    C     C_R   0.978788 0.837914 0.911700 -0.043218
C6    C     C_R   0.850166 0.661464 0.589371 -0.051852
C7    C     C_R   0.073471 0.724470 0.904165 -0.160960
C8    C     C_R   0.053929 0.780960 0.935180 -0.166754
C9    C     C_R   0.922132 0.837984 0.856406 -0.217990
C10   C     C_R   0.946885 0.781449 0.823204 0.084873
C11   C     C_R   0.023206 0.724366 0.848525 0.139917
C12   C     C_R   0.905177 0.780004 0.765603 0.058144
C13   C     C_R   0.925362 0.720133 0.735702 0.068049
C14   C     C_R   0.014037 0.666753 0.762284 -0.195816
C15   C     C_R   0.057995 0.668363 0.817688 -0.202751
C16   C     C_R   0.856246 0.837123 0.736144 -0.184861
C17   C     C_R   0.837653 0.836317 0.679527 -0.181656
C18   C     C_R   0.850464 0.777864 0.650450 0.071104
C19   C     C_R   0.875928 0.717696 0.678519 0.076482
C20   C     C_R   0.838016 0.779755 0.593274 -0.180040
C21   C     C_R   0.846796 0.722635 0.562340 0.124466
C22   C     C_R   0.850786 0.658685 0.647669 0.048273
H1    H     H_    0.124402 0.625701 0.836314 0.129079
H2    H     H_    0.811854 0.882157 0.658223 0.117706
H3    H     H_    0.133421 0.681112 0.923410 0.115637
H4    H     H_    0.100283 0.780564 0.977552 0.106811
H5    H     H_    0.864077 0.883100 0.840418 0.096271
H6    H     H_    0.059793 0.623990 0.740083 0.160253
H7    H     H_    0.843298 0.884303 0.755192 0.117616
H8    H     H_    0.824903 0.826444 0.572280 0.124973
C23   C     C_3   0.757261 0.257078 0.804871 0.029908
C24   C     C_3   0.114921 0.252737 0.786211 -0.389049
C25   C     C_3   0.088421 0.303848 0.738236 -0.160345
H9    H     H_    0.768378 0.359262 0.775194 0.174326
H10   H     H_    0.236328 0.219572 0.776106 0.133296
H11   H     H_    0.154974 0.276096 0.825455 0.186385
H12   H     H_    0.192213 0.291577 0.705554 0.119248
C26   C     C_1   0.858790 0.379577 0.624990 -0.147645
C27   C     C_3   0.931816 0.210997 0.794095 0.246312
C28   C     C_3   0.740621 0.309910 0.758011 0.016618
C29   C     C_3   0.888648 0.296588 0.711575 0.181341
C30   C     C_3   0.870954 0.224771 0.691344 -0.363900
C31   C     C_3   0.893733 0.175251 0.739307 -0.388916
C32   C     C_1   0.868815 0.342304 0.663792 -0.032577
C33   C     C_1   0.954299 0.161851 0.839065 -0.068214
C34   C     C_1   0.965351 0.122340 0.876276 -0.197011
H13   H     H_    0.761962 0.145212 0.742642 0.141206
H14   H     H_    0.013843 0.141079 0.730209 0.153835
H15   H     H_    0.731823 0.217015 0.670445 0.154736
H16   H     H_    0.627560 0.225549 0.804713 0.141416
H17   H     H_    0.983198 0.214730 0.660150 0.143630
C35   C     C_3   0.591215 0.700818 0.265198 -0.322742
C36   C     C_3   0.238610 0.696389 0.245942 -0.321523
C37   C     C_3   0.264790 0.745849 0.197833 -0.329262
H18   H     H_    0.650212 0.723278 0.178830 0.143600
H19   H     H_    0.611532 0.650176 0.249728 0.153446
H20   H     H_    0.092221 0.701771 0.263257 0.137477
H21   H     H_    0.251593 0.645618 0.230157 0.162220
H22   H     H_    0.290297 0.718591 0.159162 0.143715
H23   H     H_    0.130671 0.774654 0.192229 0.137121
C38   C     C_1   0.473873 0.878498 0.124700 -0.190754
C39   C     C_3   0.389858 0.707831 0.291393 0.279039
C40   C     C_3   0.617360 0.750354 0.217140 -0.331985
C41   C     C_3   0.434516 0.792632 0.209004 0.287573
C42   C     C_3   0.393521 0.828783 0.263531 -0.325602
C43   C     C_3   0.367517 0.779275 0.311635 -0.331210
C44   C     C_1   0.458423 0.840073 0.162731 -0.098582
C45   C     C_1   0.365887 0.660340 0.337609 -0.085918
C46   C     C_1   0.350371 0.621795 0.375541 -0.174237
H24   H     H_    0.475179 0.789329 0.344079 0.138731
H25   H     H_    0.223673 0.786219 0.330247 0.137280
H26   H     H_    0.513453 0.862408 0.273105 0.137962
H27   H     H_    0.703404 0.709269 0.296711 0.136375
H28   H     H_    0.741760 0.782402 0.225846 0.135570
H29   H     H_    0.261977 0.859239 0.259254 0.137678
C47   C     C_R   0.470075 0.161699 0.088840 -0.046145
C48   C     C_R   0.354678 0.338322 0.411234 -0.047945
C49   C     C_R   0.482567 0.279552 0.091832 -0.142616
C50   C     C_R   0.497046 0.221573 0.062454 -0.162208
C51   C     C_R   0.439435 0.160209 0.145774 -0.221270
C52   C     C_R   0.445540 0.218298 0.177625 0.097369
C53   C     C_R   0.450991 0.278375 0.148669 0.109339
C54   C     C_R   0.434666 0.219329 0.236541 0.032275
C55   C     C_R   0.388911 0.280039 0.263663 -0.041790
C56   C     C_R   0.355546 0.336777 0.230640 -0.013187
C57   C     C_R   0.408095 0.336543 0.175438 -0.232327
C58   C     C_R   0.469865 0.162796 0.269780 0.166357
C59   C     C_R   0.418630 0.163263 0.325048 -0.206161
C60   C     C_R   0.375507 0.221418 0.351748 0.100708
C61   C     C_R   0.378914 0.281343 0.322598 0.106276
C62   C     C_R   0.345566 0.220401 0.408646 -0.154109
C63   C     C_R   0.330573 0.278464 0.437878 -0.168432
C64   C     C_R   0.383419 0.339700 0.354212 -0.147045
H30   H     H_    0.393908 0.381108 0.151441 0.153789
H31   H     H_    0.414701 0.386476 0.335806 0.104546
H32   H     H_    0.307602 0.276629 0.481745 0.101828
H33   H     H_    0.433060 0.118604 0.348929 0.125008
H34   H     H_    0.491624 0.325564 0.069812 0.117992
H35   H     H_    0.521619 0.223519 0.018658 0.105874
H36   H     H_    0.404811 0.113647 0.163894 0.121003
H37   H     H_    0.338342 0.174456 0.430826 0.108435
O11   O     O_R   0.323590 0.942280 0.056590 -0.535523
O12   O     O_R   0.647030 0.077140 0.045940 -0.537373
O13   O     O_R   0.813570 0.057750 0.943430 -0.534954
C65   C     C_R   0.477983 0.100946 0.056632 0.692814
O14   O     O_R   0.653510 0.943950 0.062820 -0.536589
O15   O     O_R   0.820100 0.923600 0.960440 -0.536613
C66   C     C_R   0.484896 0.923987 0.078732 0.723974
O16   O     O_R   0.317060 0.076430 0.039590 -0.534926
O17   O     O_3   0.483830 0.993520 0.966410 -0.368008
V3    V     V_3+5 0.760140 0.001200 0.006230 1.419500
O18   O     O_R   0.149560 0.922820 0.954030 -0.537709
C67   C     C_R   0.981681 0.898793 0.943700 0.692683
O19   O     O_R   0.143080 0.056020 0.937150 -0.537531
C68   C     C_R   0.974436 0.076113 0.921447 0.726750
V4    V     V_3+5 0.259690 0.998730 0.993720 1.421300
O20   O     O_3   0.986120 0.006480 0.033580 -0.367533
C69   C     C_3   0.759173 0.289462 0.861800 -0.818426
H38   H     H_    0.755600 0.251999 0.894817 0.212970
H39   H     H_    0.887134 0.320341 0.867498 0.253925
H40   H     H_    0.630123 0.320795 0.866589 0.218745
C70   C     C_2   0.126861 0.374319 0.755541 0.719894
O21   O     O_2   0.166340 0.415240 0.720703 -0.563596
O22   O     O_R   0.119188 0.392589 0.810627 -0.682557
H41   H     H_    0.147863 0.440630 0.816181 0.293700
C71   C     C_3   0.793196 0.594789 0.674687 -0.787506
H42   H     H_    0.912922 0.558992 0.672874 0.211850
H43   H     H_    0.744416 0.601452 0.717481 0.222224
H44   H     H_    0.667881 0.573707 0.653307 0.214866
C72   C     C_3   0.538163 0.313440 0.736942 -0.846890
H45   H     H_    0.496650 0.266304 0.718333 0.205362
H46   H     H_    0.447921 0.323364 0.773024 0.231392
H47   H     H_    0.519370 0.353803 0.706828 0.248588
C73   C     C_3   0.842812 0.729605 0.500708 -0.796803
H48   H     H_    0.851678 0.682332 0.478868 0.199957
H49   H     H_    0.708162 0.754389 0.487974 0.205288
H50   H     H_    0.965759 0.759779 0.487200 0.205345
C74   C     C_2   0.238595 0.393417 0.248942 0.736790
O23   O     O_2   0.278799 0.448772 0.233837 -0.569486
O24   O     O_R   0.078059 0.383116 0.281960 -0.658457
H51   H     H_    0.009479 0.425319 0.291541 0.294677
C75   C     C_3   0.588586 0.104707 0.251909 -0.805534
H52   H     H_    0.494805 0.062620 0.242438 0.198629
H53   H     H_    0.682982 0.116764 0.216855 0.219026
H54   H     H_    0.687080 0.089329 0.285392 0.209693

loop_
_geom_bond_atom_site_label_1
_geom_bond_atom_site_label_2
_ccdc_geom_bond_type
C13   C19   A    
C52   C53   A    
O13   V3    S    
C31   H13   S    
C54   C55   A    
C4    C6    S    
C7    C11   A    
C7    C8    A    
C41   C44   S    
C1    O6    A    
C23   C27   S    
V4    O20   S    
C56   C57   A    
C49   C50   A    
C27   C31   S    
C29   C30   S    
C24   C25   S    
C64   H31   S    
C17   H2    S    
C25   C70   S    
O19   C68   A    
C35   H19   S    
C16   C17   A    
C62   H37   S    
C55   C61   A    
O5    C3    A    
C18   C19   A    
C54   C58   A    
C23   C28   S    
C30   H17   S    
C53   C57   A    
V2    O10   S    
C2    C48   S    
C58   C75   S    
H9    C28   S    
C16   H7    S    
C5    C8    A    
C8    H4    S    
C61   C64   A    
C50   H35   S    
C65   O16   A    
C59   C60   A    
C7    H3    S    
O8    V2    S    
C43   H25   S    
C37   H23   S    
C1    C46   S    
C47   C51   A    
O12   C65   A    
O13   C68   A    
C56   C74   S    
C69   H39   S    
C27   C33   S    
C11   C15   A    
C26   C32   T    
O7    V1    S    
C75   H53   S    
C24   H10   S    
O18   V4    S    
C31   H14   S    
C25   C29   S    
C34   C68   S    
C60   C62   A    
C38   C66   S    
C39   C45   S    
O9    C4    A    
V3    O20   S    
C72   H47   S    
C49   C53   A    
C73   H49   S    
C20   H8    S    
O18   C67   A    
O12   V3    S    
C60   C61   A    
C41   C42   S    
C75   H54   S    
C21   C73   S    
O4    C2    A    
C51   H36   S    
C70   O22   S    
C42   H26   S    
C15   H1    S    
C13   C14   A    
C42   C43   S    
C22   C71   S    
C28   C72   S    
C36   C39   S    
O2    C1    A    
C40   C41   S    
C5    C67   S    
C17   C18   A    
C73   H50   S    
O11   V4    S    
C43   H24   S    
C40   H28   S    
C37   H22   S    
C9    H5    S    
C47   C50   A    
C25   H12   S    
C37   C41   S    
C55   C56   A    
C38   C44   T    
C19   C22   A    
C12   C13   A    
C6    C22   A    
C75   H52   S    
O3    C4    A    
C71   H43   S    
O16   V4    S    
O1    V2    S    
O15   C67   A    
C24   C27   S    
O6    V2    S    
O9    V2    S    
C48   C63   A    
C14   C15   A    
C10   C12   A    
C69   H40   S    
H18   C40   S    
C49   H34   S    
O2    V1    S    
C35   H27   S    
C63   H32   S    
C72   H46   S    
C28   C29   S    
C73   H48   S    
C29   C32   S    
C30   C31   S    
O19   V4    S    
O1    C2    A    
C23   C69   S    
C12   C16   A    
C45   C46   T    
C71   H44   S    
O5    V1    S    
C3    C26   S    
O8    C3    A    
O17   V3    S    
C70   O21   D    
C30   H15   S    
O15   V3    S    
C57   H30   S    
C58   C59   A    
C20   C21   A    
C69   H38   S    
O7    V2    S    
O4    V1    S    
O3    V1    S    
V1    O10   S    
C18   C20   A    
C14   H6    S    
C33   C34   T    
C36   H20   S    
C51   C52   A    
C35   C40   S    
C74   O24   S    
O14   V3    S    
O17   V4    S    
C6    C21   A    
O14   C66   A    
C71   H42   S    
C24   H11   S    
C59   H33   S    
O24   H51   S    
C42   H29   S    
C52   C54   A    
C36   C37   S    
C39   C43   S    
C48   C64   A    
C62   C63   A    
C72   H45   S    
C35   C39   S    
C10   C11   A    
O22   H41   S    
C47   C65   S    
C9    C10   A    
O11   C66   A    
C36   H21   S    
C23   H16   S    
C74   O23   D    
C5    C9    A    
