data_mof_unit_61287.cif
_audit_creation_date              2012-12-10T17:24:54-0500
_audit_creation_method            fapswitch 2.2
_symmetry_space_group_name_H-M    P1
_symmetry_Int_Tables_number       1
_space_group_crystal_system       triclinic
_cell_length_a                    21.734259
_cell_length_b                    21.734259
_cell_length_c                    35.648823
_cell_angle_alpha                 89.999841
_cell_angle_beta                  89.999946
_cell_angle_gamma                 90.0
_cell_volume                      16839.7202201

loop_
_atom_site_label
_atom_site_type_symbol
_atom_type_description
_atom_site_fract_x
_atom_site_fract_y
_atom_site_fract_z
_atom_type_partial_charge
C1    C     C_R   0.500000 0.881538 1.000000 0.823334
C2    C     C_R   0.118462 0.500000 0.000000 0.823334
C3    C     C_R   0.500000 0.118462 0.000000 0.823334
C4    C     C_R   0.881538 0.500000 1.000000 0.823334
C5    C     C_R   0.000000 0.381538 0.500000 0.823334
C6    C     C_R   0.618462 0.000000 0.500000 0.823333
C7    C     C_R   0.000000 0.618462 0.500000 0.823334
C8    C     C_R   0.381538 1.000000 0.500000 0.823334
C9    C     C_1   0.500000 0.000000 0.733102 -0.065433
C10   C     C_1   1.000000 0.500000 0.733102 -0.065433
C11   C     C_1   0.500000 1.000000 0.266898 -0.065433
C12   C     C_1   0.000000 0.499999 0.266898 -0.065433
C13   C     C_1   0.000000 0.499999 0.233102 -0.065433
C14   C     C_1   0.500000 1.000000 0.233102 -0.065433
C15   C     C_1   1.000000 0.500000 0.766898 -0.065433
C16   C     C_1   0.500000 0.000000 0.766898 -0.065433
C17   C     C_R   0.501375 0.718881 0.034042 -0.167918
C18   C     C_R   0.281119 0.501392 0.034042 -0.167918
C19   C     C_R   0.498618 0.281119 0.034042 -0.167918
C20   C     C_R   0.718881 0.498624 0.034042 -0.167917
C21   C     C_R   0.501381 0.281119 0.965958 -0.167918
C22   C     C_R   0.281119 0.498607 0.965958 -0.167918
C23   C     C_R   0.498625 0.718881 0.965957 -0.167918
C24   C     C_R   0.718881 0.501376 0.965957 -0.167918
C25   C     C_R   0.001376 0.218881 0.534042 -0.167925
C26   C     C_R   0.781120 0.001538 0.534040 -0.167920
C27   C     C_R   0.998616 0.781119 0.534042 -0.167912
C28   C     C_R   0.218881 0.998604 0.534042 -0.167919
C29   C     C_R   0.001384 0.781119 0.465958 -0.167925
C30   C     C_R   0.781120 0.998462 0.465960 -0.167919
C31   C     C_R   0.998624 0.218881 0.465957 -0.167912
C32   C     C_R   0.218881 0.001396 0.465958 -0.167919
C33   C     C_R   0.380620 0.500000 0.000000 0.821802
C34   C     C_R   0.500000 0.380620 0.000000 0.821802
C35   C     C_R   0.619380 0.500000 1.000000 0.821802
C36   C     C_R   0.500000 0.619380 1.000000 0.821801
C37   C     C_R   0.880620 0.000000 0.500000 0.821799
C38   C     C_R   0.000000 0.880620 0.500000 0.821801
C39   C     C_R   0.119380 1.000000 0.500000 0.821801
C40   C     C_R   0.000000 0.119380 0.500000 0.821801
C41   C     C_R   0.501413 0.783042 0.034388 0.131539
C42   C     C_R   0.216958 0.501431 0.034388 0.131539
C43   C     C_R   0.498580 0.216958 0.034388 0.131539
C44   C     C_R   0.783042 0.498586 0.034388 0.131539
C45   C     C_R   0.501420 0.216958 0.965612 0.131539
C46   C     C_R   0.216958 0.498569 0.965612 0.131539
C47   C     C_R   0.498587 0.783042 0.965612 0.131538
C48   C     C_R   0.783042 0.501414 0.965612 0.131539
C49   C     C_R   0.001414 0.283042 0.534388 0.131541
C50   C     C_R   0.716958 0.001580 0.534385 0.131540
C51   C     C_R   0.998578 0.716958 0.534388 0.131536
C52   C     C_R   0.283042 0.998566 0.534388 0.131539
C53   C     C_R   0.001422 0.716958 0.465612 0.131541
C54   C     C_R   0.716958 0.998420 0.465615 0.131540
C55   C     C_R   0.998586 0.283042 0.465612 0.131537
C56   C     C_R   0.283042 0.001434 0.465612 0.131539
C57   C     C_R   0.500000 0.000000 0.927623 0.780513
C58   C     C_R   1.000000 0.500000 0.927623 0.780513
C59   C     C_R   0.500000 1.000000 0.072377 0.780513
C60   C     C_R   0.000000 0.500000 0.072377 0.780513
C61   C     C_R   1.000000 0.500000 0.427623 0.780513
C62   C     C_R   0.500000 0.000000 0.427623 0.780513
C63   C     C_R   1.000000 0.500000 0.572377 0.780513
C64   C     C_R   0.500000 1.000000 0.572377 0.780513
C65   C     C_R   0.500000 0.686662 1.000000 -0.120133
C66   C     C_R   0.313338 0.500000 0.000000 -0.120134
C67   C     C_R   0.500000 0.313338 0.000000 -0.120134
C68   C     C_R   0.686662 0.500000 1.000000 -0.120133
C69   C     C_R   0.000000 0.186662 0.500000 -0.120134
C70   C     C_R   0.813339 0.000000 0.500000 -0.120129
C71   C     C_R   0.000000 0.813338 0.500000 -0.120134
C72   C     C_R   0.186661 1.000000 0.500000 -0.120133
C73   C     C_R   0.500000 0.814956 1.000000 -0.018762
C74   C     C_R   0.185043 0.500000 0.000000 -0.018763
C75   C     C_R   0.500000 0.185043 0.000000 -0.018763
C76   C     C_R   0.814956 0.500000 1.000000 -0.018763
C77   C     C_R   0.000000 0.314956 0.500000 -0.018762
C78   C     C_R   0.685044 0.000000 0.500000 -0.018770
C79   C     C_R   0.000000 0.685043 0.500000 -0.018763
C80   C     C_R   0.314956 1.000000 0.500000 -0.018763
C81   C     C_R   0.499904 0.944291 0.673115 -0.157722
C82   C     C_R   0.055709 0.499920 0.673115 -0.157723
C83   C     C_R   0.500096 0.055710 0.673115 -0.157726
C84   C     C_R   0.944290 0.500081 0.673115 -0.157724
C85   C     C_R   0.499907 0.055709 0.326885 -0.157722
C86   C     C_R   0.055710 0.500076 0.326885 -0.157723
C87   C     C_R   0.500092 0.944290 0.326885 -0.157726
C88   C     C_R   0.944291 0.499924 0.326885 -0.157723
C89   C     C_R   0.999917 0.444290 0.173115 -0.157723
C90   C     C_R   0.555709 0.999918 0.173115 -0.157723
C91   C     C_R   0.000083 0.555709 0.173115 -0.157725
C92   C     C_R   0.444290 0.000082 0.173115 -0.157724
C93   C     C_R   0.999917 0.555710 0.826885 -0.157723
C94   C     C_R   0.555710 0.000079 0.826885 -0.157723
C95   C     C_R   0.000082 0.444291 0.826885 -0.157724
C96   C     C_R   0.444291 0.999921 0.826885 -0.157723
C97   C     C_R   0.499905 0.944223 0.633910 -0.191563
C98   C     C_R   0.055777 0.499920 0.633910 -0.191548
C99   C     C_R   0.500095 0.055777 0.633909 -0.191526
C100  C     C_R   0.944223 0.500080 0.633910 -0.191545
C101  C     C_R   0.499908 0.055777 0.366090 -0.191564
C102  C     C_R   0.055777 0.500075 0.366090 -0.191546
C103  C     C_R   0.500091 0.944223 0.366090 -0.191526
C104  C     C_R   0.944223 0.499925 0.366090 -0.191548
C105  C     C_R   0.999918 0.444223 0.133909 -0.191548
C106  C     C_R   0.555777 0.999919 0.133909 -0.191547
C107  C     C_R   0.000082 0.555777 0.133909 -0.191543
C108  C     C_R   0.444223 0.000081 0.133909 -0.191546
C109  C     C_R   0.999918 0.555777 0.866090 -0.191549
C110  C     C_R   0.555777 0.000078 0.866090 -0.191546
C111  C     C_R   0.000082 0.444223 0.866090 -0.191544
C112  C     C_R   0.444223 0.999922 0.866090 -0.191547
C113  C     C_R   0.500000 1.000000 0.613870 -0.032713
C114  C     C_R   1.000000 0.500000 0.613870 -0.032709
C115  C     C_R   0.500000 0.000000 0.386130 -0.032713
C116  C     C_R   0.000000 0.500000 0.386130 -0.032708
C117  C     C_R   0.000000 0.500000 0.113870 -0.032709
C118  C     C_R   0.500000 1.000000 0.113870 -0.032709
C119  C     C_R   1.000000 0.500000 0.886130 -0.032708
C120  C     C_R   0.500000 0.000000 0.886130 -0.032708
C121  C     C_R   0.500000 0.000000 0.692773 0.146111
C122  C     C_R   1.000000 0.500000 0.692773 0.146111
C123  C     C_R   0.500000 1.000000 0.307227 0.146111
C124  C     C_R   0.000000 0.500000 0.307227 0.146111
C125  C     C_R   0.000000 0.500000 0.192773 0.146112
C126  C     C_R   0.500000 1.000000 0.192773 0.146111
C127  C     C_R   1.000000 0.500000 0.807227 0.146111
C128  C     C_R   0.500000 0.000000 0.807227 0.146111
Cu1   Cu    Cu3+1 0.438290 0.000000 0.000000 0.942222
Cu2   Cu    Cu3+1 1.000000 0.438290 0.000000 0.942222
Cu3   Cu    Cu3+1 0.561710 0.000000 0.000000 0.942222
Cu4   Cu    Cu3+1 0.000000 0.561710 0.000000 0.942222
Cu5   Cu    Cu3+1 0.938290 0.500000 0.500000 0.942222
Cu6   Cu    Cu3+1 0.500000 0.938290 0.500000 0.942220
Cu7   Cu    Cu3+1 0.061710 0.500000 0.500000 0.942222
Cu8   Cu    Cu3+1 0.500000 0.061710 0.500000 0.942220
Cu9   Cu    Cu3+1 0.500000 0.500000 0.037160 0.939154
Cu10  Cu    Cu3+1 0.500000 0.500000 0.962840 0.939153
Cu11  Cu    Cu3+1 0.000000 0.000000 0.537160 0.939155
Cu12  Cu    Cu3+1 0.000000 0.000000 0.462840 0.939154
H1    H     H_    0.499827 0.900905 0.688087 0.132455
H2    H     H_    0.099095 0.499856 0.688087 0.132453
H3    H     H_    0.500173 0.099095 0.688086 0.132451
H4    H     H_    0.900905 0.500145 0.688087 0.132453
H5    H     H_    0.499834 0.099095 0.311913 0.132455
H6    H     H_    0.099095 0.500136 0.311913 0.132453
H7    H     H_    0.500165 0.900905 0.311914 0.132451
H8    H     H_    0.900905 0.499863 0.311913 0.132453
H9    H     H_    0.999851 0.400905 0.188087 0.132454
H10   H     H_    0.599095 0.999853 0.188087 0.132453
H11   H     H_    0.000149 0.599094 0.188087 0.132453
H12   H     H_    0.400905 0.000147 0.188087 0.132453
H13   H     H_    0.999852 0.599095 0.811913 0.132454
H14   H     H_    0.599095 0.000143 0.811913 0.132453
H15   H     H_    0.000148 0.400905 0.811913 0.132452
H16   H     H_    0.400905 0.999858 0.811913 0.132453
H17   H     H_    0.499824 0.900510 0.619339 0.154148
H18   H     H_    0.099489 0.499852 0.619339 0.154142
H19   H     H_    0.500176 0.099489 0.619339 0.154136
H20   H     H_    0.900510 0.500148 0.619339 0.154141
H21   H     H_    0.499831 0.099489 0.380661 0.154148
H22   H     H_    0.099489 0.500139 0.380661 0.154141
H23   H     H_    0.500169 0.900510 0.380661 0.154136
H24   H     H_    0.900510 0.499860 0.380661 0.154142
H25   H     H_    0.999848 0.400510 0.119339 0.154142
H26   H     H_    0.599489 0.999850 0.119339 0.154142
H27   H     H_    0.000152 0.599489 0.119339 0.154141
H28   H     H_    0.400510 0.000150 0.119339 0.154141
H29   H     H_    0.999849 0.599490 0.880661 0.154142
H30   H     H_    0.599489 0.000146 0.880661 0.154141
H31   H     H_    0.000151 0.400511 0.880661 0.154141
H32   H     H_    0.400511 0.999855 0.880661 0.154142
O1    O     O_R   0.447910 0.909920 0.999900 -0.583360
O2    O     O_R   0.090080 0.447910 0.999900 -0.583360
O3    O     O_R   0.552090 0.090080 0.999900 -0.583360
O4    O     O_R   0.909920 0.552090 0.999900 -0.583360
O5    O     O_R   0.447910 0.090080 0.000100 -0.583360
O6    O     O_R   0.090080 0.552090 0.000100 -0.583361
O7    O     O_R   0.552090 0.909920 0.000100 -0.583361
O8    O     O_R   0.909920 0.447910 0.000100 -0.583360
O9    O     O_R   0.947910 0.409920 0.499900 -0.583360
O10   O     O_R   0.590080 0.947910 0.499900 -0.583361
O11   O     O_R   0.052090 0.590080 0.499900 -0.583360
O12   O     O_R   0.409920 0.052090 0.499900 -0.583361
O13   O     O_R   0.947910 0.590080 0.500100 -0.583361
O14   O     O_R   0.590080 0.052090 0.500100 -0.583362
O15   O     O_R   0.052090 0.409920 0.500100 -0.583361
O16   O     O_R   0.409920 0.947910 0.500100 -0.583360
O17   O     O_R   0.447910 0.000100 0.945520 -0.589290
O18   O     O_R   0.999900 0.447910 0.945520 -0.589291
O19   O     O_R   0.552090 0.999900 0.945520 -0.589290
O20   O     O_R   0.000100 0.552090 0.945520 -0.589289
O21   O     O_R   0.447910 0.999900 0.054480 -0.589290
O22   O     O_R   0.999900 0.552090 0.054480 -0.589291
O23   O     O_R   0.552090 0.000100 0.054480 -0.589290
O24   O     O_R   0.000100 0.447910 0.054480 -0.589289
O25   O     O_R   0.947910 0.500100 0.445520 -0.589290
O26   O     O_R   0.499900 0.947910 0.445520 -0.589295
O27   O     O_R   0.052090 0.499900 0.445520 -0.589290
O28   O     O_R   0.500100 0.052090 0.445520 -0.589284
O29   O     O_R   0.947910 0.499900 0.554480 -0.589290
O30   O     O_R   0.499900 0.052090 0.554480 -0.589294
O31   O     O_R   0.052090 0.500100 0.554480 -0.589289
O32   O     O_R   0.500100 0.947910 0.554480 -0.589284
O33   O     O_R   0.409810 0.500100 0.031350 -0.592305
O34   O     O_R   0.499900 0.409810 0.031350 -0.592303
O35   O     O_R   0.590190 0.499900 0.031350 -0.592304
O36   O     O_R   0.500100 0.590190 0.031350 -0.592306
O37   O     O_R   0.409810 0.499900 0.968650 -0.592304
O38   O     O_R   0.499900 0.590190 0.968650 -0.592304
O39   O     O_R   0.590190 0.500100 0.968650 -0.592306
O40   O     O_R   0.500100 0.409810 0.968650 -0.592306
O41   O     O_R   0.909810 0.000100 0.531350 -0.592303
O42   O     O_R   0.999900 0.909810 0.531350 -0.592296
O43   O     O_R   0.090190 0.999900 0.531350 -0.592303
O44   O     O_R   0.000100 0.090190 0.531350 -0.592313
O45   O     O_R   0.909810 0.999900 0.468650 -0.592302
O46   O     O_R   0.999900 0.090190 0.468650 -0.592297
O47   O     O_R   0.090190 0.000100 0.468650 -0.592306
O48   O     O_R   0.000100 0.909810 0.468650 -0.592314
H33   H     H_    0.502460 0.694071 0.060397 0.161542
H34   H     H_    0.305928 0.502491 0.060397 0.161542
H35   H     H_    0.497528 0.305928 0.060397 0.161543
H36   H     H_    0.694071 0.497538 0.060397 0.161543
H37   H     H_    0.502472 0.305929 0.939603 0.161542
H38   H     H_    0.305928 0.497509 0.939603 0.161542
H39   H     H_    0.497540 0.694072 0.939602 0.161543
H40   H     H_    0.694072 0.502462 0.939602 0.161542
H41   H     H_    0.002461 0.194071 0.560397 0.161541
H42   H     H_    0.805929 0.002752 0.560392 0.161539
H43   H     H_    0.997524 0.805928 0.560397 0.161545
H44   H     H_    0.194071 0.997503 0.560397 0.161543
H45   H     H_    0.002476 0.805929 0.439603 0.161540
H46   H     H_    0.805929 0.997248 0.439607 0.161539
H47   H     H_    0.997539 0.194072 0.439602 0.161544
H48   H     H_    0.194072 0.002497 0.439603 0.161542
C129  C     C_3   0.502861 0.816846 0.071357 -0.870067
H49   H     H_    0.503738 0.784671 0.095559 0.231319
H50   H     H_    0.544589 0.846226 0.072853 0.234856
H51   H     H_    0.461365 0.846335 0.074024 0.233097
C130  C     C_3   0.183153 0.502898 0.071357 -0.870066
H52   H     H_    0.215329 0.503786 0.095558 0.231319
H53   H     H_    0.153774 0.544626 0.072845 0.234867
H54   H     H_    0.153664 0.461404 0.074031 0.233087
C131  C     C_3   0.497125 0.183153 0.071357 -0.870064
H55   H     H_    0.496244 0.215328 0.095559 0.231319
H56   H     H_    0.455397 0.153773 0.072850 0.234860
H57   H     H_    0.538620 0.153664 0.074027 0.233093
C132  C     C_3   0.816847 0.497136 0.071357 -0.870065
H58   H     H_    0.784671 0.496259 0.095559 0.231319
H59   H     H_    0.846226 0.455408 0.072853 0.234857
H60   H     H_    0.846335 0.538632 0.074024 0.233096
C133  C     C_3   0.502875 0.183153 0.928643 -0.870068
H61   H     H_    0.503756 0.215329 0.904442 0.231319
H62   H     H_    0.544603 0.153774 0.927150 0.234861
H63   H     H_    0.461380 0.153665 0.925973 0.233093
C134  C     C_3   0.183153 0.497102 0.928643 -0.870066
H64   H     H_    0.215329 0.496214 0.904442 0.231319
H65   H     H_    0.153774 0.455374 0.927155 0.234867
H66   H     H_    0.153665 0.538596 0.925969 0.233087
C135  C     C_3   0.497139 0.816847 0.928643 -0.870066
H67   H     H_    0.496262 0.784672 0.904441 0.231320
H68   H     H_    0.455411 0.846227 0.927147 0.234857
H69   H     H_    0.538635 0.846335 0.925976 0.233097
C136  C     C_3   0.816847 0.502864 0.928643 -0.870066
H70   H     H_    0.784671 0.503741 0.904441 0.231319
H71   H     H_    0.846227 0.544591 0.927147 0.234857
H72   H     H_    0.846335 0.461368 0.925975 0.233096
C137  C     C_3   0.002863 0.316847 0.571357 -0.870069
H73   H     H_    0.003740 0.284671 0.595558 0.231318
H74   H     H_    0.044591 0.346226 0.572852 0.234858
H75   H     H_    0.961367 0.346335 0.574024 0.233096
C138  C     C_3   0.683154 0.003202 0.571352 -0.870056
H76   H     H_    0.715330 0.004184 0.595552 0.231316
H77   H     H_    0.653780 0.044940 0.572777 0.234953
H78   H     H_    0.653660 0.961722 0.574089 0.233004
C139  C     C_3   0.997120 0.683153 0.571357 -0.870062
H79   H     H_    0.996237 0.715328 0.595558 0.231321
H80   H     H_    0.955392 0.653773 0.572849 0.234862
H81   H     H_    0.038615 0.653664 0.574028 0.233091
C140  C     C_3   0.316847 0.997095 0.571357 -0.870066
H82   H     H_    0.284671 0.996205 0.595558 0.231319
H83   H     H_    0.346225 0.955367 0.572843 0.234868
H84   H     H_    0.346335 0.038589 0.574032 0.233087
C141  C     C_3   0.002880 0.683153 0.428643 -0.870068
H85   H     H_    0.003762 0.715329 0.404442 0.231318
H86   H     H_    0.044608 0.653774 0.427151 0.234863
H87   H     H_    0.961385 0.653665 0.425972 0.233090
C142  C     C_3   0.683154 0.996798 0.428648 -0.870056
H88   H     H_    0.715330 0.995816 0.404448 0.231316
H89   H     H_    0.653780 0.955060 0.427223 0.234953
H90   H     H_    0.653660 0.038278 0.425911 0.233004
C143  C     C_3   0.997137 0.316847 0.428643 -0.870063
H91   H     H_    0.996260 0.284672 0.404441 0.231320
H92   H     H_    0.955409 0.346227 0.427147 0.234858
H93   H     H_    0.038633 0.346335 0.425976 0.233095
C144  C     C_3   0.316847 0.002904 0.428643 -0.870068
H94   H     H_    0.284671 0.003794 0.404442 0.231320
H95   H     H_    0.346226 0.044633 0.427156 0.234868
H96   H     H_    0.346336 0.961411 0.425968 0.233087

loop_
_geom_bond_atom_site_label_1
_geom_bond_atom_site_label_2
_ccdc_geom_bond_type
C89   C125  A    
Cu2   O2    S    
C140  H84   S    
C106  H26   S    
C7    C79   S    
C26   C50   A    
Cu7   O27   S    
C98   C114  A    
C138  H78   S    
C20   C44   A    
C104  C116  A    
Cu12  O48   S    
C27   C51   A    
C9    C121  S    
C13   C125  S    
C64   O32   A    
C15   C127  S    
C131  H55   S    
C106  C118  A    
C32   C56   A    
C82   C98   A    
Cu1   O1    S    
C38   O42   A    
C43   C75   A    
C107  H27   S    
C84   C100  A    
C91   C107  A    
C61   O25   A    
C112  C120  A    
Cu7   O31   S    
C59   O23   A    
C26   H42   S    
C81   C121  A    
C38   O48   A    
C53   C141  S    
Cu11  O44   S    
C90   C126  A    
C60   C117  S    
C29   H45   S    
C34   O40   A    
C87   C103  A    
C137  H74   S    
C58   O20   A    
C101  C115  A    
C25   C69   A    
C5    C77   S    
C27   C71   A    
C133  H62   S    
C32   H48   S    
Cu5   O25   S    
C91   C125  A    
Cu8   O14   S    
C20   C68   A    
Cu3   O23   S    
C10   C122  S    
C104  H24   S    
Cu11  Cu12  S    
C7    O11   A    
C6    O14   A    
C14   C126  S    
C39   O43   A    
C93   H13   S    
C141  H86   S    
C83   H3    S    
C88   H8    S    
C96   H16   S    
C48   C136  S    
Cu10  O40   S    
C58   C119  S    
C85   C123  A    
Cu8   O28   S    
C17   H33   S    
C44   C132  S    
C131  H57   S    
Cu5   Cu7   S    
C134  H65   S    
C82   C122  A    
Cu2   O18   S    
Cu4   O6    S    
C29   C71   A    
C99   H19   S    
C48   C76   A    
Cu7   O11   S    
C88   C124  A    
C61   O27   A    
C112  H32   S    
C59   O21   A    
C30   C54   A    
C1    O1    A    
C132  H58   S    
C63   O31   A    
C6    O10   A    
C39   O47   A    
C85   H5    S    
C18   C42   A    
C54   C142  S    
C135  H67   S    
C6    C78   S    
C84   H4    S    
Cu11  O42   S    
C51   C139  S    
C111  C119  A    
C130  H52   S    
C36   O36   A    
C44   C76   A    
C92   C108  A    
Cu1   O17   S    
C58   O18   A    
C3    C75   S    
Cu4   O20   S    
C47   C135  S    
Cu5   O13   S    
C108  H28   S    
C139  H79   S    
C144  H95   S    
Cu6   O10   S    
Cu7   O15   S    
C88   C104  A    
C109  H29   S    
C33   C66   S    
C21   C45   A    
Cu9   O34   S    
C24   H40   S    
C23   C47   A    
C24   C48   A    
C100  C114  A    
C31   H47   S    
Cu10  O38   S    
C57   O17   A    
C143  H91   S    
C40   O44   A    
C142  H88   S    
C136  H71   S    
Cu2   O8    S    
C57   C120  S    
Cu5   O9    S    
C59   C118  S    
C86   C124  A    
C86   C102  A    
C27   H43   S    
C132  H60   S    
C63   O29   A    
C7    O13   A    
C133  H63   S    
C22   H38   S    
C56   C144  S    
C18   C66   A    
C56   C80   A    
C130  H54   S    
C23   C65   A    
C139  H80   S    
C62   C115  S    
C87   C123  A    
C43   C131  S    
C138  H77   S    
C49   C77   A    
C111  H31   S    
C51   C79   A    
C55   C143  S    
C41   C73   A    
Cu12  O45   S    
C31   C69   A    
C12   C13   T    
C139  H81   S    
C89   C105  A    
C2    O6    A    
C37   C70   S    
C93   C109  A    
Cu9   O36   S    
C37   O45   A    
C82   H2    S    
C32   C72   A    
C41   C129  S    
C8    O16   A    
C25   H41   S    
C87   H7    S    
C57   O19   A    
C143  H93   S    
Cu2   O24   S    
C50   C78   A    
C142  H90   S    
C96   C128  A    
Cu4   O4    S    
C37   O41   A    
C64   O30   A    
C52   C140  S    
C98   H18   S    
Cu11  O43   S    
C19   C67   A    
C90   H10   S    
C89   H9    S    
C83   C99   A    
C137  H73   S    
Cu5   O29   S    
C105  C117  A    
C28   C72   A    
C4    O8    A    
C86   H6    S    
C5    O9    A    
C30   C70   A    
C19   C43   A    
C42   C74   A    
C19   H35   S    
C47   C73   A    
C36   C65   S    
Cu1   O5    S    
C94   C110  A    
Cu2   Cu4   S    
C141  H85   S    
Cu6   O16   S    
C135  H69   S    
Cu12  O47   S    
Cu1   O21   S    
C102  H22   S    
C33   O33   A    
Cu8   O12   S    
C61   C116  S    
C30   H46   S    
C90   C106  A    
C110  H30   S    
C3    O3    A    
C22   C46   A    
C131  H56   S    
C26   C70   A    
C140  H83   S    
C5    O15   A    
C109  C119  A    
C103  H23   S    
C11   C123  S    
C92   C126  A    
C34   C67   S    
C99   C113  A    
Cu6   O32   S    
C94   C128  A    
C42   C130  S    
C1    C73   S    
C134  H66   S    
C62   O28   A    
C133  H61   S    
Cu11  O41   S    
C50   C138  S    
Cu3   O3    S    
C105  H25   S    
C18   H34   S    
C25   C49   A    
C24   C68   A    
C95   C127  A    
C4    O4    A    
C137  H75   S    
C31   C55   A    
C52   C80   A    
C107  C117  A    
C54   C78   A    
C28   C52   A    
C144  H94   S    
C103  C115  A    
Cu8   O30   S    
C60   O22   A    
Cu9   O33   S    
C34   O34   A    
C96   C112  A    
C29   C53   A    
C53   C79   A    
C9    C16   T    
C134  H64   S    
C141  H87   S    
C10   C15   T    
C55   C77   A    
C11   C14   T    
C84   C122  A    
Cu10  O39   S    
C35   O39   A    
C22   C66   A    
C63   C114  S    
C33   O37   A    
C92   H12   S    
C39   C72   S    
C136  H70   S    
C2    C74   S    
C8    O12   A    
C46   C134  S    
C81   H1    S    
C21   C67   A    
Cu4   O22   S    
C20   H36   S    
C132  H59   S    
C40   C69   S    
C108  C118  A    
C62   O26   A    
C110  C120  A    
C135  H68   S    
Cu3   O7    S    
Cu6   Cu8   S    
C140  H82   S    
C130  H53   S    
C97   H17   S    
C93   C127  A    
C100  H20   S    
C12   C124  S    
C94   H14   S    
C138  H76   S    
C83   C121  A    
C16   C128  S    
Cu12  O46   S    
C129  H50   S    
C144  H96   S    
C129  H51   S    
C97   C113  A    
C46   C74   A    
C85   C101  A    
C60   O24   A    
Cu9   O35   S    
C35   O35   A    
Cu6   O26   S    
C28   H44   S    
C38   C71   S    
C64   C113  S    
C40   O46   A    
C23   H39   S    
Cu3   O19   S    
C21   H37   S    
Cu9   Cu10  S    
Cu10  O37   S    
C17   C65   A    
C45   C75   A    
C101  H21   S    
C3    O5    A    
C143  H92   S    
C95   C111  A    
C2    O2    A    
C91   H11   S    
C1    O7    A    
C81   C97   A    
C35   C68   S    
C142  H89   S    
C95   H15   S    
C136  H72   S    
C17   C41   A    
C4    C76   S    
C102  C116  A    
C36   O38   A    
C8    C80   S    
C129  H49   S    
C45   C133  S    
Cu1   Cu3   S    
C49   C137  S    
