data_mof_unit_41267.cif
_audit_creation_date              2012-12-11T17:07:36-0500
_audit_creation_method            fapswitch 2.2
_symmetry_space_group_name_H-M    P1
_symmetry_Int_Tables_number       1
_space_group_crystal_system       triclinic
_cell_length_a                    6.958122
_cell_length_b                    14.521301
_cell_length_c                    16.082502
_cell_angle_alpha                 89.969392
_cell_angle_beta                  90.021312
_cell_angle_gamma                 90.032326
_cell_volume                      1624.99122383

loop_
_atom_site_label
_atom_site_type_symbol
_atom_type_description
_atom_site_fract_x
_atom_site_fract_y
_atom_site_fract_z
_atom_type_partial_charge
O1    O     O_R   0.505720 0.583900 0.413310 -0.541175
O2    O     O_R   0.175940 0.594920 0.586080 -0.546654
O3    O     O_R   0.005640 0.416100 0.586690 -0.531189
C1    C     C_R   0.344890 0.617028 0.614774 0.684120
O4    O     O_R   0.176000 0.594930 0.413930 -0.548072
O5    O     O_R   0.005700 0.416110 0.413310 -0.520605
C2    C     C_R   0.344802 0.616970 0.385194 0.680513
O6    O     O_R   0.505660 0.583890 0.586690 -0.543269
O7    O     O_3   0.339200 0.441330 0.500000 -0.336214
V1    V     V_3+5 0.064350 0.510880 0.500000 1.428334
O8    O     O_R   0.675980 0.405080 0.413920 -0.537894
C3    C     C_R   0.845059 0.383027 0.385172 0.694847
O9    O     O_R   0.675920 0.405070 0.586070 -0.535297
C4    C     C_R   0.844591 0.383162 0.614617 0.692029
V2    V     V_3+5 0.564340 0.489120 0.500000 1.451160
O10   O     O_3   0.839360 0.558670 0.500000 -0.383325
H1    H     H_    0.143120 0.096939 0.516248 0.127862
C5    C     C_R   0.693075 0.423528 0.778450 -0.146038
C6    C     C_R   0.623002 0.446133 0.856940 -0.124073
C7    C     C_R   0.637982 0.383581 0.922001 -0.124208
C8    C     C_R   0.722525 0.297843 0.908977 -0.132957
C9    C     C_R   0.793140 0.272437 0.829663 0.071013
C10   C     C_R   0.779178 0.336878 0.763072 0.072161
C11   C     C_R   0.879959 0.185261 0.816530 -0.185300
C12   C     C_R   0.953131 0.162716 0.736722 0.073756
C13   C     C_R   0.939736 0.227271 0.670202 0.053072
C14   C     C_R   0.853916 0.314655 0.683439 -0.184466
C15   C     C_R   0.036271 0.075470 0.721030 -0.141364
C16   C     C_R   0.105132 0.052623 0.642391 -0.148171
C17   C     C_R   0.091204 0.115393 0.577454 -0.103018
C18   C     C_R   0.008834 0.201580 0.590738 -0.107367
H2    H     H_    0.679338 0.474964 0.730293 0.107786
H3    H     H_    0.557794 0.512813 0.867405 0.115325
H4    H     H_    0.584639 0.401718 0.983061 0.108292
H5    H     H_    0.733213 0.252324 0.962029 0.102772
H6    H     H_    0.047644 0.023604 0.768966 0.103229
H7    H     H_    0.168148 0.985509 0.631666 0.116341
H8    H     H_    0.997919 0.247147 0.537748 0.138917
C19   C     C_R   0.734318 0.179435 0.244190 0.076791
C20   C     C_R   0.882521 0.182565 0.185307 -0.093721
C21   C     C_R   0.030697 0.247102 0.198824 -0.192737
H9    H     H_    0.150664 0.251121 0.156241 0.123548
C22   C     C_R   0.018939 0.311502 0.264252 -0.115067
H10   H     H_    0.130461 0.363077 0.269966 0.120365
C23   C     C_R   0.859374 0.312892 0.318450 -0.095680
C24   C     C_R   0.723435 0.242470 0.309242 0.017347
C25   C     C_3   0.509532 0.246411 0.304488 -0.156157
C26   C     C_3   0.521498 0.177405 0.233069 -0.464470
H11   H     H_    0.456124 0.315457 0.285544 0.139158
H12   H     H_    0.477476 0.206850 0.172193 0.171892
H13   H     H_    0.460086 0.108330 0.246932 0.157279
C27   C     C_R   0.510228 0.684383 0.740062 0.093729
C28   C     C_R   0.353473 0.682688 0.685303 -0.105546
C29   C     C_R   0.200649 0.743478 0.701760 -0.182827
H14   H     H_    0.077364 0.745092 0.661004 0.133546
C30   C     C_R   0.211339 0.807340 0.767486 -0.181423
H15   H     H_    0.094954 0.855649 0.775752 0.124534
C31   C     C_R   0.375899 0.812944 0.818372 -0.108344
C32   C     C_R   0.521304 0.748086 0.804845 0.100183
C33   C     C_3   0.730165 0.763912 0.790874 -0.406993
C34   C     C_3   0.718420 0.694600 0.720491 -0.406011
H16   H     H_    0.818825 0.739803 0.844111 0.176269
H17   H     H_    0.760413 0.835206 0.769286 0.167065
H18   H     H_    0.742085 0.725526 0.658066 0.169252
C35   C     C_R   0.507089 0.682668 0.258568 0.097977
C36   C     C_R   0.352822 0.682491 0.314568 -0.110132
C37   C     C_R   0.201416 0.744497 0.299031 -0.181476
H19   H     H_    0.079054 0.746789 0.340298 0.131543
C38   C     C_R   0.212686 0.808731 0.233521 -0.179407
H20   H     H_    0.098054 0.858310 0.226122 0.127317
C39   C     C_R   0.375999 0.813099 0.181767 -0.111677
C40   C     C_R   0.518668 0.746485 0.193964 0.101114
C41   C     C_3   0.729496 0.758731 0.205769 -0.406871
C42   C     C_3   0.717017 0.688801 0.275847 -0.400545
H21   H     H_    0.765868 0.829258 0.227500 0.165640
H22   H     H_    0.813435 0.733819 0.151468 0.175126
H23   H     H_    0.746973 0.718522 0.338205 0.168858
H24   H     H_    0.792988 0.623274 0.261915 0.164889
O11   O     O_R   0.229140 0.916090 0.913340 -0.542275
O12   O     O_R   0.558860 0.905090 0.086080 -0.539657
O13   O     O_R   0.729100 0.083920 0.086690 -0.537931
C43   C     C_R   0.389839 0.883245 0.115019 0.693797
O14   O     O_R   0.558860 0.905090 0.913930 -0.539233
O15   O     O_R   0.729100 0.083920 0.913310 -0.535233
C44   C     C_R   0.389739 0.883201 0.885041 0.698294
O16   O     O_R   0.229140 0.916080 0.086720 -0.539768
O17   O     O_3   0.395570 0.058660 0.000020 -0.366885
V3    V     V_3+5 0.670450 0.989140 0.000000 1.401014
O18   O     O_R   0.058810 0.094980 0.913910 -0.537845
C45   C     C_R   0.890005 0.116907 0.885423 0.694921
O19   O     O_R   0.058810 0.094980 0.086060 -0.543268
C46   C     C_R   0.890085 0.117031 0.114762 0.687083
V4    V     V_3+5 0.170450 0.010950 0.999970 1.402726
O20   O     O_3   0.895460 0.941370 0.999990 -0.371277
C47   C     C_2   0.417372 0.207932 0.381484 0.407935
H25   H     H_    0.459563 0.140874 0.405172 0.028180
O21   O     O_2   0.294861 0.252050 0.418186 -0.533471
H26   H     H_    0.801328 0.630754 0.733075 0.167683

loop_
_geom_bond_atom_site_label_1
_geom_bond_atom_site_label_2
_ccdc_geom_bond_type
O17   V3    S    
V4    O20   S    
C1    C28   S    
C21   C22   A    
C41   C42   S    
C47   H25   S    
C1    O6    A    
C25   H11   S    
C28   C29   A    
C12   C15   A    
C13   C14   A    
C33   H17   S    
C15   C16   A    
C27   C32   A    
O11   V4    S    
C27   C34   S    
O5    C3    A    
C17   C18   A    
V2    O10   S    
C30   H15   S    
C33   H16   S    
C5    C6    A    
C21   H9    S    
C38   C39   A    
C24   C25   S    
O13   C46   A    
O8    V2    S    
C26   H13   S    
C34   H26   S    
C42   H23   S    
O1    V2    S    
C10   C14   A    
C4    C14   S    
O7    V1    S    
C39   C43   S    
C7    H4    S    
C26   H12   S    
C36   C37   A    
C32   C33   S    
C8    C9    A    
O18   V4    S    
H1    C17   S    
C41   H21   S    
O15   C45   A    
C29   C30   A    
V3    O20   S    
C37   H19   S    
C11   C12   A    
O12   C43   A    
C6    H3    S    
O19   C46   A    
O4    C2    A    
C3    C23   S    
C31   C32   A    
C43   O16   A    
C35   C42   S    
C5    C10   A    
C33   C34   S    
C37   C38   A    
C34   H18   S    
O2    C1    A    
C22   H10   S    
C16   C17   A    
O16   V4    S    
O19   V4    S    
C25   C26   S    
C20   C46   S    
C22   C23   A    
O3    C4    A    
C19   C24   A    
C20   C21   A    
O14   C44   A    
O6    V2    S    
O9    V2    S    
C41   H22   S    
C9    C11   A    
C5    H2    S    
O2    V1    S    
C31   C44   S    
O11   C44   A    
C27   C28   A    
C29   H14   S    
O1    C2    A    
O15   V3    S    
C40   C41   S    
C11   C45   S    
O5    V1    S    
O8    C3    A    
C47   O21   D    
C8    H5    S    
C35   C40   A    
C18   H8    S    
C6    C7    A    
C12   C13   A    
O4    V1    S    
O12   V3    S    
O3    V1    S    
V1    O10   S    
C2    C36   S    
O17   V4    S    
C30   C31   A    
O14   V3    S    
O7    V2    S    
C38   H20   S    
O13   V3    S    
C19   C20   A    
C23   C24   A    
C13   C18   A    
C39   C40   A    
C7    C8    A    
C15   H6    S    
C35   C36   A    
C42   H24   S    
C16   H7    S    
C25   C47   S    
C9    C10   A    
O18   C45   A    
O9    C4    A    
C19   C26   S    
