data_mof_unit_45165.cif
_audit_creation_date              2013-03-05T16:09:07-0500
_audit_creation_method            fapswitch 2.2
_symmetry_space_group_name_H-M    P1
_symmetry_Int_Tables_number       1
_space_group_crystal_system       triclinic
_cell_length_a                    18.190281
_cell_length_b                    7.09544
_cell_length_c                    13.113553
_cell_angle_alpha                 89.60241
_cell_angle_beta                  71.976454
_cell_angle_gamma                 90.189555
_cell_volume                      1609.4215304

loop_
_atom_site_label
_atom_site_type_symbol
_atom_site_description
_atom_site_fract_x
_atom_site_fract_y
_atom_site_fract_z
_atom_type_partial_charge
O1    O     O_R   0.453880 0.506200 0.150010 -0.575543
O2    O     O_R   0.546120 0.006200 0.849990 -0.608584
O3    O     O_R   0.604080 0.177770 0.007280 -0.597023
O4    O     O_R   0.395920 0.677770 0.992720 -0.575557
C1    C     C_R   0.636083 0.344569 0.001152 1.010380
C2    C     C_R   0.363953 0.844307 0.998656 1.017759
O5    O     O_R   0.458010 0.176640 0.159130 -0.605456
O6    O     O_R   0.541990 0.676640 0.840870 -0.575830
O7    O     O_R   0.399010 0.004010 0.002930 -0.601610
O8    O     O_R   0.600990 0.504010 0.997070 -0.578521
C3    C     C_R   0.444123 0.344691 0.201396 1.047079
C4    C     C_R   0.555853 0.846113 0.798755 1.053395
O9    O     O_3   0.480810 0.338440 0.948570 -0.283634
O10   O     O_3   0.519190 0.838440 0.051430 -0.273967
V1    V     V_3+5 0.503560 0.064490 0.009540 1.222105
V2    V     V_3+5 0.496440 0.564490 0.990460 1.256178
C5    C     C_R   0.572152 0.876555 0.505344 0.521431
C6    C     C_R   0.426977 0.375705 0.495047 0.525603
H1    H     H_    0.652076 0.844036 0.296720 0.193371
H2    H     H_    0.345572 0.444608 0.699536 0.203120
C7    C     C_R   0.587319 0.857206 0.682229 -0.338496
C8    C     C_R   0.412301 0.352047 0.318061 -0.335519
C9    C     C_R   0.948782 0.871435 0.383214 0.522524
C10   C     C_R   0.051123 0.317429 0.618329 0.524500
C11   C     C_R   0.915824 0.888532 0.494045 -0.268684
C12   C     C_R   0.084709 0.279662 0.509334 -0.265280
C13   C     C_R   0.836149 0.894710 0.540283 -0.180781
C14   C     C_R   0.164503 0.282047 0.463025 -0.178287
C15   C     C_R   0.785370 0.878863 0.477823 0.139229
C16   C     C_R   0.214528 0.328422 0.523142 0.136705
C17   C     C_R   0.818180 0.863249 0.364082 -0.161019
C18   C     C_R   0.181010 0.368153 0.634552 -0.148631
C19   C     C_R   0.702935 0.877181 0.525561 0.088177
C20   C     C_R   0.296857 0.338183 0.475332 0.091609
C21   C     C_R   0.654097 0.876468 0.459413 -0.105194
C22   C     C_R   0.345112 0.366739 0.540905 -0.096271
C23   C     C_R   0.687501 0.861270 0.348845 -0.127344
C24   C     C_R   0.310862 0.403784 0.649589 -0.145505
C25   C     C_R   0.766988 0.849526 0.301631 0.316648
C26   C     C_R   0.231171 0.414809 0.694698 0.318541
C27   C     C_R   0.667437 0.867587 0.637418 -0.262652
C28   C     C_R   0.332556 0.329733 0.363542 -0.257779
C29   C     C_R   0.538801 0.861934 0.617014 0.285813
C30   C     C_R   0.460317 0.375749 0.383077 0.270450
C31   C     C_R   0.900691 0.860946 0.317692 -0.258159
C32   C     C_R   0.098659 0.359270 0.681764 -0.248589
H3    H     H_    0.700392 0.860206 0.692865 0.127516
H4    H     H_    0.299681 0.315093 0.308333 0.126595
H5    H     H_    0.816450 0.915544 0.625652 0.138121
H6    H     H_    0.185102 0.242869 0.379865 0.137929
H7    H     H_    0.952233 0.900391 0.545328 0.142631
H8    H     H_    0.048801 0.244079 0.459902 0.142548
C33   C     C_1   0.215943 0.859200 0.002008 -0.116335
C34   C     C_1   0.784238 0.357480 0.997217 -0.091269
C35   C     C_1   0.283381 0.852406 0.000245 -0.174415
C36   C     C_1   0.716758 0.352190 0.999062 -0.172153
O11   O     O_R   0.899030 0.205490 0.002790 -0.568076
O12   O     O_R   0.100970 0.705490 0.997210 -0.543319
O13   O     O_R   0.042000 0.536370 0.840840 -0.577832
O14   O     O_R   0.958000 0.036370 0.159160 -0.595876
C37   C     C_R   0.060793 0.369050 0.798750 1.056167
C38   C     C_R   0.939116 0.868158 0.201022 1.070364
O15   O     O_R   0.895930 0.535070 0.992690 -0.560560
O16   O     O_R   0.104070 0.035070 0.007310 -0.596272
O17   O     O_R   0.953870 0.707520 0.150040 -0.590020
O18   O     O_R   0.046130 0.207520 0.849960 -0.595285
C39   C     C_R   0.864580 0.366177 0.996854 1.029811
C40   C     C_R   0.135459 0.866921 0.003038 1.047091
O19   O     O_3   0.019200 0.374340 0.051340 -0.286807
O20   O     O_3   0.980800 0.874340 0.948660 -0.273387
V3    V     V_3+5 0.996440 0.648350 0.990470 1.306428
V4    V     V_3+5 0.003560 0.148350 0.009530 1.276873
N1    N     N_R   0.455825 0.852808 0.663375 0.242460
O21   O     O_R   0.411265 0.950541 0.622478 -0.372009
O22   O     O_R   0.424032 0.738518 0.742884 -0.419135
N2    N     N_R   0.542710 0.400741 0.336171 0.239144
O23   O     O_R   0.590418 0.325361 0.380744 -0.373520
O24   O     O_R   0.570299 0.511901 0.253748 -0.400079
O25   O     O_3   0.523142 0.878923 0.443246 -0.690630
H9    H     H_    0.544284 0.968218 0.382907 0.328233
O26   O     O_3   0.475552 0.396763 0.556971 -0.692422
H10   H     H_    0.455474 0.317766 0.622290 0.332503
O27   O     O_3   0.028157 0.869006 0.336469 -0.796292
H11   H     H_    0.053472 0.877625 0.393299 0.316677
O28   O     O_3   0.971837 0.309771 0.665550 -0.794181
H12   H     H_    0.946945 0.278196 0.610334 0.316788
N3    N     N_R   0.792303 0.797734 0.191734 0.214745
O29   O     O_R   0.799246 0.927788 0.119006 -0.408114
O30   O     O_R   0.778872 0.625534 0.169416 -0.399771
N4    N     N_R   0.204098 0.508501 0.794744 0.217275
O31   O     O_R   0.194401 0.689741 0.792223 -0.403940
O32   O     O_R   0.214220 0.430999 0.879598 -0.408899

loop_
_geom_bond_atom_site_label_1
_geom_bond_atom_site_label_2
_geom_bond_distance
_ccdc_geom_bond_type
C29   N1    1.443228 S    
C16   C18   1.428752 A    
N3    O29   1.299824 A    
C9    C31   1.405216 A    
C13   C15   1.416148 A    
N1    O21   1.301180 A    
C1    C36   1.460069 S    
O1    C3    1.308727 A    
C25   N3    1.421895 S    
C2    C35   1.460648 S    
O16   V4    1.991658 S    
O2    C4    1.308168 A    
C2    O7    1.308464 A    
C5    C29   1.403916 A    
O26   H10   0.989786 S    
O28   H12   0.991955 S    
O5    C3    1.310473 A    
C9    O27   1.383251 S    
O16   C40   1.318431 A    
C21   C23   1.393044 A    
C10   C12   1.397863 A    
C6    C30   1.404538 A    
O12   V3    1.971553 S    
O14   V4    2.033717 S    
C15   C19   1.435086 A    
C31   C38   1.472705 S    
C5    O25   1.381067 S    
C6    O26   1.381038 S    
O14   C38   1.309730 A    
O19   V3    2.185601 S    
C33   C40   1.461121 S    
H1    C23   1.081951 S    
C7    C29   1.406509 A    
C14   H6    1.076555 S    
C37   O18   1.308500 A    
C8    C30   1.407083 A    
O18   V4    2.034089 S    
C20   C28   1.409503 A    
O20   V3    1.743587 S    
C10   O28   1.383039 S    
O5    V1    2.046476 S    
O6    V2    2.033720 S    
N1    O22   1.300471 A    
O11   C39   1.316199 A    
C26   N4    1.421323 S    
O15   C39   1.318930 A    
C33   C35   1.220873 T    
C34   C36   1.220650 T    
O13   C37   1.313769 A    
C16   C20   1.434682 A    
C32   C37   1.476700 S    
N2    O23   1.301329 A    
O4    C2    1.310837 A    
C34   C39   1.461076 S    
O17   V3    2.041131 S    
C4    C7    1.457953 S    
O4    V2    1.991687 S    
O19   V4    1.748845 S    
C11   H7    1.083514 S    
C12   H8    1.083413 S    
H2    C24   1.081145 S    
N4    O32   1.301332 A    
O27   H11   0.991958 S    
O6    C4    1.310408 A    
C27   H3    1.077114 S    
O1    V2    2.032613 S    
C28   H4    1.077538 S    
O2    V1    2.039552 S    
C7    C27   1.394048 A    
O12   C40   1.318162 A    
O15   V3    1.986609 S    
N3    O30   1.298251 A    
O3    V1    1.986631 S    
C38   O17   1.311374 A    
C18   C32   1.433945 A    
N2    O24   1.300803 A    
O3    C1    1.308140 A    
C11   C13   1.388176 A    
C3    C8    1.460021 S    
C12   C14   1.389282 A    
C19   C27   1.409044 A    
C22   C24   1.394754 A    
O7    V1    1.976261 S    
C10   C32   1.405222 A    
C1    O8    1.309691 A    
C23   C25   1.388677 A    
O8    V2    1.978734 S    
C24   C26   1.388571 A    
N4    O31   1.300179 A    
C8    C28   1.395285 A    
C14   C16   1.415388 A    
C19   C21   1.420777 A    
C17   C25   1.421171 A    
C20   C22   1.421016 A    
C18   C26   1.418172 A    
O11   V4    1.973885 S    
O25   H9    0.989214 S    
C9    C11   1.396504 A    
C15   C17   1.430045 A    
C17   C31   1.434692 A    
O9    V2    1.749579 S    
O10   V1    1.744306 S    
O20   V4    2.193007 S    
C5    C21   1.424472 A    
C30   N2    1.443027 S    
C6    C22   1.424056 A    
C13   H5    1.076068 S    
O13   V3    2.046456 S    
