data_mof_unit_42034.cif
_audit_creation_date              2012-12-10T19:07:02-0500
_audit_creation_method            fapswitch 2.2
_symmetry_space_group_name_H-M    P1
_symmetry_Int_Tables_number       1
_space_group_crystal_system       triclinic
_cell_length_a                    27.801741
_cell_length_b                    10.85369
_cell_length_c                    9.536578
_cell_angle_alpha                 90.017907
_cell_angle_beta                  90.231454
_cell_angle_gamma                 90.082999
_cell_volume                      2877.64986414

loop_
_atom_site_label
_atom_site_type_symbol
_atom_type_description
_atom_site_fract_x
_atom_site_fract_y
_atom_site_fract_z
_atom_type_partial_charge
C1    C     C_R   0.500153 0.262684 0.499835 0.810696
C2    C     C_R   0.278781 0.510100 0.371307 -0.103278
C3    C     C_R   0.253528 0.499351 0.497404 0.360153
C4    C     C_R   0.101843 0.499048 0.497471 -0.048409
C5    C     C_R   0.127415 0.389083 0.521305 -0.020113
C6    C     C_R   0.102149 0.279642 0.544642 -0.143139
C7    C     C_R   0.127393 0.608647 0.471024 -0.016450
C8    C     C_R   0.354451 0.499734 0.498965 -0.039351
C9    C     C_R   0.645518 0.499576 0.499408 -0.037456
C10   C     C_R   0.974552 0.386247 0.504482 0.066736
C11   C     C_R   0.974733 0.613920 0.501142 -0.080569
C12   C     C_R   0.407439 0.499922 0.499709 0.800699
C13   C     C_R   0.949366 0.500058 0.501691 0.016191
C14   C     C_R   0.947803 0.275572 0.495518 -0.213224
C15   C     C_R   0.897865 0.276606 0.490184 -0.142116
C16   C     C_R   0.872678 0.387839 0.494045 -0.004251
C17   C     C_R   0.898299 0.499811 0.500429 -0.049272
C18   C     C_R   0.872722 0.611411 0.505830 -0.095829
C19   C     C_R   0.822225 0.609257 0.503483 0.560548
C20   C     C_R   0.822181 0.389792 0.491863 0.532231
C21   C     C_R   0.720760 0.463518 0.377444 -0.097686
C22   C     C_R   0.670582 0.463785 0.378323 -0.217568
C23   C     C_R   0.500281 0.737311 0.499859 0.811628
C24   C     C_R   0.671559 0.535550 0.619069 -0.216076
C25   C     C_R   0.721689 0.535451 0.617979 -0.099641
C26   C     C_R   0.746478 0.499403 0.497270 0.349624
C27   C     C_R   0.025475 0.386680 0.515165 0.045847
C28   C     C_R   0.050778 0.499323 0.499349 0.066953
C29   C     C_R   0.025560 0.612135 0.484006 0.040436
C30   C     C_R   0.052166 0.278112 0.540877 -0.214613
C31   C     C_R   0.102067 0.716954 0.442541 -0.180085
C32   C     C_R   0.947994 0.724584 0.521568 0.407374
C33   C     C_R   0.897850 0.722358 0.518086 -0.214337
C34   C     C_R   0.592551 0.499954 0.500083 0.800778
C35   C     C_R   0.052100 0.718299 0.446826 -0.169245
C36   C     C_R   0.498075 0.062039 0.620857 0.137870
C37   C     C_R   0.501032 0.130090 0.498177 -0.103316
C38   C     C_R   0.504961 0.064574 0.370791 -0.210863
C39   C     C_R   0.505073 0.935351 0.370843 -0.209904
C40   C     C_R   0.501240 0.869904 0.498288 -0.104456
C41   C     C_R   0.498250 0.938040 0.620957 0.134103
C42   C     C_3   0.491990 0.929243 0.775738 -0.466012
C43   C     C_3   0.491749 0.071126 0.775555 -0.474946
C44   C     C_R   0.521583 0.593613 0.074089 0.254782
C45   C     C_R   0.177903 0.391344 0.521326 0.533207
C46   C     C_R   0.474539 0.414871 0.074115 -0.081118
C47   C     C_R   0.474483 0.414984 0.925164 -0.079799
C48   C     C_R   0.521836 0.593138 0.926596 0.259138
C49   C     C_3   0.573823 0.626534 0.922745 -0.512122
C50   C     C_3   0.573259 0.629504 0.081614 -0.491678
C51   C     C_R   0.177877 0.606606 0.470846 0.537209
C52   C     C_R   0.278677 0.488736 0.624278 -0.104285
C53   C     C_R   0.328840 0.489193 0.625256 -0.216313
C54   C     C_R   0.328939 0.510022 0.371881 -0.214602
Cu1   Cu    Cu3+1 0.500000 0.499980 0.640670 0.945803
Cu2   Cu    Cu3+1 0.500000 0.500020 0.359330 0.943964
H1    H     H_    0.347676 0.518361 0.272975 0.159133
H2    H     H_    0.259283 0.480526 0.722094 0.138408
H3    H     H_    0.120761 0.801296 0.415640 0.190854
H4    H     H_    0.653335 0.565436 0.712746 0.147209
H5    H     H_    0.878722 0.808664 0.529766 0.206284
H6    H     H_    0.741349 0.563447 0.710953 0.141273
H7    H     H_    0.035026 0.802716 0.414379 0.205636
H8    H     H_    0.507716 0.112374 0.271453 0.166066
H9    H     H_    0.507905 0.887493 0.271530 0.164143
H10   H     H_    0.456820 0.887866 0.804832 0.204241
H11   H     H_    0.259473 0.518094 0.272894 0.138853
H12   H     H_    0.523935 0.889044 0.828862 0.193935
H13   H     H_    0.456387 0.111296 0.804347 0.193636
H14   H     H_    0.523534 0.112826 0.828498 0.205192
H15   H     H_    0.454684 0.344549 0.129709 0.140740
H16   H     H_    0.454497 0.344960 0.869035 0.137024
H17   H     H_    0.596248 0.550366 0.881489 0.214525
H18   H     H_    0.580254 0.718158 0.874427 0.192003
H19   H     H_    0.596352 0.557296 0.129323 0.218161
H20   H     H_    0.578207 0.723534 0.125650 0.194894
H21   H     H_    0.120930 0.194077 0.565109 0.187197
H22   H     H_    0.651457 0.434907 0.284801 0.150068
H23   H     H_    0.739698 0.435708 0.283650 0.142446
H24   H     H_    0.879048 0.189314 0.483245 0.192982
H25   H     H_    0.964545 0.186311 0.488266 0.154156
H26   H     H_    0.035360 0.190685 0.562208 0.144115
H27   H     H_    0.347501 0.480940 0.724701 0.157240
N1    N     N_R   0.201974 0.499129 0.496633 -0.470291
N2    N     N_R   0.798078 0.499493 0.496605 -0.467940
N3    N     N_R   0.500300 0.500930 0.147930 -0.185399
N4    N     N_R   0.500310 0.500890 0.852020 -0.184169
O1    O     O_R   0.500000 0.319640 0.618810 -0.581890
O2    O     O_2   0.797340 0.282946 0.486648 -0.533634
O3    O     O_2   0.202721 0.711271 0.446301 -0.532474
O4    O     O_2   0.797413 0.715998 0.507412 -0.533920
O5    O     O_R   0.500010 0.319680 0.381230 -0.590080
O6    O     O_R   0.430260 0.500000 0.618780 -0.585113
O7    O     O_R   0.430270 0.500040 0.381190 -0.583266
O8    O     O_R   0.499990 0.680320 0.618770 -0.579370
O9    O     O_R   0.500000 0.680360 0.381190 -0.585156
O10   O     O_R   0.569730 0.499960 0.618810 -0.581574
O11   O     O_R   0.569740 0.500000 0.381220 -0.585292
O12   O     O_2   0.202779 0.286608 0.544736 -0.533574
O13   O     O_3   0.969707 0.836005 0.552205 -0.602259
C55   C     C_3   0.978870 0.841143 0.697843 0.066166
H28   H     H_    0.003048 0.764780 0.731553 0.154483
H29   H     H_    0.944668 0.836233 0.758159 0.152867
C56   C     C_3   0.003577 0.962508 0.732514 -0.781865
H30   H     H_    0.979859 0.040765 0.703470 0.244109
H31   H     H_    0.011394 0.967195 0.846672 0.211021
H32   H     H_    0.037920 0.969954 0.673958 0.244359

loop_
_geom_bond_atom_site_label_1
_geom_bond_atom_site_label_2
_ccdc_geom_bond_type
C10   C27   A    
C21   C26   A    
C55   H28   S    
C41   C42   S    
Cu1   O10   S    
Cu2   O11   S    
Cu1   Cu2   S    
C56   H31   S    
Cu2   O7    S    
C28   C29   A    
C36   C37   A    
C51   O3    S    
C5    C6    A    
C2    C54   A    
C9    C22   A    
C23   C40   S    
C34   O10   A    
C23   O9    A    
C18   C19   A    
C31   H3    S    
Cu1   O1    S    
C1    O5    A    
C16   C17   A    
C16   C20   A    
C1    O1    A    
C55   H29   S    
C21   C22   A    
C27   C30   A    
C42   H12   S    
C39   H9    S    
C12   O7    A    
C36   C41   A    
C4    C7    A    
C44   N3    A    
C56   H30   S    
C4    C28   A    
C38   H8    S    
C7    C31   A    
C24   C25   A    
C22   H22   S    
Cu1   O8    S    
C2    H11   S    
C10   C14   A    
C8    C54   A    
C39   C40   A    
C6    H21   S    
C25   C26   A    
C5    C45   A    
C32   O13   S    
C47   N4    A    
C30   H26   S    
C37   C38   A    
C50   H20   S    
Cu2   N3    S    
C15   H24   S    
C8    C12   S    
C20   N2    A    
C21   H23   S    
C17   C18   A    
C48   N4    A    
C46   H15   S    
C52   H2    S    
C33   H5    S    
C48   C49   S    
C6    C30   A    
C11   C32   A    
C55   C56   S    
C45   O12   S    
C9    C34   S    
C31   C35   A    
C12   O6    A    
C45   N1    A    
C42   C43   S    
C3    N1    S    
C52   C53   A    
C44   C50   S    
Cu2   O9    S    
C46   C47   A    
C40   C41   A    
C14   C15   A    
C4    C5    A    
C19   N2    A    
C10   C13   A    
C8    C53   A    
C3    C52   A    
C9    C24   A    
C1    C37   S    
C43   H14   S    
C20   O2    S    
C29   C35   A    
C13   C17   A    
C53   H27   S    
C32   C33   A    
C2    C3    A    
C7    C51   A    
C50   H19   S    
C11   C13   A    
C38   C39   A    
C26   N2    S    
C51   N1    A    
O13   C55   S    
C34   O11   A    
C23   O8    A    
C49   H17   S    
C25   H6    S    
Cu1   N4    S    
C18   C33   A    
C47   H16   S    
C19   O4    S    
C44   C48   A    
Cu2   O5    S    
C11   C29   A    
C43   H13   S    
C49   C50   S    
C27   C28   A    
C42   H10   S    
C49   H18   S    
C36   C43   S    
C35   H7    S    
C24   H4    S    
C14   H25   S    
Cu1   O6    S    
C56   H32   S    
C15   C16   A    
C46   N3    A    
C54   H1    S    
