data_mof_unit_8070.cif
_audit_creation_date              2012-12-10T19:26:39-0500
_audit_creation_method            fapswitch 2.2
_symmetry_space_group_name_H-M    P1
_symmetry_Int_Tables_number       1
_space_group_crystal_system       triclinic
_cell_length_a                    17.711924
_cell_length_b                    16.44206
_cell_length_c                    11.726619
_cell_angle_alpha                 90.053673
_cell_angle_beta                  90.101658
_cell_angle_gamma                 90.062532
_cell_volume                      3415.0231355

loop_
_atom_site_label
_atom_site_type_symbol
_atom_type_description
_atom_site_fract_x
_atom_site_fract_y
_atom_site_fract_z
_atom_type_partial_charge
C1    C     C_R   0.355278 0.500013 0.500298 0.846004
C2    C     C_R   0.644620 0.500049 0.499378 0.843931
C3    C     C_R   0.765782 0.566785 0.450453 -0.295946
C4    C     C_R   0.231762 0.429860 0.473920 -0.291823
C5    C     C_R   0.233601 0.572145 0.527791 -0.295949
C6    C     C_R   0.767935 0.434407 0.541059 -0.291654
C7    C     C_R   0.727266 0.500543 0.497812 -0.146429
C8    C     C_R   0.272437 0.500590 0.500084 -0.149571
C9    C     C_R   0.885109 0.502748 0.494835 -0.062049
C10   C     C_R   0.114420 0.503291 0.498482 -0.059294
C11   C     C_1   0.965937 0.504028 0.495136 0.061083
C12   C     C_1   0.033605 0.504266 0.496994 0.061788
C13   C     C_R   0.499928 0.499970 0.283539 0.829908
C14   C     C_R   0.500052 0.500027 0.716461 0.830545
C15   C     C_R   0.546078 0.829036 0.575707 0.289093
C16   C     C_R   0.442679 0.170615 0.443116 0.311211
C17   C     C_R   0.451491 0.829132 0.426190 0.321197
C18   C     C_R   0.555879 0.170839 0.560049 0.312037
C19   C     C_R   0.544659 0.743039 0.574669 -0.040450
C20   C     C_R   0.443762 0.257075 0.445857 -0.057396
C21   C     C_R   0.454772 0.742599 0.425784 -0.066234
C22   C     C_R   0.555810 0.257252 0.555066 -0.053984
C23   C     C_1   0.498808 0.962738 0.501803 0.100690
C24   C     C_1   0.498961 0.037263 0.502052 0.113927
C25   C     C_1   0.499912 0.499918 0.162070 -0.189280
C26   C     C_1   0.500035 0.500056 0.837934 -0.187422
C27   C     C_1   0.499935 0.499940 0.059785 -0.000781
C28   C     C_1   0.499994 0.500008 0.940220 0.000065
C29   C     C_R   0.498820 0.872985 0.501135 -0.062569
C30   C     C_R   0.499170 0.127037 0.501820 -0.052213
C31   C     C_R   0.844920 0.568851 0.449412 0.408297
C32   C     C_R   0.152728 0.431043 0.471434 0.427453
C33   C     C_R   0.154489 0.574562 0.525358 0.406643
C34   C     C_R   0.847012 0.435882 0.542348 0.429978
Cu1   Cu    Cu3+1 0.500000 0.580420 0.500000 0.936063
Cu2   Cu    Cu3+1 0.500000 0.419580 0.500000 0.940613
H1    H     H_    0.579644 0.709684 0.634107 0.150295
H2    H     H_    0.399383 0.291100 0.404544 0.141452
H3    H     H_    0.420966 0.708129 0.366094 0.146590
H4    H     H_    0.600453 0.291358 0.595940 0.141459
H5    H     H_    0.734191 0.615339 0.410293 0.163954
H6    H     H_    0.261023 0.373498 0.455796 0.160813
H7    H     H_    0.264775 0.625556 0.554579 0.167847
H8    H     H_    0.738455 0.381685 0.574010 0.154283
N1    N     N_R   0.500000 0.701220 0.500000 -0.206293
N2    N     N_R   0.500000 0.298780 0.500000 -0.202063
O1    O     O_R   0.391260 0.567930 0.500000 -0.584971
O2    O     O_R   0.608740 0.432070 0.500000 -0.583415
O3    O     O_R   0.608740 0.567930 0.500000 -0.586580
O4    O     O_R   0.391260 0.432070 0.500000 -0.585185
O5    O     O_R   0.500010 0.567910 0.337200 -0.575978
O6    O     O_R   0.499990 0.432090 0.662800 -0.572916
O7    O     O_R   0.499990 0.567910 0.662800 -0.572755
O8    O     O_R   0.500010 0.432090 0.337200 -0.571552
O9    O     O_3   0.589253 0.869791 0.655712 -0.598157
C35   C     C_3   0.664721 0.872574 0.617461 0.062302
H9    H     H_    0.668374 0.905167 0.534267 0.149987
H10   H     H_    0.688191 0.810055 0.607790 0.120062
C36   C     C_3   0.712135 0.918467 0.705493 -0.292226
H11   H     H_    0.688837 0.980577 0.717020 0.239097
H12   H     H_    0.709310 0.886233 0.788667 0.218399
C37   C     C_3   0.794421 0.925164 0.668639 -0.951064
H13   H     H_    0.819143 0.863644 0.657134 0.254854
H14   H     H_    0.827209 0.957911 0.735171 0.260393
H15   H     H_    0.798683 0.959713 0.587567 0.267868
O10   O     O_3   0.383579 0.127455 0.393530 -0.598232
C38   C     C_3   0.368289 0.153317 0.280577 0.076957
H16   H     H_    0.370721 0.098815 0.224604 0.173579
H17   H     H_    0.410226 0.197245 0.245142 0.117331
C39   C     C_3   0.288470 0.188731 0.274114 -0.355638
H18   H     H_    0.246988 0.141549 0.300281 0.230814
H19   H     H_    0.283253 0.240968 0.333630 0.203476
C40   C     C_3   0.269559 0.217271 0.153637 -0.936148
H20   H     H_    0.308673 0.266649 0.127357 0.260012
H21   H     H_    0.210932 0.240996 0.151254 0.255183
H22   H     H_    0.273969 0.165884 0.092459 0.263597
O11   O     O_3   0.407874 0.872261 0.348317 -0.598067
C41   C     C_3   0.332407 0.843654 0.343309 0.061149
H23   H     H_    0.294639 0.896653 0.357090 0.170356
H24   H     H_    0.317358 0.798615 0.410765 0.110702
C42   C     C_3   0.316321 0.808884 0.224562 -0.330604
H25   H     H_    0.322942 0.857881 0.160080 0.229026
H26   H     H_    0.357485 0.760074 0.204395 0.215690
C43   C     C_3   0.236612 0.774077 0.216396 -0.940986
H27   H     H_    0.230216 0.721925 0.275673 0.246798
H28   H     H_    0.225996 0.752205 0.128207 0.264825
H29   H     H_    0.194226 0.821477 0.237375 0.259354
O12   O     O_3   0.613859 0.127803 0.612414 -0.606498
C44   C     C_3   0.628525 0.155770 0.724711 0.055350
H30   H     H_    0.622989 0.103013 0.783196 0.162534
H31   H     H_    0.587983 0.202338 0.756899 0.124207
C45   C     C_3   0.709545 0.187890 0.732137 -0.345978
H32   H     H_    0.749460 0.138414 0.709081 0.233435
H33   H     H_    0.717391 0.238554 0.670702 0.210319
C46   C     C_3   0.728072 0.218269 0.851964 -0.936854
H34   H     H_    0.690552 0.269774 0.875140 0.258526
H35   H     H_    0.787519 0.239618 0.855149 0.251078
H36   H     H_    0.720973 0.168457 0.914984 0.262458
O13   O     O_3   0.883176 0.628744 0.389749 -0.602398
C47   C     C_3   0.872838 0.705222 0.442376 0.050619
H37   H     H_    0.901716 0.706107 0.526803 0.140473
H38   H     H_    0.812095 0.720152 0.454418 0.129346
C48   C     C_3   0.907375 0.770438 0.365721 -0.309985
H39   H     H_    0.968625 0.758376 0.355154 0.222534
H40   H     H_    0.880431 0.767550 0.280112 0.226848
C49   C     C_3   0.896190 0.855541 0.414726 -0.945512
H41   H     H_    0.835031 0.869891 0.419878 0.257667
H42   H     H_    0.923783 0.900908 0.358411 0.264724
H43   H     H_    0.921692 0.860113 0.501025 0.262956
O14   O     O_3   0.112636 0.359632 0.454975 -0.593710
C50   C     C_3   0.117758 0.333989 0.339983 0.040014
H44   H     H_    0.123852 0.266740 0.340037 0.175102
H45   H     H_    0.167559 0.358658 0.292979 0.124126
C51   C     C_3   0.045085 0.356310 0.276728 -0.319594
H46   H     H_    0.995676 0.332216 0.324373 0.250865
H47   H     H_    0.039958 0.423568 0.271894 0.212619
C52   C     C_3   0.044300 0.321450 0.156187 -0.932973
H48   H     H_    0.091342 0.347449 0.105333 0.259343
H49   H     H_    0.990019 0.337084 0.114330 0.267618
H50   H     H_    0.049716 0.254170 0.158569 0.258529
O15   O     O_3   0.115913 0.642611 0.563594 -0.602762
C53   C     C_3   0.128206 0.708608 0.488801 0.047667
H51   H     H_    0.102142 0.695453 0.404231 0.146103
H52   H     H_    0.189343 0.721703 0.477305 0.130950
C54   C     C_3   0.091786 0.784580 0.539531 -0.308409
H53   H     H_    0.030420 0.773806 0.551126 0.221115
H54   H     H_    0.116949 0.797057 0.624690 0.225530
C55   C     C_3   0.103645 0.858712 0.463355 -0.937047
H55   H     H_    0.164805 0.872543 0.455642 0.251973
H56   H     H_    0.074879 0.912202 0.501350 0.265159
H57   H     H_    0.079786 0.847716 0.377098 0.256908
O16   O     O_3   0.887498 0.368470 0.578180 -0.597044
C56   C     C_3   0.881671 0.359193 0.697812 0.049689
H58   H     H_    0.891793 0.294022 0.717457 0.176669
H59   H     H_    0.824530 0.373791 0.731891 0.125522
C57   C     C_3   0.941993 0.410199 0.758681 -0.336626
H60   H     H_    0.998542 0.395209 0.723481 0.246745
H61   H     H_    0.930970 0.475878 0.743975 0.207373
C58   C     C_3   0.942066 0.394014 0.886690 -0.922966
H62   H     H_    0.886352 0.409733 0.924021 0.258908
H63   H     H_    0.986166 0.431855 0.928365 0.265790
H64   H     H_    0.954515 0.328937 0.903677 0.257804

loop_
_geom_bond_atom_site_label_1
_geom_bond_atom_site_label_2
_ccdc_geom_bond_type
O9    C35   S    
Cu1   O7    S    
C1    C8    S    
C17   C29   A    
C40   H20   S    
C46   H34   S    
C43   H29   S    
C4    C8    A    
Cu1   O1    S    
C55   H55   S    
C42   H25   S    
C46   H36   S    
O11   C41   S    
C15   C19   A    
C4    H6    S    
C23   C29   S    
C43   H28   S    
C13   O8    A    
C3    C7    A    
C52   H49   S    
C58   H64   S    
C41   H24   S    
C49   H41   S    
C16   C30   A    
C35   H9    S    
O14   C50   S    
C45   H32   S    
C37   H14   S    
C19   H1    S    
C2    C7    S    
C13   O5    A    
C14   O6    A    
C50   H44   S    
O16   C56   S    
C5    C33   A    
Cu1   O3    S    
C56   C57   S    
C23   C24   T    
Cu2   N2    S    
C39   H18   S    
C18   C30   A    
C31   O13   S    
C44   H31   S    
C1    O4    A    
Cu2   O6    S    
O10   C38   S    
C5    H7    S    
C34   O16   S    
C36   H11   S    
C6    H8    S    
C33   O15   S    
C40   H21   S    
C13   C25   S    
C57   C58   S    
C17   O11   S    
C42   H26   S    
C15   C29   A    
C21   N1    A    
C36   H12   S    
C38   H16   S    
C43   H27   S    
C50   H45   S    
C52   H50   S    
C41   H23   S    
C1    O1    A    
C2    O2    A    
C47   C48   S    
C17   C21   A    
C19   N1    A    
C6    C34   A    
C38   H17   S    
Cu1   Cu2   S    
C15   O9    S    
C48   C49   S    
C37   H13   S    
C2    O3    A    
C54   C55   S    
C20   H2    S    
O13   C47   S    
C21   H3    S    
C16   C20   A    
C22   H4    S    
C39   C40   S    
C45   H33   S    
C48   H40   S    
C14   C26   S    
C44   C45   S    
C3    C31   A    
C9    C11   S    
O15   C53   S    
C4    C32   A    
C10   C12   S    
C57   H61   S    
C22   N2    A    
Cu1   O5    S    
C56   H58   S    
C40   H22   S    
C24   C30   S    
C16   O10   S    
C53   H52   S    
Cu1   N1    S    
C55   H57   S    
C48   H39   S    
C42   C43   S    
Cu2   O4    S    
C54   H54   S    
C47   H38   S    
C3    H5    S    
C36   C37   S    
C37   H15   S    
C18   C22   A    
C57   H60   S    
C55   H56   S    
C5    C8    A    
C51   H47   S    
C58   H62   S    
C46   H35   S    
C51   H46   S    
C6    C7    A    
C25   C27   T    
C10   C33   A    
C26   C28   T    
C35   C36   S    
C38   C39   S    
C53   C54   S    
C44   H30   S    
C52   H48   S    
C58   H63   S    
C41   C42   S    
C54   H53   S    
C49   H42   S    
C47   H37   S    
C35   H10   S    
C9    C34   A    
Cu2   O2    S    
C50   C51   S    
C45   C46   S    
C18   O12   S    
C51   C52   S    
Cu2   O8    S    
C9    C31   A    
C10   C32   A    
C14   O7    A    
O12   C44   S    
C32   O14   S    
C27   C28   S    
C56   H59   S    
C39   H19   S    
C53   H51   S    
C20   N2    A    
C11   C12   T    
C49   H43   S    
