data_mof_unit_30265.cif
_audit_creation_date              2013-03-05T15:52:56-0500
_audit_creation_method            fapswitch 2.2
_symmetry_space_group_name_H-M    P1
_symmetry_Int_Tables_number       1
_space_group_crystal_system       triclinic
_cell_length_a                    10.763209
_cell_length_b                    10.743189
_cell_length_c                    17.081386
_cell_angle_alpha                 99.540466
_cell_angle_beta                  100.035214
_cell_angle_gamma                 60.725363
_cell_volume                      1689.05512182

loop_
_atom_site_label
_atom_site_type_symbol
_atom_site_description
_atom_site_fract_x
_atom_site_fract_y
_atom_site_fract_z
_atom_type_partial_charge
O1    O     O_R   0.749810 0.499790 0.438040 -0.511123
O2    O     O_R   0.477660 0.726260 0.439290 -0.495835
C1    C     C_R   0.356791 0.767269 0.396752 0.538513
O3    O     O_R   0.260150 0.743000 0.412270 -0.531853
O4    O     O_R   0.297740 0.466550 0.394720 -0.494706
C2    C     C_R   0.369294 0.346501 0.357528 0.559596
O5    O     O_R   0.488080 0.253500 0.386430 -0.520477
O6    O     O_R   0.722670 0.303800 0.421940 -0.495949
C3    C     C_R   0.781598 0.374729 0.406323 0.557997
O7    O     O_R   0.751130 0.502220 0.613520 -0.478091
O8    O     O_R   0.478890 0.728510 0.601960 -0.518964
C4    C     C_R   0.358695 0.768146 0.627672 0.544369
O9    O     O_R   0.261470 0.745430 0.587750 -0.467106
O10   O     O_R   0.298970 0.468800 0.557390 -0.418928
C5    C     C_R   0.408936 0.375846 0.599956 0.549037
O11   O     O_R   0.489400 0.255930 0.561910 -0.539982
O12   O     O_R   0.723890 0.306050 0.584610 -0.529421
C6    C     C_R   0.719463 0.411179 0.635545 0.530528
Cr1   Cr    Cr6+3 0.608100 0.610860 0.522250 1.032549
Cr2   Cr    Cr6+3 0.288890 0.599990 0.488420 1.067323
Cr3   Cr    Cr6+3 0.603040 0.289190 0.489390 0.992817
O13   O     O_3   0.500010 0.500010 0.500020 -0.296031
C7    C     C_1   0.342659 0.336431 0.274174 -0.029034
C8    C     C_1   0.331863 0.325817 0.203403 -0.002501
H1    H     H_    0.837125 0.545058 0.336715 0.175416
C9    C     C_R   0.857592 0.321738 0.170155 0.005190
C10   C     C_R   0.869098 0.202599 0.203940 -0.038948
C11   C     C_R   0.881458 0.205578 0.287897 0.003891
C12   C     C_R   0.849947 0.446741 0.301288 -0.108496
C13   C     C_R   0.851058 0.441603 0.221168 0.356905
C14   C     C_R   0.871422 0.079358 0.158088 -0.061116
C15   C     C_R   0.914729 0.955358 0.193947 -0.093383
C16   C     C_R   0.945730 0.953784 0.276421 -0.141735
C17   C     C_R   0.923862 0.079610 0.323598 -0.085356
C18   C     C_R   0.851975 0.335021 0.334181 -0.060824
H2    H     H_    0.836715 0.076882 0.094944 0.168035
H3    H     H_    0.917243 0.862196 0.157776 0.223949
H4    H     H_    0.978164 0.857156 0.303992 0.142022
H5    H     H_    0.943858 0.077196 0.387834 0.132212
H6    H     H_    0.230163 0.679752 0.270692 0.174385
C19   C     C_R   0.361359 0.801933 0.153561 0.025375
C20   C     C_R   0.457292 0.830483 0.212012 -0.035150
C21   C     C_R   0.436026 0.846930 0.293383 -0.030668
C22   C     C_R   0.283344 0.734069 0.254939 -0.140990
C23   C     C_R   0.289567 0.735242 0.174543 0.173638
C24   C     C_R   0.570679 0.847236 0.192242 0.271453
C25   C     C_R   0.639022 0.906714 0.250983 -0.076234
C26   C     C_R   0.606376 0.938807 0.329252 -0.145940
C27   C     C_R   0.505797 0.909104 0.350771 -0.096984
C28   C     C_R   0.348515 0.796966 0.314834 -0.030249
H7    H     H_    0.720419 0.924850 0.236237 0.150544
H8    H     H_    0.662942 0.982407 0.373937 0.146073
H9    H     H_    0.483097 0.935807 0.412353 0.146887
C29   C     C_R   0.301726 0.281083 0.800670 -0.065167
C30   C     C_R   0.425280 0.178513 0.763041 0.014862
C31   C     C_R   0.479184 0.225104 0.712215 -0.017008
C32   C     C_R   0.257112 0.453186 0.710853 0.353848
C33   C     C_R   0.218525 0.417403 0.773637 -0.089779
C34   C     C_R   0.500793 0.032077 0.777537 -0.074185
C35   C     C_R   0.636893 0.941675 0.754022 -0.096584
C36   C     C_R   0.700846 0.995812 0.715709 -0.101553
C37   C     C_R   0.623159 0.136048 0.695021 -0.085066
C38   C     C_R   0.385184 0.355803 0.677713 -0.006541
H10   H     H_    0.456362 0.986868 0.808011 0.147484
H11   H     H_    0.123889 0.496867 0.801322 0.173444
H12   H     H_    0.693970 0.830994 0.767587 0.137929
H13   H     H_    0.809080 0.928311 0.700081 0.151626
H14   H     H_    0.676761 0.172461 0.664632 0.153961
C39   C     C_1   0.770471 0.368229 0.714737 -0.057758
C40   C     C_1   0.814990 0.329536 0.780781 -0.039494
C41   C     C_1   0.339911 0.808069 0.709801 -0.025293
C42   C     C_1   0.313256 0.836131 0.777699 -0.025325
O14   O     O_R   0.171100 0.914680 0.053100 -0.476059
O15   O     O_R   0.941680 0.184840 0.050710 -0.543729
C43   C     C_R   0.897379 0.307258 0.090030 0.573360
O16   O     O_R   0.922080 0.403420 0.072610 -0.383066
O17   O     O_R   0.196880 0.369150 0.083850 -0.417993
C44   C     C_R   0.319179 0.299315 0.120154 0.598652
O18   O     O_R   0.411730 0.181020 0.091530 -0.505856
O19   O     O_R   0.365010 0.944360 0.063320 -0.475979
C45   C     C_R   0.299210 0.884686 0.083207 0.590678
O20   O     O_R   0.159380 0.906670 0.876210 -0.473750
O21   O     O_R   0.930820 0.177420 0.886730 -0.498054
C46   C     C_R   0.880076 0.300580 0.860369 0.546581
O22   O     O_R   0.910360 0.395420 0.895720 -0.504800
O23   O     O_R   0.186010 0.361730 0.919870 -0.470648
C47   C     C_R   0.279770 0.254736 0.877160 0.529175
O24   O     O_R   0.400000 0.173010 0.914630 -0.494945
O25   O     O_R   0.354140 0.936940 0.899340 -0.528137
C48   C     C_R   0.278910 0.884442 0.857369 0.558110
Cr4   Cr    Cr6+3 0.053960 0.052250 0.967380 1.061700
Cr5   Cr    Cr6+3 0.059890 0.373160 0.992710 1.169600
Cr6   Cr    Cr6+3 0.373370 0.061690 0.991710 1.096643
O26   O     O_3   0.162410 0.162370 0.983930 -0.321557
F1    F     F_    0.169842 0.583702 0.683427 -0.614852
F2    F     F_    0.849568 0.554975 0.195055 -0.585577
N1    N     N_R   0.627678 0.790710 0.116269 0.138185
O27   O     O_R   0.690061 0.847950 0.087347 -0.350056
O28   O     O_R   0.621021 0.679353 0.076492 -0.286217
N2    N     N_R   0.224696 0.667305 0.114569 0.073502
O29   O     O_R   0.273122 0.617989 0.045162 -0.302613
O30   O     O_R   0.127975 0.640151 0.131838 -0.344324

loop_
_geom_bond_atom_site_label_1
_geom_bond_atom_site_label_2
_geom_bond_distance
_ccdc_geom_bond_type
C30   C31   1.394441 A    
O17   Cr5   1.938975 S    
Cr6   O26   1.970741 S    
C30   C34   1.416094 A    
C19   C20   1.416342 A    
C29   C30   1.423319 A    
C47   O24   1.281237 A    
N1    O27   1.301220 A    
O4    Cr2   1.945475 S    
O17   C44   1.258589 A    
O8    Cr1   1.937993 S    
C9    C10   1.432320 A    
O11   Cr3   2.064075 S    
O18   Cr6   2.066135 S    
C14   H2    1.078615 S    
C29   C47   1.462415 S    
C5    O11   1.288225 A    
O12   C6    1.292637 A    
C20   C24   1.419307 A    
C13   F2    1.356890 S    
C24   C25   1.395023 A    
C1    C28   1.464388 S    
O21   C46   1.287156 A    
C11   C18   1.396783 A    
O6    C3    1.285732 A    
C7    C8    1.185812 T    
C40   C46   1.425086 S    
C6    C39   1.429850 S    
C11   C17   1.408588 A    
C34   C35   1.390958 A    
Cr3   O13   1.967207 S    
C36   C37   1.391156 A    
O14   C45   1.281740 A    
N1    O28   1.302079 A    
O22   Cr5   2.053737 S    
C32   C38   1.407254 A    
H1    C12   1.084223 S    
O1    Cr1   2.057910 S    
O15   C43   1.270284 A    
C10   C14   1.413409 A    
C17   H5    1.082863 S    
C25   C26   1.386431 A    
O10   Cr2   1.934535 S    
Cr1   O13   1.991732 S    
O1    C3    1.260738 A    
C46   O22   1.249499 A    
O14   Cr4   2.041924 S    
C44   O18   1.253846 A    
C21   C27   1.409959 A    
C25   H7    1.062579 S    
O5    Cr3   2.062309 S    
O12   Cr3   1.940524 S    
O20   Cr4   2.057094 S    
C35   C36   1.383868 A    
O15   Cr4   1.938908 S    
C43   O16   1.274587 A    
C12   C13   1.362410 A    
C42   C48   1.418294 S    
C36   H13   1.082700 S    
C33   H11   1.083322 S    
C14   C15   1.389531 A    
C26   H8    1.082182 S    
O7    Cr1   2.042600 S    
C19   C45   1.474593 S    
Cr5   O26   1.967122 S    
O6    Cr3   1.945401 S    
C34   H10   1.064551 S    
C31   C38   1.421160 A    
C15   H3    1.076352 S    
O16   Cr5   2.062846 S    
C8    C44   1.399275 S    
C26   C27   1.387187 A    
C4    C41   1.416860 S    
Cr2   O13   1.970551 S    
C9    C13   1.408305 A    
C31   C37   1.420730 A    
C20   C21   1.416140 A    
C1    O3    1.266654 A    
C22   C23   1.388945 A    
N2    O30   1.299385 A    
C29   C33   1.399073 A    
C22   C28   1.406990 A    
O24   Cr6   2.057827 S    
C5    C38   1.463824 S    
O9    Cr2   2.062031 S    
O2    Cr1   1.924302 S    
O23   C47   1.309970 A    
C24   N1    1.442600 S    
O19   C45   1.275943 A    
C23   N2    1.439073 S    
O8    C4    1.282615 A    
C21   C28   1.410490 A    
C2    O5    1.253330 A    
O21   Cr4   1.922876 S    
C12   C18   1.396555 A    
C16   H4    1.082428 S    
O20   C48   1.278329 A    
C37   H14   1.071320 S    
C15   C16   1.390975 A    
O2    C1    1.276965 A    
O19   Cr6   1.937409 S    
C41   C42   1.197394 T    
O23   Cr5   1.944420 S    
Cr4   O26   1.991655 S    
C32   C33   1.385068 A    
O4    C2    1.259990 A    
O7    C6    1.306530 A    
C27   H9    1.081424 S    
C2    C7    1.399332 S    
N2    O29   1.301936 A    
C16   C17   1.387777 A    
O25   Cr6   1.945508 S    
C39   C40   1.203044 T    
C35   H12   1.082730 S    
O3    Cr2   2.050740 S    
H6    C22   1.083030 S    
C4    O9    1.251218 A    
C9    C43   1.466043 S    
C32   F1    1.357983 S    
C10   C11   1.413437 A    
C3    C18   1.452353 S    
C19   C23   1.400692 A    
O10   C5    1.308286 A    
O25   C48   1.264118 A    
