data_mof_unit_17853.cif
_audit_creation_date              2012-12-11T15:29:34-0500
_audit_creation_method            fapswitch 2.2
_symmetry_space_group_name_H-M    P1
_symmetry_Int_Tables_number       1
_space_group_crystal_system       triclinic
_cell_length_a                    13.492036
_cell_length_b                    13.503158
_cell_length_c                    27.571127
_cell_angle_alpha                 90.524523
_cell_angle_beta                  89.940797
_cell_angle_gamma                 59.94546
_cell_volume                      4347.4210139

loop_
_atom_site_label
_atom_site_type_symbol
_atom_type_description
_atom_site_fract_x
_atom_site_fract_y
_atom_site_fract_z
_atom_type_partial_charge
C1    C     C_R   0.620305 0.101234 0.569875 0.546196
C2    C     C_1   0.630809 0.732254 0.615997 -0.011228
C3    C     C_3   0.688292 0.565458 0.767367 -0.072819
C4    C     C_3   0.678592 0.655672 0.804518 0.055204
C5    C     C_3   0.582332 0.659801 0.740875 -0.124397
C6    C     C_3   0.662388 0.684346 0.710102 0.022001
C7    C     C_3   0.572799 0.749579 0.778756 -0.107859
C8    C     C_3   0.652630 0.774634 0.747216 -0.081255
C9    C     C_1   0.687792 0.634470 0.856697 -0.020289
C10   C     C_1   0.648800 0.705387 0.657942 -0.055205
C11   C     C_3   0.091609 0.133793 0.737755 -0.079313
C12   C     C_R   0.599686 0.779331 0.568465 0.545726
C13   C     C_3   0.183788 0.057827 0.775338 -0.148817
C14   C     C_1   0.099457 0.199006 0.900619 0.008679
C15   C     C_1   0.230213 0.137454 0.617202 -0.010376
C16   C     C_3   0.061423 0.239759 0.769511 0.407597
C17   C     C_3   0.152161 0.164856 0.806495 0.056784
C18   C     C_3   0.149637 0.260071 0.742692 -0.076875
C19   C     C_3   0.181333 0.152913 0.711604 0.003243
C20   C     C_3   0.241642 0.183911 0.780119 -0.148407
C21   C     C_3   0.273979 0.076543 0.748232 -0.126599
C22   C     C_1   0.128552 0.178925 0.858703 -0.009408
C23   C     C_R   0.277771 0.121673 0.569390 0.545643
C24   C     C_1   0.202972 0.145882 0.659300 -0.051420
C25   C     C_3   0.620484 0.278812 0.739121 -0.125310
C26   C     C_3   0.551969 0.252920 0.777311 -0.151134
C27   C     C_1   0.691350 0.206634 0.901511 0.011570
C28   C     C_1   0.635345 0.133226 0.617817 -0.010426
C29   C     C_3   0.730662 0.212005 0.769700 -0.155860
C30   C     C_3   0.661954 0.186041 0.807132 0.054438
C31   C     C_3   0.760513 0.099790 0.742059 -0.077321
C32   C     C_3   0.650373 0.166797 0.712323 0.003875
C33   C     C_3   0.691229 0.075765 0.779815 0.416760
C34   C     C_R   0.621675 0.099966 0.431320 0.540276
C35   C     C_3   0.581429 0.140685 0.749597 -0.084420
C36   C     C_1   0.674038 0.196010 0.859455 -0.004048
C37   C     C_1   0.643529 0.152037 0.659978 -0.050298
C38   C     C_R   0.640455 0.724143 0.382879 0.016228
C39   C     C_R   0.706560 0.755977 0.354884 -0.131246
C40   C     C_R   0.723049 0.729184 0.306148 -0.155379
C41   C     C_R   0.677227 0.666800 0.284838 0.043442
C42   C     C_R   0.621662 0.622629 0.313869 0.020837
C43   C     C_R   0.600302 0.655512 0.362721 -0.161275
C44   C     C_R   0.786260 0.618213 0.208056 -0.118074
C45   C     C_R   0.601812 0.777494 0.430365 0.544705
C46   C     C_R   0.792342 0.603550 0.158235 -0.123550
C47   C     C_R   0.587516 0.674993 0.155595 -0.081473
C48   C     C_R   0.581126 0.692320 0.205517 -0.050888
C49   C     C_R   0.681626 0.657746 0.232045 0.072557
C50   C     C_R   0.694209 0.625296 0.132092 0.025039
C51   C     C_R   0.225302 0.137741 0.383521 0.023838
C52   C     C_R   0.247239 0.041827 0.355236 -0.126832
C53   C     C_R   0.223264 0.053435 0.306067 -0.123686
C54   C     C_R   0.174594 0.161451 0.284646 0.037098
C55   C     C_R   0.144505 0.258592 0.313671 -0.114877
C56   C     C_R   0.279063 0.120113 0.430998 0.541218
C57   C     C_R   0.170518 0.246706 0.362815 -0.126926
C58   C     C_R   0.175799 0.250173 0.205914 -0.119362
C59   C     C_R   0.148437 0.267908 0.156947 -0.125967
C60   C     C_R   0.092842 0.122641 0.158825 -0.120484
C61   C     C_R   0.118238 0.106425 0.207792 -0.115863
C62   C     C_R   0.156754 0.172344 0.232038 0.037619
C63   C     C_R   0.103078 0.206928 0.133525 0.025122
C64   C     C_R   0.638490 0.137625 0.383940 0.020528
C65   C     C_R   0.542525 0.223219 0.359813 -0.125666
C66   C     C_R   0.548118 0.240342 0.310710 -0.119028
C67   C     C_3   0.768209 0.590411 0.735814 -0.075038
C68   C     C_R   0.650886 0.175053 0.284964 0.050327
C69   C     C_R   0.749559 0.095962 0.309916 -0.109643
C70   C     C_R   0.743166 0.076525 0.359075 -0.132892
C71   C     C_R   0.717592 0.090339 0.202485 -0.156569
C72   C     C_R   0.724295 0.101174 0.152456 -0.000174
C73   C     C_R   0.590631 0.306952 0.160654 -0.006273
C74   C     C_R   0.586660 0.293381 0.210560 -0.059235
C75   C     C_R   0.653665 0.186782 0.232001 -0.000130
C76   C     C_R   0.670569 0.212139 0.131917 -0.004352
C77   C     C_R   0.050202 0.234650 0.948066 0.546727
C78   C     C_3   0.758735 0.680228 0.773805 -0.059719
C79   C     C_R   0.711960 0.561898 0.946428 0.551161
C80   C     C_R   0.722510 0.224039 0.949161 0.557709
C81   C     C_R   0.047736 0.243675 0.086358 0.540834
C82   C     C_R   0.709392 0.571808 0.084462 0.552010
C83   C     C_R   0.717059 0.231887 0.086541 0.571986
C84   C     C_1   0.697139 0.607858 0.898697 0.009344
Cr1   Cr    Cr6+3 0.417550 0.169090 0.500530 1.021667
Cr2   Cr    Cr6+3 0.669180 0.913420 0.499920 1.023365
Cr3   Cr    Cr6+3 0.413260 0.917540 0.499520 1.022877
Cr4   Cr    Cr6+3 0.909770 0.175810 0.018240 1.064410
Cr5   Cr    Cr6+3 0.913300 0.427650 0.016090 1.042410
Cr6   Cr    Cr6+3 0.657770 0.431010 0.016900 1.033530
H1    H     H_    0.830929 0.689051 0.787996 0.154997
H2    H     H_    0.303706 0.203612 0.797859 0.117682
H3    H     H_    0.133858 0.343732 0.728940 0.114442
H4    H     H_    0.466446 0.315590 0.792270 0.115575
H5    H     H_    0.591719 0.362686 0.721758 0.122095
H6    H     H_    0.520671 0.110242 0.740985 0.104876
H7    H     H_    0.846105 0.036496 0.727357 0.117891
H8    H     H_    0.791996 0.241589 0.778483 0.167019
H9    H     H_    0.738072 0.809646 0.369609 0.142606
H10   H     H_    0.848182 0.524986 0.717611 0.149967
H11   H     H_    0.864048 0.593832 0.228121 0.105132
H12   H     H_    0.875843 0.565715 0.141015 0.138601
H13   H     H_    0.766483 0.762722 0.284486 0.105685
H14   H     H_    0.498965 0.727566 0.223741 0.118698
H15   H     H_    0.510695 0.693611 0.135958 0.153071
H16   H     H_    0.551953 0.628518 0.384958 0.107761
H17   H     H_    0.290669 0.956503 0.370190 0.135463
H18   H     H_    0.208907 0.299450 0.223621 0.104378
H19   H     H_    0.157728 0.332845 0.138089 0.128475
H20   H     H_    0.637803 0.860980 0.738192 0.150334
H21   H     H_    0.248003 0.977068 0.284480 0.102895
H22   H     H_    0.102240 0.046281 0.227092 0.104666
H23   H     H_    0.057640 0.074498 0.141766 0.135513
H24   H     H_    0.103576 0.343287 0.298151 0.107343
H25   H     H_    0.152494 0.321814 0.384086 0.125223
H26   H     H_    0.460220 0.271417 0.377868 0.134695
H27   H     H_    0.761074 0.005958 0.218415 0.091250
H28   H     H_    0.469928 0.300484 0.292642 0.095791
H29   H     H_    0.531250 0.367134 0.232835 0.179791
H30   H     H_    0.492751 0.815096 0.796888 0.114820
H31   H     H_    0.830679 0.046645 0.291110 0.105449
H32   H     H_    0.818406 0.010345 0.376973 0.124524
H33   H     H_    0.510089 0.650971 0.726742 0.112456
H34   H     H_    0.702713 0.479204 0.776285 0.150188
H35   H     H_    0.198686 0.974635 0.789288 0.118321
H36   H     H_    0.028844 0.114952 0.720120 0.110790
H37   H     H_    0.362476 0.008638 0.738726 0.119061
O1    O     O_R   0.301780 0.195490 0.553940 -0.506478
O2    O     O_R   0.658840 0.818280 0.449970 -0.506338
O3    O     O_R   0.503160 0.801780 0.445740 -0.519128
O4    O     O_R   0.319320 0.022190 0.450230 -0.504525
O5    O     O_3   0.499990 0.000010 0.499990 -0.246343
O6    O     O_R   0.819250 0.149410 0.965240 -0.482029
O7    O     O_R   0.006940 0.180310 0.968270 -0.496586
O8    O     O_R   0.028420 0.332670 0.963010 -0.500014
O9    O     O_R   0.810130 0.520390 0.966030 -0.485314
O10   O     O_R   0.636050 0.541380 0.962520 -0.511214
O11   O     O_R   0.666480 0.323610 0.968170 -0.503599
O12   O     O_R   0.522450 0.158840 0.550250 -0.494117
O13   O     O_R   0.817280 0.156800 0.072180 -0.467739
O14   O     O_R   0.005110 0.187160 0.067410 -0.508441
O15   O     O_R   0.026450 0.340060 0.069950 -0.521279
O16   O     O_R   0.808300 0.527240 0.065170 -0.505024
O17   O     O_R   0.634070 0.548770 0.069460 -0.504698
O18   O     O_R   0.664650 0.330470 0.067300 -0.524474
O19   O     O_3   0.826940 0.344820 0.017080 -0.255796
O20   O     O_R   0.694460 0.003360 0.553820 -0.505116
O21   O     O_R   0.657750 0.819520 0.549120 -0.493415
O22   O     O_R   0.501990 0.803120 0.552700 -0.506833
O23   O     O_R   0.318230 0.023430 0.549370 -0.493518
O24   O     O_R   0.302950 0.194150 0.446980 -0.521122
O25   O     O_R   0.523540 0.157600 0.451100 -0.505163
O26   O     O_R   0.695630 0.002030 0.446860 -0.522385
F1    F     F_    0.951283 0.324470 0.781277 -0.673482
F2    F     F_    0.727375 0.971208 0.801396 -0.645609
C85   C     C_2   0.587067 0.541101 0.295264 0.217857
H38   H     H_    0.525295 0.528119 0.315334 0.089254
O27   O     O_2   0.630727 0.483763 0.258725 -0.484174
C86   C     C_2   0.785689 0.994175 0.123221 0.243042
H39   H     H_    0.847963 0.915227 0.140373 0.088349
O28   O     O_2   0.763293 0.991493 0.080496 -0.481691
C87   C     C_2   0.508528 0.420248 0.140013 0.252245
H40   H     H_    0.479383 0.426873 0.102936 0.122118
O29   O     O_2   0.469489 0.507453 0.164735 -0.511644

loop_
_geom_bond_atom_site_label_1
_geom_bond_atom_site_label_2
_ccdc_geom_bond_type
C44   C49   A    
C58   C62   A    
C66   C68   A    
C45   O2    A    
Cr5   O8    S    
C41   C42   A    
C72   C76   A    
C2    C12   S    
Cr2   O20   S    
C7    C8    S    
C57   H25   S    
C35   H6    S    
C3    H34   S    
C68   C75   S    
C79   O9    A    
C46   H12   S    
C11   C19   S    
C73   C87   S    
C72   C86   S    
C29   H8    S    
C63   C81   S    
C60   C63   A    
Cr3   O3    S    
C85   H38   S    
C19   C21   S    
Cr2   O26   S    
Cr4   O6    S    
C51   C56   S    
Cr6   O18   S    
Cr1   O5    S    
C79   C84   S    
Cr5   O15   S    
C48   H14   S    
C17   C20   S    
C18   C19   S    
C73   C74   A    
C14   C77   S    
Cr3   O4    S    
Cr4   O13   S    
C38   C45   S    
C59   H19   S    
C83   O18   A    
C86   H39   S    
C52   H17   S    
C16   C17   S    
C47   H15   S    
Cr3   O23   S    
C1    C28   S    
C86   O28   D    
C51   C57   A    
C64   C70   A    
C21   H37   S    
C42   C43   A    
Cr1   O12   S    
C18   C20   S    
C1    O12   A    
C13   H35   S    
C53   H21   S    
C25   C32   S    
C15   C23   S    
C45   O3    A    
Cr5   O9    S    
C8    C78   S    
C60   H23   S    
C69   C70   A    
C67   C78   S    
C4    C7    S    
C12   O22   A    
C76   C83   S    
C41   C49   S    
C83   O13   A    
Cr6   O11   S    
C44   C46   A    
C47   C50   A    
C87   O29   D    
C25   C29   S    
Cr5   O19   S    
C74   C75   A    
C71   H27   S    
C51   C52   A    
C32   C35   S    
C11   H36   S    
C38   C39   A    
C82   O17   A    
C27   C80   S    
C66   H28   S    
C39   C40   A    
C5    C7    S    
C34   O25   A    
C68   C69   A    
C6    C8    S    
C54   C62   S    
C58   C59   A    
Cr5   O16   S    
C80   O6    A    
C60   C61   A    
C43   H16   S    
Cr3   O5    S    
C42   C85   S    
Cr1   O24   S    
C4    C78   S    
C29   C30   S    
C74   H29   S    
C8    H20   S    
C20   H2    S    
C11   C16   S    
C70   H32   S    
C39   H9    S    
C47   C48   A    
C69   H31   S    
C53   C54   A    
C34   C64   S    
C13   C21   S    
C15   C24   T    
C32   C37   S    
C56   O24   A    
C67   H10   S    
C16   C18   S    
C81   O15   A    
C79   O10   A    
C23   O23   A    
C25   H5    S    
C26   H4    S    
C55   C57   A    
C16   F1    S    
C27   C36   T    
C73   C76   A    
C1    O20   A    
C77   O7    A    
C3    C4    S    
C2    C10   T    
Cr4   O14   S    
Cr6   O10   S    
C52   C53   A    
C50   C82   S    
C87   H40   S    
C34   O26   A    
C5    H33   S    
C54   C55   A    
C48   C49   A    
C31   C33   S    
C30   C33   S    
C7    H30   S    
C31   C32   S    
C3    C67   S    
C82   O16   A    
C3    C5    S    
Cr2   O21   S    
C6    C10   S    
C44   H11   S    
C33   F2    S    
Cr2   O2    S    
C26   C30   S    
C55   H24   S    
C13   C17   S    
C78   H1    S    
C46   C50   A    
C59   C63   A    
C17   C22   S    
Cr2   O5    S    
C30   C36   S    
C64   C65   A    
C14   C22   T    
C85   O27   D    
C19   C24   S    
C25   C26   S    
Cr1   O25   S    
Cr4   O7    S    
C38   C43   A    
Cr6   O19   S    
C6    C67   S    
C40   H13   S    
C71   C75   A    
C11   C13   S    
C12   O21   A    
C5    C6    S    
C28   C37   T    
C80   O11   A    
C81   O14   A    
C33   C35   S    
C58   H18   S    
C31   H7    S    
C61   C62   A    
C56   O4    A    
C26   C35   S    
C9    C84   T    
C65   H26   S    
C71   C72   A    
C20   C21   S    
C29   C31   S    
C65   C66   A    
Cr3   O22   S    
C18   H3    S    
Cr4   O19   S    
Cr1   O1    S    
C40   C41   A    
C77   O8    A    
C4    C9    S    
C61   H22   S    
Cr6   O17   S    
C23   O1    A    
