data_mof_unit_15515.cif
_audit_creation_date              2012-12-10T17:44:31-0500
_audit_creation_method            fapswitch 2.2
_symmetry_space_group_name_H-M    P1
_symmetry_Int_Tables_number       1
_space_group_crystal_system       triclinic
_cell_length_a                    9.906918
_cell_length_b                    10.701353
_cell_length_c                    15.401728
_cell_angle_alpha                 91.897348
_cell_angle_beta                  67.534133
_cell_angle_gamma                 90.883885
_cell_volume                      1508.09605495

loop_
_atom_site_label
_atom_site_type_symbol
_atom_type_description
_atom_site_fract_x
_atom_site_fract_y
_atom_site_fract_z
_atom_type_partial_charge
C1    C     C_R   0.506776 0.738551 0.489587 0.887096
C2    C     C_R   0.432774 0.567035 0.907001 -0.130362
C3    C     C_R   0.301559 0.633225 0.956129 -0.161369
C4    C     C_R   0.542711 0.564380 0.944307 0.059646
C5    C     C_R   0.506293 0.598168 0.039920 -0.025415
C6    C     C_R   0.374662 0.664891 0.088390 0.624781
C7    C     C_R   0.275790 0.684087 0.045685 -0.121151
C8    C     C_R   0.689445 0.534709 0.888052 -0.099514
C9    C     C_R   0.791708 0.518790 0.928123 -0.075177
C10   C     C_R   0.748395 0.525801 0.025593 -0.060747
C11   C     C_R   0.604011 0.563811 0.082378 0.025643
C12   C     C_R   0.408481 0.501912 0.676398 0.923320
C13   C     C_R   0.845128 0.490909 0.067475 0.589522
C14   C     C_R   0.797436 0.487198 0.164984 0.587494
C15   C     C_R   0.556676 0.552817 0.179610 -0.168223
C16   C     C_R   0.315387 0.874221 0.414244 0.623448
C17   C     C_R   0.182734 0.927530 0.423237 0.370020
C18   C     C_R   0.139000 0.039869 0.473631 -0.252400
C19   C     C_R   0.233569 0.104483 0.507042 -0.131247
C20   C     C_R   0.374148 0.056462 0.491313 0.024484
C21   C     C_R   0.403357 0.932617 0.458330 -0.115349
C22   C     C_R   0.515786 0.870598 0.474965 -0.043103
C23   C     C_R   0.494914 0.259595 0.504949 0.904313
C24   C     C_R   0.621090 0.937194 0.497078 -0.167208
C25   C     C_R   0.609818 0.064125 0.509607 -0.141382
C26   C     C_R   0.487718 0.125089 0.506984 -0.075981
C27   C     C_R   0.792439 0.668717 0.620384 -0.184038
C28   C     C_R   0.828956 0.749406 0.680753 -0.305256
C29   C     C_R   0.967447 0.746058 0.682592 0.642756
C30   C     C_R   0.070614 0.662780 0.623343 -0.236341
C31   C     C_R   0.038182 0.581181 0.560272 -0.022696
C32   C     C_R   0.894092 0.582566 0.559483 0.116843
C33   C     C_R   0.961839 0.420962 0.442932 0.329983
C34   C     C_R   0.591894 0.501657 0.323525 1.017363
C35   C     C_R   0.105036 0.421713 0.442698 0.613091
C36   C     C_R   0.354185 0.527182 0.777696 -0.261635
C37   C     C_R   0.651102 0.513926 0.221272 -0.352357
C38   C     C_R   0.199628 0.648488 0.913981 0.786083
C39   C     C_R   0.228059 0.598294 0.823915 -0.339321
C40   C     C_R   0.448420 0.502949 0.823012 0.608741
H1    H     H_    0.177824 0.737653 0.083679 0.240861
H2    H     H_    0.710346 0.891211 0.507393 0.194382
H3    H     H_    0.032961 0.078785 0.485301 0.203760
H4    H     H_    0.191024 0.188451 0.548670 0.195886
H5    H     H_    0.696032 0.114095 0.523248 0.189360
H6    H     H_    0.683556 0.676936 0.624096 0.211371
H7    H     H_    0.748571 0.814194 0.726952 0.190974
H8    H     H_    0.443082 0.566292 0.223612 0.284813
H9    H     H_    0.174164 0.663982 0.629268 0.210251
H10   H     H_    0.902704 0.494455 0.882862 0.190458
H11   H     H_    0.154315 0.618380 0.789475 0.203537
H12   H     H_    0.728303 0.527566 0.812308 0.193420
N1    N     N_R   0.856800 0.501200 0.500850 -0.166264
N2    N     N_R   0.142390 0.501280 0.500880 -0.167920
O1    O     O_R   0.385310 0.683220 0.500000 -0.608084
O2    O     O_R   0.614640 0.683250 0.500010 -0.652129
O3    O     O_R   0.319840 0.499980 0.632240 -0.654687
O4    O     O_R   0.549160 0.500000 0.632250 -0.591839
O5    O     O_R   0.385360 0.316750 0.499990 -0.604766
O6    O     O_R   0.614690 0.316780 0.500000 -0.578959
O7    O     O_R   0.450840 0.500000 0.367750 -0.540475
O8    O     O_R   0.680160 0.500020 0.367760 -0.526020
Zn1   Zn    Zn3+2 0.346880 0.499980 0.499990 1.030112
Zn2   Zn    Zn3+2 0.653120 0.500020 0.500010 1.053586
F1    F     F_    0.983266 0.453615 0.014119 -0.621798
F2    F     F_    0.361233 0.769570 0.358806 -0.595566
Cl1   Cl    Cl    0.067863 0.851004 0.375237 -0.478458
Cl2   Cl    Cl    0.921320 0.314286 0.367353 -0.404825
F3    F     F_    0.002192 0.823726 0.742357 -0.636695
F4    F     F_    0.206678 0.341868 0.384178 -0.602419
F5    F     F_    0.892479 0.451376 0.203439 -0.553181
F6    F     F_    0.076047 0.716204 0.958003 -0.626062
F7    F     F_    0.552125 0.413210 0.785559 -0.658286
F8    F     F_    0.346850 0.723523 0.172880 -0.588690

loop_
_geom_bond_atom_site_label_1
_geom_bond_atom_site_label_2
_ccdc_geom_bond_type
C39   H11   S    
C28   H7    S    
C16   C21   A    
C34   C37   S    
C24   H2    S    
C14   F5    S    
C19   C20   A    
C4    C8    A    
C13   F1    S    
C23   O5    A    
C28   C29   A    
C1    O2    A    
C5    C11   A    
C3    C7    A    
C5    C6    A    
N1    Zn2   S    
N2    Zn1   S    
C34   O8    A    
C40   F7    S    
C18   C19   A    
C23   C26   S    
O7    Zn1   S    
C15   C37   A    
O8    Zn2   S    
C11   C15   A    
C3    C38   A    
C16   C17   A    
O1    Zn1   S    
O2    Zn2   S    
C6    F8    S    
C12   C36   S    
C9    C10   A    
C8    H12   S    
C12   O4    A    
C1    C22   S    
C21   C22   A    
C35   N2    A    
O4    Zn2   S    
C15   H8    S    
O3    Zn1   S    
C29   F3    S    
C33   N1    A    
C23   O6    A    
C38   F6    S    
C17   Cl1   S    
C36   C40   A    
C38   C39   A    
C24   C25   A    
C35   F4    S    
C8    C9    A    
C25   C26   A    
C34   O7    A    
C2    C4    A    
C29   C30   A    
C31   C32   A    
C17   C18   A    
C12   O3    A    
C27   H6    S    
C30   H9    S    
C22   C24   A    
C16   F2    S    
C25   H5    S    
C32   N1    A    
C19   H4    S    
C27   C32   A    
C36   C39   A    
C9    H10   S    
C4    C5    A    
C10   C13   A    
C6    C7    A    
O5    Zn1   S    
O6    Zn2   S    
C2    C3    A    
C1    O1    A    
C18   H3    S    
C14   C37   A    
C30   C31   A    
C20   C26   A    
C33   C35   A    
C7    H1    S    
C31   N2    A    
C10   C11   A    
C2    C40   A    
C20   C21   A    
C27   C28   A    
C13   C14   A    
C33   Cl2   S    
