data_mof_unit_43486.cif
_audit_creation_date              2013-03-05T15:55:27-0500
_audit_creation_method            fapswitch 2.2
_symmetry_space_group_name_H-M    P1
_symmetry_Int_Tables_number       1
_space_group_crystal_system       triclinic
_cell_length_a                    10.717252
_cell_length_b                    12.313227
_cell_length_c                    13.210339
_cell_angle_alpha                 116.548273
_cell_angle_beta                  77.45736
_cell_angle_gamma                 101.298041
_cell_volume                      1512.47037718

loop_
_atom_site_label
_atom_site_type_symbol
_atom_site_description
_atom_site_fract_x
_atom_site_fract_y
_atom_site_fract_z
_atom_type_partial_charge
O1    O     O_R   0.537340 0.972510 0.318130 -0.559151
O2    O     O_R   0.487200 0.806530 0.359650 -0.612539
C1    C     C_R   0.513404 0.854643 0.286529 0.813891
O3    O     O_R   0.707380 0.082980 0.479220 -0.584594
O4    O     O_R   0.657240 0.917000 0.520740 -0.605646
C2    C     C_R   0.739741 0.999630 0.500120 0.772959
Cu1   Cu    Cu3+1 0.529690 0.098270 0.475420 0.985105
Cu2   Cu    Cu3+1 0.470310 0.901730 0.524580 0.920162
O5    O     O_R   0.512800 0.193470 0.640350 -0.588147
O6    O     O_R   0.462660 0.027490 0.681870 -0.586613
O7    O     O_R   0.342760 0.083000 0.479260 -0.540860
O8    O     O_R   0.292620 0.917020 0.520780 -0.607168
C3    C     C_R   0.481791 0.144990 0.713292 0.800284
C4    C     C_R   0.260111 0.999827 0.499435 0.765861
C5    C     C_3   0.952395 0.973093 0.378167 -0.430938
H1    H     H_    0.938770 0.043503 0.351673 0.204724
H2    H     H_    0.912702 0.883471 0.315166 0.125563
C6    C     C_3   0.096949 0.970745 0.376187 0.227781
H3    H     H_    0.120612 0.875927 0.318635 0.075212
H4    H     H_    0.923609 0.198010 0.561657 0.213219
H5    H     H_    0.134479 0.201339 0.572736 0.214701
C7    C     C_3   0.932863 0.124514 0.585881 -0.323723
C8    C     C_3   0.896817 0.898074 0.533454 -0.374189
C9    C     C_3   0.877527 0.998656 0.499549 0.075521
H6    H     H_    0.843200 0.913933 0.620228 0.191289
H7    H     H_    0.858747 0.806494 0.472254 0.179201
C10   C     C_3   0.121999 0.999416 0.498601 0.036801
C11   C     C_3   0.075842 0.123691 0.588096 -0.362536
C12   C     C_3   0.039890 0.898462 0.533062 -0.436954
H8    H     H_    0.069633 0.806819 0.472060 0.180071
H9    H     H_    0.054741 0.914277 0.619700 0.191089
H10   H     H_    0.877660 0.146138 0.673081 0.173622
H11   H     H_    0.088174 0.138604 0.675091 0.151606
C13   C     C_R   0.357863 0.271349 0.027685 -0.173976
H12   H     H_    0.354949 0.091392 0.891570 0.160526
H13   H     H_    0.273320 0.453740 0.220334 0.155139
H14   H     H_    0.293747 0.240334 0.087570 0.167646
C14   C     C_R   0.463800 0.227133 0.834855 -0.075157
C15   C     C_R   0.623231 0.811902 0.090934 -0.302661
C16   C     C_R   0.681266 0.728839 0.987107 0.125407
C17   C     C_R   0.648255 0.602705 0.954362 0.336121
C18   C     C_R   0.540963 0.560182 0.018607 -0.090183
C19   C     C_R   0.484543 0.646146 0.125166 0.042109
C20   C     C_R   0.488326 0.435244 0.982189 0.106549
C21   C     C_R   0.400344 0.395843 0.059540 0.155471
C22   C     C_R   0.347458 0.481721 0.163661 -0.221615
C23   C     C_R   0.381642 0.605038 0.191641 -0.152941
C24   C     C_R   0.510336 0.350395 0.868175 -0.170611
C25   C     C_R   0.392137 0.186667 0.916075 -0.192232
C26   C     C_R   0.533772 0.771123 0.164298 -0.105320
H15   H     H_    0.556376 0.380585 0.802657 0.189756
H16   H     H_    0.658736 0.908005 0.119048 0.173829
H17   H     H_    0.325990 0.667497 0.266442 0.163029
C27   C     C_R   0.705882 0.347383 0.329162 -0.276341
H18   H     H_    0.729621 0.169999 0.310362 0.116732
H19   H     H_    0.746945 0.547839 0.295489 0.157162
H20   H     H_    0.786044 0.346988 0.262936 0.143383
N1    N     N_R   0.574690 0.246280 0.438200 -0.179989
C28   C     C_R   0.324882 0.758863 0.644651 0.072727
C29   C     C_R   0.286492 0.661681 0.675524 -0.230235
C30   C     C_R   0.352103 0.558345 0.620789 -0.166552
C31   C     C_R   0.457704 0.550942 0.533915 -0.001789
C32   C     C_R   0.493433 0.652993 0.505122 0.291024
C33   C     C_R   0.529192 0.446795 0.474775 -0.025372
C34   C     C_R   0.633947 0.447097 0.388331 0.174717
C35   C     C_R   0.666822 0.546981 0.361453 -0.271761
C36   C     C_R   0.598504 0.647515 0.418652 -0.187363
C37   C     C_R   0.502121 0.341616 0.497299 0.088956
C38   C     C_R   0.674506 0.247303 0.355659 0.099623
N2    N     N_R   0.426100 0.754320 0.561190 -0.208113
H21   H     H_    0.424233 0.333333 0.561318 0.113031
H22   H     H_    0.273395 0.838664 0.687590 0.125922
H23   H     H_    0.318169 0.485891 0.648108 0.140168
H24   H     H_    0.205554 0.666450 0.742114 0.167686
H25   H     H_    0.632271 0.719208 0.392004 0.203656
N3    N     N_R   0.735660 0.521424 0.867666 0.110207
O9    O     O_R   0.783590 0.446158 0.889413 -0.380109
O10   O     O_R   0.774385 0.527914 0.769872 -0.348239
N4    N     N_3   0.783992 0.772566 0.920235 -0.518702
H26   H     H_    0.748474 0.831997 0.899225 0.219075
H27   H     H_    0.855951 0.822818 0.971016 0.215456
N5    N     N_R   0.177789 0.053121 0.328751 0.132864
O11   O     O_R   0.160558 0.167872 0.371179 -0.385032
O12   O     O_R   0.263832 0.009743 0.239013 -0.369288

loop_
_geom_bond_atom_site_label_1
_geom_bond_atom_site_label_2
_geom_bond_distance
_ccdc_geom_bond_type
C5    C6    1.549486 S    
C10   C12   1.558878 S    
C13   H14   1.083968 S    
C17   C18   1.433217 A    
Cu1   Cu2   2.702827 S    
C14   C25   1.399784 A    
C21   C22   1.388313 A    
Cu1   O7    1.966782 S    
C31   C32   1.430298 A    
C7    H10   1.113299 S    
C33   C37   1.417647 A    
N3    O10   1.301550 A    
O4    C2    1.296844 A    
O7    C4    1.300185 A    
C5    H1    1.112892 S    
C5    H2    1.113671 S    
C6    H3    1.115449 S    
C8    H7    1.113430 S    
O5    C3    1.301021 A    
C31   C33   1.439200 A    
C24   H15   1.077505 S    
H12   C25   1.083172 S    
C8    C9    1.553587 S    
H13   C22   1.084198 S    
C4    C10   1.481615 S    
Cu1   N1    2.037015 S    
C14   C24   1.395579 A    
C28   H22   1.081680 S    
C23   H17   1.080772 S    
C35   C36   1.384968 A    
C28   C29   1.392116 A    
C7    C11   1.541050 S    
C18   C20   1.425682 A    
O3    Cu1   1.963406 S    
C1    C26   1.470724 S    
C32   C36   1.406998 A    
N3    O9    1.301504 A    
O3    C2    1.297760 A    
C15   C16   1.392442 A    
C27   C34   1.401467 A    
C30   H23   1.078009 S    
C29   C30   1.394129 A    
O1    C1    1.305933 A    
C12   H8    1.113935 S    
C32   N2    1.385844 A    
Cu2   O8    1.963404 S    
C2    C9    1.477435 S    
C16   N4    1.432785 S    
N1    C38   1.354198 A    
C13   C21   1.402621 A    
C3    C14   1.459123 S    
H18   C38   1.081955 S    
N1    C37   1.366451 A    
C16   C17   1.405380 A    
H5    C11   1.110332 S    
H4    C7    1.113126 S    
C11   H11   1.113438 S    
C34   C35   1.388914 A    
N5    O12   1.301207 A    
C7    C9    1.551705 S    
C36   H25   1.063699 S    
C18   C19   1.420125 A    
C8    C12   1.531305 S    
C20   C21   1.419175 A    
N4    H27   1.046099 S    
Cu1   O5    1.944931 S    
C22   C23   1.384057 A    
C5    C9    1.550176 S    
C13   C25   1.391621 A    
O1    Cu1   1.954900 S    
O2    Cu2   1.944932 S    
C6    C10   1.566171 S    
O8    C4    1.295908 A    
O6    C3    1.300573 A    
O4    Cu2   1.966784 S    
C19   C26   1.415249 A    
Cu2   N2    2.025129 S    
C33   C34   1.417683 A    
O2    C1    1.300548 A    
C12   H9    1.113972 S    
C17   N3    1.437901 S    
C27   C38   1.387905 A    
C37   H21   1.076829 S    
H19   C35   1.084663 S    
C29   H24   1.082630 S    
C6    N5    1.469756 S    
C15   H16   1.084029 S    
C8    H6    1.113610 S    
C30   C31   1.410319 A    
C28   N2    1.358187 A    
N4    H26   1.045949 S    
C15   C26   1.397651 A    
Cu2   O6    1.954900 S    
N5    O11   1.301564 A    
C10   C11   1.552241 S    
C19   C23   1.414768 A    
C20   C24   1.396894 A    
C27   H20   1.083920 S    
