data_mof_unit_25038.cif
_audit_creation_date              2012-12-10T20:21:37-0500
_audit_creation_method            fapswitch 2.2
_symmetry_space_group_name_H-M    P1
_symmetry_Int_Tables_number       1
_space_group_crystal_system       triclinic
_cell_length_a                    19.240728
_cell_length_b                    18.552084
_cell_length_c                    8.923749
_cell_angle_alpha                 90.000097
_cell_angle_beta                  91.818894
_cell_angle_gamma                 90.00012
_cell_volume                      3183.77723566

loop_
_atom_site_label
_atom_site_type_symbol
_atom_type_description
_atom_site_fract_x
_atom_site_fract_y
_atom_site_fract_z
_atom_type_partial_charge
C1    C     C_R   0.366023 0.499867 0.500112 0.933168
C2    C     C_R   0.633977 0.499867 0.499889 0.933171
C3    C     C_R   0.543657 0.726589 0.596945 0.244538
C4    C     C_R   0.450206 0.272625 0.417200 0.257226
C5    C     C_R   0.456342 0.726587 0.403055 0.244538
C6    C     C_R   0.549794 0.272624 0.582799 0.257226
C7    C     C_R   0.547238 0.803127 0.592425 0.022367
C8    C     C_R   0.451983 0.196113 0.410301 0.080528
C9    C     C_R   0.452762 0.803125 0.407569 0.022374
C10   C     C_R   0.548017 0.196113 0.589696 0.080528
C11   C     C_R   0.500000 0.841990 0.499996 -0.066648
C12   C     C_R   0.500000 0.157276 0.499998 -0.118869
C13   C     C_R   0.459159 0.961678 0.600196 -0.111410
C14   C     C_R   0.540971 0.037562 0.400043 -0.109788
C15   C     C_R   0.540841 0.961679 0.399794 -0.111409
C16   C     C_R   0.459029 0.037562 0.599949 -0.109787
C17   C     C_R   0.500000 0.076358 0.499997 0.182296
C18   C     C_R   0.500000 0.922887 0.499995 0.186851
C19   C     C_R   0.499547 0.500012 0.218520 0.972078
C20   C     C_R   0.500453 0.500013 0.781480 0.972083
C21   C     C_1   0.499816 0.500045 0.065314 -0.139529
C22   C     C_1   0.500185 0.500045 0.934685 -0.139520
C23   C     C_R   0.741153 0.473067 0.367323 0.110208
C24   C     C_R   0.251499 0.521622 0.378413 0.105740
C25   C     C_R   0.258852 0.473067 0.632695 0.110212
C26   C     C_R   0.748497 0.521622 0.621605 0.105743
C27   C     C_R   0.813156 0.473981 0.362638 -0.158365
C28   C     C_R   0.179668 0.519665 0.382575 -0.176802
C29   C     C_R   0.186849 0.473981 0.637392 -0.158358
C30   C     C_R   0.820328 0.519665 0.617455 -0.176801
C31   C     C_R   0.852459 0.496910 0.487761 0.095590
C32   C     C_R   0.147541 0.496910 0.512276 0.095587
C33   C     C_R   0.708708 0.499088 0.495621 -0.146966
C34   C     C_R   0.291292 0.499087 0.504391 -0.146965
C35   C     C_R   0.963701 0.563205 0.493046 0.145885
C36   C     C_R   0.036330 0.430903 0.507922 0.136997
C37   C     C_R   0.036300 0.563205 0.507003 0.145885
C38   C     C_R   0.963670 0.430903 0.492133 0.136997
C39   C     C_R   0.072119 0.496996 0.514714 -0.089116
C40   C     C_R   0.927881 0.496996 0.485335 -0.089115
H1    H     H_    0.838421 0.456414 0.262332 0.169720
H2    H     H_    0.148670 0.535778 0.284747 0.170709
H3    H     H_    0.161587 0.456415 0.737702 0.169723
H4    H     H_    0.851323 0.535779 0.715289 0.170710
H5    H     H_    0.427275 0.933092 0.678466 0.159482
H6    H     H_    0.572944 0.066146 0.321940 0.161783
H7    H     H_    0.572725 0.933093 0.321524 0.159483
H8    H     H_    0.427056 0.066146 0.678053 0.161783
N1    N     N_R   0.500000 0.689440 0.500000 -0.131878
N2    N     N_R   0.500000 0.310560 0.500000 -0.161539
O1    O     O_R   0.398180 0.560840 0.499960 -0.589829
O2    O     O_R   0.601820 0.439160 0.500040 -0.617443
O3    O     O_R   0.601820 0.560840 0.500040 -0.589828
O4    O     O_R   0.398180 0.439160 0.499960 -0.617443
O5    O     O_R   0.500000 0.560800 0.285330 -0.600717
O6    O     O_R   0.500000 0.439200 0.714670 -0.624210
O7    O     O_R   0.500000 0.560800 0.714670 -0.600719
O8    O     O_R   0.500000 0.439200 0.285330 -0.624210
Zn1   Zn    Zn3+2 0.500000 0.581210 0.500000 0.998974
Zn2   Zn    Zn3+2 0.500000 0.418790 0.500000 0.979388
I1    I     I_    0.685062 0.429616 0.179767 -0.340999
I2    I     I_    0.295623 0.553503 0.174864 -0.398236
I3    I     I_    0.314948 0.429616 0.820242 -0.341002
I4    I     I_    0.704365 0.553505 0.825146 -0.398223
N3    N     N_2   0.927045 0.630099 0.484137 -0.288818
H9    H     H_    0.881344 0.630722 0.420569 0.237426
C41   C     C_3   0.925411 0.672519 0.620379 -0.693418
H10   H     H_    0.871770 0.673494 0.662866 0.233044
H11   H     H_    0.941442 0.728590 0.595499 0.252599
H12   H     H_    0.960881 0.650589 0.710068 0.238729
N4    N     N_2   0.074128 0.364821 0.507754 -0.290199
H13   H     H_    0.060673 0.329979 0.421693 0.243950
C42   C     C_3   0.084367 0.329794 0.651927 -0.768785
H14   H     H_    0.140189 0.315983 0.668702 0.265264
H15   H     H_    0.053532 0.279222 0.655088 0.231745
H16   H     H_    0.068640 0.364958 0.745988 0.235274
N5    N     N_2   0.072957 0.630099 0.515911 -0.288818
H17   H     H_    0.118658 0.630722 0.579477 0.237426
C43   C     C_3   0.074590 0.672519 0.379669 -0.693416
H18   H     H_    0.128230 0.673495 0.337181 0.233044
H19   H     H_    0.058558 0.728591 0.404551 0.252599
H20   H     H_    0.039120 0.650589 0.289981 0.238728
N6    N     N_2   0.925872 0.364821 0.492304 -0.290198
H21   H     H_    0.939326 0.329980 0.578369 0.243949
C44   C     C_3   0.915633 0.329791 0.348134 -0.768783
H22   H     H_    0.859811 0.315982 0.331357 0.265263
H23   H     H_    0.946466 0.279218 0.344979 0.231745
H24   H     H_    0.931363 0.364953 0.254070 0.235273
N7    N     N_2   0.584115 0.687701 0.704981 -0.238091
H25   H     H_    0.636451 0.699391 0.703403 0.256080
C45   C     C_3   0.557097 0.690389 0.854672 -0.689270
H26   H     H_    0.583047 0.648875 0.926132 0.255372
H27   H     H_    0.500244 0.679836 0.851649 0.243006
H28   H     H_    0.566646 0.743807 0.907007 0.241813
N8    N     N_2   0.396612 0.309245 0.334071 -0.277077
H29   H     H_    0.407664 0.357686 0.285209 0.279123
C46   C     C_3   0.325809 0.300387 0.382681 -0.640200
H30   H     H_    0.303966 0.352832 0.416971 0.241582
H31   H     H_    0.322769 0.262429 0.478725 0.239181
H32   H     H_    0.292906 0.279625 0.287888 0.254549
N9    N     N_2   0.415881 0.687697 0.295027 -0.238093
H33   H     H_    0.363544 0.699386 0.296612 0.256077
C47   C     C_3   0.442895 0.690380 0.145332 -0.689244
H34   H     H_    0.416960 0.648848 0.073895 0.255372
H35   H     H_    0.499751 0.679851 0.148353 0.242990
H36   H     H_    0.433324 0.743789 0.092973 0.241815
N10   N     N_2   0.603388 0.309245 0.665929 -0.277077
H37   H     H_    0.592336 0.357686 0.714791 0.279123
C48   C     C_3   0.674191 0.300387 0.617319 -0.640200
H38   H     H_    0.696034 0.352832 0.583032 0.241582
H39   H     H_    0.677231 0.262430 0.521274 0.239181
H40   H     H_    0.707093 0.279625 0.712112 0.254549
I5    I     I_    0.623942 0.860463 0.723978 -0.351518
I6    I     I_    0.384203 0.138781 0.257364 -0.308289
I7    I     I_    0.376059 0.860459 0.276013 -0.351522
I8    I     I_    0.615797 0.138780 0.742631 -0.308288

loop_
_geom_bond_atom_site_label_1
_geom_bond_atom_site_label_2
_ccdc_geom_bond_type
C15   C18   A    
C13   H5    S    
C11   C18   S    
N9    H33   S    
O5    Zn1   S    
C38   N6    S    
C42   H15   S    
C42   H14   S    
N8    H29   S    
C15   H7    S    
C4    C8    A    
C5    N1    A    
C16   H8    S    
C46   H30   S    
C3    N1    A    
C14   H6    S    
O4    Zn2   S    
N5    H17   S    
C7    C11   A    
C13   C18   A    
C35   C37   A    
C29   C32   A    
C3    C7    A    
C48   H39   S    
C30   C31   A    
O7    Zn1   S    
C35   N3    S    
O8    Zn2   S    
C31   C40   S    
C25   I3    S    
C32   C39   S    
C26   I4    S    
O2    Zn2   S    
C16   C17   A    
N3    C41   S    
C12   C17   S    
N10   H37   S    
C23   C27   A    
N7    C45   S    
C36   N4    S    
C8    C12   A    
C25   C34   A    
N5    C43   S    
N9    C47   S    
C21   C22   T    
C29   H3    S    
C25   C29   A    
N10   C48   S    
C14   C17   A    
C30   H4    S    
C10   C12   A    
C46   H31   S    
C1    C34   S    
C44   H23   S    
C19   O8    A    
O3    Zn1   S    
C5    N9    S    
C27   C31   A    
C41   H10   S    
C9    I7    S    
C28   C32   A    
C48   H40   S    
C45   H26   S    
C43   H19   S    
C23   C33   A    
C44   H22   S    
C37   N5    S    
C24   C34   A    
O6    Zn2   S    
C4    N2    A    
C41   H11   S    
C1    O4    A    
C5    C9    A    
C45   H27   S    
C4    N8    S    
C9    C11   A    
C27   H1    S    
C26   C33   A    
N6    H21   S    
C6    N10   S    
C47   H35   S    
C6    N2    A    
C1    O1    A    
C2    O2    A    
C2    C33   S    
N6    C44   S    
C20   C22   S    
C26   C30   A    
C42   H16   S    
O1    Zn1   S    
C46   H32   S    
C10   I8    S    
N4    C42   S    
C44   H24   S    
C19   O5    A    
C24   I2    S    
C19   C21   S    
C36   C39   A    
C24   C28   A    
C2    O3    A    
C6    C10   A    
C43   H20   S    
N8    C46   S    
C8    I6    S    
N1    Zn1   S    
C3    N7    S    
C41   H12   S    
N2    Zn2   S    
C7    I5    S    
C36   C38   A    
C35   C40   A    
N7    H25   S    
N4    H13   S    
C37   C39   A    
C48   H38   S    
C45   H28   S    
C38   C40   A    
C28   H2    S    
C47   H36   S    
C20   O6    A    
C43   H18   S    
C23   I1    S    
N3    H9    S    
C13   C16   A    
C47   H34   S    
C14   C15   A    
C20   O7    A    
