data_mof_unit_19046.cif
_audit_creation_date              2013-03-05T15:40:16-0500
_audit_creation_method            fapswitch 2.2
_symmetry_space_group_name_H-M    P1
_symmetry_Int_Tables_number       1
_space_group_crystal_system       triclinic
_cell_length_a                    10.76635
_cell_length_b                    8.70916
_cell_length_c                    7.481867
_cell_angle_alpha                 103.120371
_cell_angle_beta                  94.431033
_cell_angle_gamma                 92.917821
_cell_volume                      679.493726

loop_
_atom_site_label
_atom_site_type_symbol
_atom_site_description
_atom_site_fract_x
_atom_site_fract_y
_atom_site_fract_z
_atom_type_partial_charge
O1    O     O_R   0.509050 0.286130 0.619770 -0.561732
O2    O     O_R   0.485540 0.256780 0.308360 -0.534323
C1    C     C_R   0.499549 0.200145 0.453644 0.912458
O3    O     O_R   0.331410 0.514680 0.655740 -0.622484
O4    O     O_R   0.307900 0.485330 0.344330 -0.593929
C2    C     C_R   0.263365 0.507099 0.503003 0.765403
Cu1   Cu    Cu3+1 0.513920 0.517380 0.684380 1.089281
Cu2   Cu    Cu3+1 0.486080 0.482620 0.315620 1.088102
O5    O     O_R   0.514460 0.743220 0.691640 -0.556990
O6    O     O_R   0.490950 0.713870 0.380230 -0.579531
O7    O     O_R   0.692100 0.514670 0.655670 -0.546120
O8    O     O_R   0.668590 0.485320 0.344260 -0.513634
C3    C     C_R   0.509225 0.800121 0.546738 0.729033
C4    C     C_R   0.737415 0.505396 0.499091 0.840434
H1    H     H_    0.097694 0.318975 0.272928 0.191246
C5    C     C_R   0.151772 0.755760 0.764295 -0.240547
H2    H     H_    0.252329 0.765210 0.767516 0.181393
C6    C     C_R   0.097451 0.868915 0.892542 0.512000
C7    C     C_R   0.967405 0.871490 0.882271 -0.141422
H3    H     H_    0.923490 0.962730 0.973812 0.226276
C8    C     C_R   0.892860 0.758689 0.750919 -0.136211
H4    H     H_    0.793553 0.772063 0.744476 0.192189
C9    C     C_R   0.946143 0.635566 0.629501 0.033693
C10   C     C_R   0.077532 0.635276 0.635219 0.016907
C11   C     C_R   0.130366 0.517453 0.506725 -0.109858
C12   C     C_R   0.055575 0.407351 0.372080 -0.267482
C13   C     C_R   0.927174 0.403500 0.368024 0.340660
C14   C     C_R   0.871843 0.515621 0.498513 -0.159900
C15   C     C_2   0.497364 0.032300 0.430819 -0.379391
H5    H     H_    0.457187 0.960466 0.298572 0.191032
C16   C     C_2   0.531350 0.967644 0.571972 0.137057
N1    N     N_2   0.465100 0.456430 0.038520 -0.172857
H6    H     H_    0.391202 0.393476 0.953237 0.208873
N2    N     N_2   0.534900 0.543570 0.961480 0.025000
N3    N     N_R   0.643598 0.616973 0.062595 0.281506
O9    O     O_R   0.649296 0.768942 0.128627 -0.328493
O10   O     O_R   0.747757 0.549784 0.034629 -0.293611
O11   O     O_3   0.173540 0.985456 0.014684 -0.568472
C17   C     C_3   0.159214 0.971813 0.196499 -0.293608
H7    H     H_    0.177656 0.851107 0.214346 0.166149
H8    H     H_    0.065113 0.003441 0.238054 0.182191
H9    H     H_    0.228431 0.056654 0.291513 0.168688
N4    N     N_R   0.854621 0.281968 0.233138 0.141956
O12   O     O_R   0.880944 0.252600 0.062478 -0.295044
O13   O     O_R   0.774878 0.186665 0.284080 -0.320826
N5    N     N_R   0.599105 0.056568 0.740495 0.149071
O14   O     O_R   0.564122 0.043823 0.899436 -0.279193
O15   O     O_R   0.704714 0.133996 0.734350 -0.274941

loop_
_geom_bond_atom_site_label_1
_geom_bond_atom_site_label_2
_geom_bond_distance
_ccdc_geom_bond_type
O4    Cu2   1.947494 S    
N4    O12   1.300435 A    
C15   H5    1.087563 S    
C7    H3    1.079479 S    
Cu2   O8    1.958447 S    
C4    C14   1.445907 S    
N1    H6    1.029109 S    
O2    C1    1.293538 A    
C6    O11   1.383826 S    
Cu1   Cu2   2.697670 S    
C5    C10   1.416988 A    
C5    C6    1.396419 A    
O1    Cu1   1.958555 S    
C9    C14   1.421484 A    
C10   C11   1.413088 A    
Cu1   O7    1.947495 S    
N4    O13   1.301123 A    
C12   C13   1.378923 A    
O11   C17   1.411488 S    
O3    Cu1   1.958446 S    
O3    C2    1.295533 A    
C7    C8    1.390896 A    
O8    C4    1.297617 A    
C6    C7    1.397882 A    
C17   H9    1.109177 S    
Cu1   O5    1.954960 S    
C8    C9    1.416000 A    
O4    C2    1.292380 A    
O7    C4    1.290866 A    
N5    O15   1.301442 A    
C2    C11   1.441344 S    
C9    C10   1.412071 A    
Cu2   N1    2.027071 S    
C13   N4    1.434579 S    
C13   C14   1.406356 A    
C16   N5    1.441786 S    
Cu1   N2    2.027071 S    
C17   H8    1.112277 S    
C15   C16   1.340722 D    
N2    N3    1.384935 S    
C17   H7    1.115017 S    
C1    C15   1.431467 S    
O5    C3    1.288959 A    
N5    O14   1.301229 A    
H1    C12   1.084739 S    
N3    O10   1.300475 A    
C11   C12   1.392911 A    
C8    H4    1.079948 S    
C3    C16   1.433057 S    
Cu2   O6    1.958553 S    
O2    Cu2   1.954962 S    
N3    O9    1.299898 A    
C5    H2    1.079568 S    
O1    C1    1.290783 A    
O6    C3    1.295066 A    
N1    N2    1.296302 D    
