data_mof_unit_22835.cif
_audit_creation_date              2012-10-26T18:50:25-0400
_audit_creation_method            fapswitch 2.2
_symmetry_space_group_name_H-M    P1
_symmetry_Int_Tables_number       1
_space_group_crystal_system       triclinic
_cell_length_a                    9.581493
_cell_length_b                    10.832195
_cell_length_c                    15.473202
_cell_angle_alpha                 87.725423
_cell_angle_beta                  74.290533
_cell_angle_gamma                 89.835995
_cell_volume                      1544.68533021

loop_
_atom_site_label
_atom_site_type_symbol
_atom_type_description
_atom_site_fract_x
_atom_site_fract_y
_atom_site_fract_z
_atom_type_partial_charge
C1    C     C_R   0.003510 0.262409 0.494192 0.549640
C2    C     C_R   0.233309 0.575724 0.045284 0.047201
C3    C     C_R   0.331280 0.533369 0.093877 0.033203
C4    C     C_R   0.918171 0.499945 0.672134 0.557709
C5    C     C_R   0.085918 0.590745 0.089242 -0.144890
C6    C     C_R   0.033772 0.562764 0.181000 -0.146377
C7    C     C_R   0.274693 0.501059 0.185536 -0.135747
C8    C     C_R   0.278041 0.112111 0.460638 -0.103997
C9    C     C_R   0.395479 0.051468 0.479458 -0.148054
C10   C     C_R   0.372959 0.941922 0.531282 -0.123252
C11   C     C_R   0.236075 0.885322 0.555555 0.020512
C12   C     C_R   0.677282 0.521507 0.908596 0.033019
C13   C     C_R   0.122012 0.936519 0.522745 0.011842
C14   C     C_R   0.136636 0.060521 0.490413 0.013583
C15   C     C_R   0.008792 0.127377 0.490117 -0.006915
C16   C     C_R   0.996905 0.736802 0.508454 0.543285
C17   C     C_R   0.878612 0.063294 0.499012 -0.160132
C18   C     C_R   0.874146 0.935910 0.508479 -0.163958
C19   C     C_R   0.995555 0.870741 0.518609 -0.008738
C20   C     C_R   0.696507 0.663716 0.381009 -0.102692
C21   C     C_R   0.649762 0.745053 0.323368 -0.182718
C22   C     C_R   0.505835 0.746405 0.323807 -0.167647
C23   C     C_R   0.777736 0.491709 0.958627 0.049258
C24   C     C_R   0.407911 0.666163 0.381670 -0.086087
C25   C     C_R   0.450580 0.581502 0.441868 0.153814
C26   C     C_R   0.600341 0.580916 0.441684 0.151769
C27   C     C_R   0.549956 0.422700 0.555323 -0.008868
C28   C     C_R   0.081916 0.502776 0.327888 0.531559
C29   C     C_R   0.401987 0.422664 0.555249 -0.005642
C30   C     C_R   0.873016 0.500783 0.770684 0.005226
C31   C     C_R   0.128496 0.518709 0.229649 -0.002715
C32   C     C_R   0.923898 0.470709 0.914692 -0.141539
C33   C     C_R   0.971586 0.476363 0.821292 -0.121972
C34   C     C_R   0.529362 0.543647 0.954274 0.031922
C35   C     C_R   0.727589 0.523415 0.814348 -0.135088
C36   C     C_1   0.210041 0.790489 0.626587 0.223926
C37   C     C_R   0.481710 0.523588 0.049247 0.032893
C38   C     C_R   0.586360 0.497016 0.096624 -0.138588
C39   C     C_R   0.731354 0.481948 0.051947 -0.138385
C40   C     C_R   0.428009 0.586706 0.908462 -0.138124
C41   C     C_R   0.283299 0.603378 0.953491 -0.137807
Cu1   Cu    Cu3+1 0.140660 0.499990 0.500010 0.932678
Cu2   Cu    Cu3+1 0.859340 0.500010 0.499990 0.918826
H1    H     H_    0.807370 0.460413 0.090921 0.111736
H2    H     H_    0.726186 0.807307 0.277845 0.122356
H3    H     H_    0.342011 0.460776 0.224505 0.120899
H4    H     H_    0.469513 0.809904 0.278717 0.127911
H5    H     H_    0.300706 0.675087 0.375657 0.185973
H6    H     H_    0.326956 0.359256 0.600458 0.118677
H7    H     H_    0.920514 0.578179 0.214030 0.122713
H8    H     H_    0.209629 0.637208 0.915844 0.125194
H9    H     H_    0.001000 0.447791 0.952592 0.113111
H10   H     H_    0.084519 0.458443 0.788800 0.138447
H11   H     H_    0.654608 0.538489 0.773077 0.123390
H12   H     H_    0.011365 0.626034 0.052801 0.112802
H13   H     H_    0.560724 0.490305 0.168868 0.109718
H14   H     H_    0.457560 0.612288 0.837855 0.114207
H15   H     H_    0.780127 0.111355 0.497053 0.133317
H16   H     H_    0.300533 0.197359 0.420572 0.147375
H17   H     H_    0.502637 0.092923 0.457933 0.111309
H18   H     H_    0.461898 0.902082 0.553492 0.113007
H19   H     H_    0.775083 0.888529 0.507676 0.138453
H20   H     H_    0.585604 0.359296 0.600638 0.117573
H21   H     H_    0.809252 0.669634 0.374696 0.184452
N1    N     N_R   0.648320 0.501210 0.499140 -0.244133
N2    N     N_R   0.352470 0.501290 0.499110 -0.242902
N3    N     N_1   0.190147 0.715476 0.684050 -0.306281
O1    O     O_R   0.118810 0.319640 0.500010 -0.512015
O2    O     O_R   0.881240 0.319660 0.500000 -0.502507
O3    O     O_R   0.055570 0.499980 0.629840 -0.478810
O4    O     O_R   0.818000 0.500010 0.629830 -0.507888
O5    O     O_R   0.118760 0.680340 0.500000 -0.515027
O6    O     O_R   0.881190 0.680360 0.499990 -0.525521
O7    O     O_R   0.182000 0.499990 0.370170 -0.531177
O8    O     O_R   0.944430 0.500020 0.370160 -0.518289

loop_
_geom_bond_atom_site_label_1
_geom_bond_atom_site_label_2
_ccdc_geom_bond_type
Cu2   O6    S    
C27   C29   A    
C34   C37   A    
C16   O5    A    
C28   O7    A    
C4    O3    A    
C36   N3    T    
C29   H6    S    
C12   C23   A    
C30   C35   A    
C34   C40   A    
C11   C36   S    
C3    C7    A    
C8    H16   S    
C5    C6    A    
C2    C41   A    
Cu1   O3    S    
C1    O1    A    
C18   C19   A    
C32   H9    S    
C8    C9    A    
C8    C14   A    
C1    C15   S    
C9    C10   A    
C17   H15   S    
C6    C31   A    
Cu2   O2    S    
C13   C14   A    
C35   H11   S    
Cu1   O1    S    
C21   H2    S    
C33   H10   S    
Cu1   O7    S    
C7    C31   A    
C13   C19   A    
C16   O6    A    
C24   H5    S    
C7    H3    S    
C24   C25   A    
C18   H19   S    
C25   C26   A    
C1    O2    A    
C20   H21   S    
C37   C38   A    
C27   N1    A    
Cu2   N1    S    
Cu1   O5    S    
C17   C18   A    
C6    H7    S    
C12   C35   A    
C27   H20   S    
C40   C41   A    
C22   C24   A    
C2    C5    A    
Cu1   Cu2   S    
C12   C34   A    
Cu2   O8    S    
C15   C17   A    
Cu2   O4    S    
C40   H14   S    
C30   C33   A    
C26   N1    A    
C5    H12   S    
C28   C31   S    
C25   N2    A    
C39   H1    S    
C9    H17   S    
C23   C32   A    
C2    C3    A    
C32   C33   A    
C11   C13   A    
C38   C39   A    
C20   C26   A    
C16   C19   S    
C23   C39   A    
C22   H4    S    
C10   C11   A    
C29   N2    A    
C10   H18   S    
C38   H13   S    
C20   C21   A    
C3    C37   A    
Cu1   N2    S    
C14   C15   A    
C21   C22   A    
C28   O8    A    
C41   H8    S    
C4    O4    A    
C4    C30   S    
