data_mof_unit_22092.cif
_audit_creation_date              2012-10-26T19:59:11-0400
_audit_creation_method            fapswitch 2.2
_symmetry_space_group_name_H-M    P1
_symmetry_Int_Tables_number       1
_space_group_crystal_system       triclinic
_cell_length_a                    7.505787
_cell_length_b                    8.674488
_cell_length_c                    15.763795
_cell_angle_alpha                 94.189397
_cell_angle_beta                  75.774442
_cell_angle_gamma                 103.326587
_cell_volume                      967.953237361

loop_
_atom_site_label
_atom_site_type_symbol
_atom_type_description
_atom_site_fract_x
_atom_site_fract_y
_atom_site_fract_z
_atom_type_partial_charge
C1    C     C_R   0.544776 0.799949 0.503027 0.538065
C2    C     C_R   0.614999 0.513877 0.333882 0.550805
C3    C     C_R   0.311104 0.472575 0.763737 0.013426
C4    C     C_R   0.681855 0.540039 0.238695 0.009505
C5    C     C_R   0.053265 0.446343 0.894622 -0.106154
C6    C     C_R   0.879237 0.704123 0.117697 -0.101819
C7    C     C_R   0.125586 0.487243 0.806185 0.116192
C8    C     C_R   0.846004 0.656242 0.203629 0.106329
C9    C     C_R   0.426035 0.444486 0.817083 -0.051726
C10   C     C_R   0.559515 0.467473 0.184400 -0.036410
C11   C     C_R   0.369604 0.466688 0.908064 0.035839
C12   C     C_R   0.454829 0.200019 0.497451 0.545853
C13   C     C_R   0.580854 0.532955 0.101752 0.032675
C14   C     C_R   0.176836 0.440458 0.947075 0.002989
C15   C     C_R   0.749325 0.644781 0.067012 -0.008148
C16   C     C_R   0.498893 0.520500 0.960602 0.025182
C17   C     C_R   0.442460 0.491850 0.051383 0.035817
C18   C     C_3   0.432660 0.305647 0.208991 -0.396805
C19   C     C_3   0.582014 0.358548 0.781853 -0.383543
C20   C     C_3   0.965852 0.878582 0.291202 -0.283376
C21   C     C_3   0.072323 0.717249 0.747274 -0.311822
C22   C     C_R   0.247278 0.441766 0.089249 -0.130218
C23   C     C_R   0.670759 0.625407 0.926639 -0.133069
C24   C     C_R   0.115446 0.421711 0.037770 -0.139016
C25   C     C_R   0.788867 0.694457 0.980847 -0.141526
C26   C     C_2   0.569636 0.968192 0.504478 -0.174592
C27   C     C_2   0.429619 0.031753 0.496379 -0.165091
C28   C     C_R   0.384272 0.486162 0.666741 0.544630
Cu1   Cu    Cu3+1 0.322120 0.483240 0.490330 0.926202
Cu2   Cu    Cu3+1 0.677880 0.516760 0.509670 0.919880
H1    H     H_    0.966481 0.395748 0.069008 0.120581
H2    H     H_    0.995364 0.382402 0.431819 0.233300
H3    H     H_    0.297986 0.316618 0.254941 0.144243
H4    H     H_    0.402826 0.235422 0.150361 0.128609
H5    H     H_    0.503944 0.235622 0.240887 0.124457
H6    H     H_    0.695683 0.436030 0.737412 0.179295
H7    H     H_    0.638618 0.322555 0.834323 0.134616
H8    H     H_    0.529392 0.249612 0.745700 0.131073
H9    H     H_    0.016199 0.650149 0.290251 0.278714
H10   H     H_    0.081721 0.924469 0.324895 0.142460
H11   H     H_    0.828928 0.868914 0.339676 0.159632
H12   H     H_    0.916216 0.781064 0.954260 0.111655
H13   H     H_    0.976188 0.964046 0.240097 0.138425
H14   H     H_    0.985984 0.483117 0.709254 0.272073
H15   H     H_    0.964287 0.757194 0.722637 0.129615
H16   H     H_    0.208127 0.744889 0.697593 0.155627
H17   H     H_    0.089196 0.784181 0.808546 0.146068
H18   H     H_    0.904692 0.432680 0.923633 0.137550
H19   H     H_    0.007722 0.789646 0.090586 0.132170
H20   H     H_    0.193574 0.434591 0.159260 0.122723
H21   H     H_    0.707247 0.663316 0.859542 0.148648
H22   H     H_    0.704450 0.040009 0.511924 0.130781
H23   H     H_    0.294845 0.959923 0.488869 0.131120
H24   H     H_    0.005214 0.618583 0.567579 0.235158
N1    N     N_2   0.945180 0.542040 0.524240 -0.266655
N2    N     N_2   0.054820 0.457960 0.475760 -0.264184
N3    N     N_2   0.982762 0.725166 0.251918 -0.517717
N4    N     N_2   0.012667 0.548670 0.763289 -0.538968
O1    O     O_R   0.384450 0.714270 0.493720 -0.500979
O2    O     O_R   0.615550 0.285730 0.506280 -0.502898
O3    O     O_R   0.684880 0.742590 0.510050 -0.498144
O4    O     O_R   0.315120 0.257410 0.489950 -0.499491
O5    O     O_R   0.265540 0.477900 0.617090 -0.506958
O6    O     O_R   0.734460 0.522100 0.382910 -0.510191
O7    O     O_R   0.565970 0.506210 0.633420 -0.506988
O8    O     O_R   0.434030 0.493790 0.366580 -0.495492

loop_
_geom_bond_atom_site_label_1
_geom_bond_atom_site_label_2
_ccdc_geom_bond_type
C25   H12   S    
C2    C4    S    
N1    N2    D    
C27   H23   S    
Cu1   Cu2   S    
C3    C9    A    
C19   H8    S    
C26   H22   S    
C8    N3    S    
C12   O4    A    
C18   H5    S    
C7    N4    S    
C23   H21   S    
C17   C22   A    
C13   C17   A    
C4    C8    A    
C20   H13   S    
Cu1   O5    S    
C28   O7    A    
C26   C27   D    
C24   H1    S    
C21   N4    S    
C9    C11   A    
C5    C14   A    
C10   C18   S    
C21   H15   S    
C18   H4    S    
C3    C28   S    
Cu1   N2    S    
C1    O1    A    
C2    O6    A    
C20   H11   S    
C16   C23   A    
Cu2   O6    S    
C19   H6    S    
C13   C15   A    
C6    H19   S    
C1    C26   S    
C20   H10   S    
C5    H18   S    
C22   C24   A    
C15   C25   A    
Cu2   O7    S    
C18   H3    S    
C12   C27   S    
C4    C10   A    
Cu1   O8    S    
C12   O2    A    
C28   O5    A    
H14   N4    S    
C22   H20   S    
C23   C25   A    
C1    O3    A    
C21   H16   S    
Cu2   N1    S    
Cu2   O3    S    
C14   C24   A    
C11   C14   A    
C5    C7    A    
H24   N1    S    
C6    C8    A    
C19   H7    S    
C3    C7    A    
C2    O8    A    
C6    C15   A    
Cu1   O4    S    
C20   N3    S    
H2    N2    S    
C11   C16   A    
Cu1   O1    S    
C9    C19   S    
Cu2   O2    S    
C16   C17   A    
C21   H17   S    
C10   C13   A    
H9    N3    S    
