data_mof_unit_63907.cif
_audit_creation_date              2012-12-10T18:08:25-0500
_audit_creation_method            fapswitch 2.2
_symmetry_space_group_name_H-M    P1
_symmetry_Int_Tables_number       1
_space_group_crystal_system       triclinic
_cell_length_a                    12.411191
_cell_length_b                    13.912619
_cell_length_c                    20.833848
_cell_angle_alpha                 90.182223
_cell_angle_beta                  93.888624
_cell_angle_gamma                 99.440421
_cell_volume                      3540.16082771

loop_
_atom_site_label
_atom_site_type_symbol
_atom_type_description
_atom_site_fract_x
_atom_site_fract_y
_atom_site_fract_z
_atom_type_partial_charge
C1    C     C_R   0.482246 0.314857 0.499173 0.823686
C2    C     C_2   0.974879 0.532062 0.516358 -0.245100
C3    C     C_1   0.856394 0.522040 0.513787 0.335512
C4    C     C_1   0.143606 0.477960 0.486213 0.335511
C5    C     C_R   0.499880 0.500658 0.365963 0.785491
C6    C     C_R   0.500120 0.499335 0.634037 0.785495
C7    C     C_R   0.389715 0.493508 0.249359 -0.126209
C8    C     C_R   0.610283 0.506451 0.750639 -0.126202
C9    C     C_R   0.389672 0.493859 0.177073 -0.118341
C10   C     C_R   0.610326 0.506079 0.822925 -0.118342
C11   C     C_R   0.498787 0.502880 0.145338 -0.069662
C12   C     C_R   0.517754 0.685143 0.500827 0.823693
C13   C     C_R   0.501212 0.497052 0.854659 -0.069663
C14   C     C_R   0.608375 0.513874 0.185199 -0.117955
C15   C     C_R   0.391624 0.486077 0.814799 -0.117960
C16   C     C_R   0.607876 0.512596 0.258344 -0.129007
C17   C     C_R   0.392123 0.487372 0.741654 -0.129006
C18   C     C_R   0.498982 0.502143 0.289479 -0.162658
C19   C     C_R   0.501016 0.497831 0.710520 -0.162656
C20   C     C_R   0.501148 0.498760 0.931419 0.403368
C21   C     C_R   0.498851 0.501151 0.068577 0.403373
C22   C     C_2   0.272949 0.483966 0.283129 0.903069
C23   C     C_1   0.529348 0.788847 0.500762 -0.140291
C24   C     C_2   0.727049 0.516001 0.716869 0.903050
C25   C     C_2   0.272819 0.483267 0.134183 0.904312
C26   C     C_2   0.727179 0.516661 0.865814 0.904249
C27   C     C_2   0.726119 0.524995 0.150787 0.895926
C28   C     C_2   0.273882 0.474959 0.849213 0.895949
C29   C     C_2   0.724344 0.523038 0.302161 0.897069
C30   C     C_2   0.275654 0.476944 0.697838 0.897071
C31   C     C_2   0.035738 0.616425 0.556263 0.866815
C32   C     C_2   0.964261 0.383575 0.443736 0.866829
C33   C     C_1   0.470652 0.211153 0.499238 -0.140288
C34   C     C_2   0.545258 0.980035 0.499803 -0.147611
C35   C     C_2   0.454742 0.019965 0.500197 -0.147611
C36   C     C_1   0.462351 0.123909 0.499579 0.032142
C37   C     C_1   0.537649 0.876091 0.500421 0.032141
C38   C     C_2   0.025121 0.467938 0.483641 -0.245096
Cu1   Cu    Cu3+1 0.395330 0.493960 0.495610 1.089571
Cu2   Cu    Cu3+1 0.604670 0.506040 0.504390 1.089568
H1    H     H_    0.374640 0.974836 0.501106 0.171193
H2    H     H_    0.172494 0.461063 0.614565 0.349021
H3    H     H_    0.179400 0.687746 0.598254 0.347767
H4    H     H_    0.820601 0.312257 0.401743 0.347767
H5    H     H_    0.625360 0.025164 0.498894 0.171193
H6    H     H_    0.104251 0.475519 0.285093 0.372823
H7    H     H_    0.895744 0.524434 0.714906 0.372822
H8    H     H_    0.103976 0.447444 0.120929 0.364706
H9    H     H_    0.895987 0.552614 0.879037 0.364714
H10   H     H_    0.829103 0.520539 0.075696 0.373292
H11   H     H_    0.170896 0.479387 0.924305 0.373298
H12   H     H_    0.827503 0.538960 0.385435 0.349011
N1    N     N_R   0.587024 0.508505 0.036168 -0.137005
N2    N     N_R   0.412975 0.491395 0.963829 -0.137007
N3    N     N_R   0.588216 0.507388 0.972488 -0.121021
N4    N     N_R   0.411783 0.492514 0.027509 -0.121016
N5    N     N_1   0.238030 0.484880 0.489000 -0.087904
N6    N     N_1   0.761970 0.515120 0.511000 -0.087905
O1    O     O_R   0.399110 0.356330 0.495750 -0.569830
O2    O     O_R   0.168088 0.475779 0.255629 -0.663220
O3    O     O_2   0.738347 0.516447 0.660457 -0.561034
O4    O     O_R   0.831910 0.524181 0.744369 -0.663247
O5    O     O_2   0.261348 0.482469 0.077003 -0.546796
O6    O     O_R   0.167909 0.475660 0.153071 -0.661141
O7    O     O_2   0.738652 0.517441 0.922994 -0.546749
O8    O     O_R   0.832088 0.524273 0.846928 -0.661154
O9    O     O_2   0.815955 0.532736 0.178761 -0.499799
O10   O     O_R   0.750310 0.522763 0.087020 -0.690283
O11   O     O_2   0.184052 0.467228 0.821240 -0.499799
O12   O     O_R   0.600890 0.643670 0.504250 -0.569831
O13   O     O_R   0.249690 0.477162 0.912980 -0.690270
O14   O     O_2   0.812003 0.531315 0.281458 -0.519777
O15   O     O_R   0.747820 0.521874 0.368137 -0.689310
O16   O     O_2   0.187995 0.468665 0.718542 -0.519781
O17   O     O_R   0.252179 0.478121 0.631863 -0.689319
O18   O     O_2   0.984915 0.676565 0.577499 -0.564239
O19   O     O_R   0.149406 0.627703 0.570573 -0.746190
O20   O     O_2   0.015084 0.323433 0.422503 -0.564241
O21   O     O_R   0.850595 0.372301 0.429423 -0.746170
O22   O     O_R   0.575900 0.366540 0.503170 -0.560036
O23   O     O_R   0.424100 0.633460 0.496830 -0.560034
O24   O     O_R   0.411580 0.494880 0.396430 -0.521606
O25   O     O_R   0.588420 0.505120 0.603570 -0.521609
O26   O     O_R   0.588360 0.505090 0.403850 -0.519737
O27   O     O_R   0.411640 0.494910 0.596150 -0.519735
O28   O     O_2   0.261654 0.483534 0.339541 -0.561040

loop_
_geom_bond_atom_site_label_1
_geom_bond_atom_site_label_2
_ccdc_geom_bond_type
C24   O3    D    
C5    O24   A    
C34   C37   S    
Cu2   O26   S    
C35   C36   S    
H7    O4    S    
C31   O18   D    
C1    C33   S    
C6    C19   S    
C12   C23   S    
H2    O17   S    
C6    O27   A    
Cu2   O12   S    
C1    O1    A    
C22   O2    S    
C30   O16   D    
C11   C14   A    
H8    O6    S    
C29   O15   S    
Cu1   N5    S    
C33   C36   T    
C7    C9    A    
C34   C35   D    
C25   O5    D    
C27   O10   S    
C17   C19   A    
C28   O11   D    
C4    N5    T    
Cu2   O22   S    
C32   C38   S    
C14   C27   S    
C29   O14   D    
C10   C26   S    
C17   C30   S    
Cu2   O25   S    
H11   O13   S    
C20   N3    A    
C31   O19   S    
N1    N3    A    
N2    N4    A    
C8    C19   A    
Cu2   N6    S    
H9    O8    S    
C9    C25   S    
C26   O8    S    
Cu1   O23   S    
C20   N2    A    
H12   O15   S    
Cu1   Cu2   S    
C5    O26   A    
C5    C18   S    
C16   C29   S    
C23   C37   T    
C11   C21   S    
C2    C31   S    
C25   O6    S    
C2    C38   D    
C7    C18   A    
Cu1   O1    S    
C34   H5    S    
C9    C11   A    
C16   C18   A    
C4    C38   S    
C13   C15   A    
C14   C16   A    
C28   O13   S    
Cu1   O27   S    
C15   C17   A    
C12   O12   A    
C24   O4    S    
C6    O25   A    
C13   C20   S    
H6    O2    S    
C26   O7    D    
H4    O21   S    
Cu1   O24   S    
C10   C13   A    
C21   N4    A    
H3    O19   S    
C7    C22   S    
C2    C3    S    
C32   O21   S    
C21   N1    A    
C30   O17   S    
C15   C28   S    
C8    C24   S    
C12   O23   A    
C22   O28   D    
C35   H1    S    
C27   O9    D    
C32   O20   D    
C3    N6    T    
C8    C10   A    
C1    O22   A    
H10   O10   S    
