data_mof_unit_43794.cif
_audit_creation_date              2012-12-10T18:42:39-0500
_audit_creation_method            fapswitch 2.2
_symmetry_space_group_name_H-M    P1
_symmetry_Int_Tables_number       1
_space_group_crystal_system       triclinic
_cell_length_a                    10.856163
_cell_length_b                    15.189927
_cell_length_c                    13.801524
_cell_angle_alpha                 89.597326
_cell_angle_beta                  91.213004
_cell_angle_gamma                 90.611262
_cell_volume                      2275.23879483

loop_
_atom_site_label
_atom_site_type_symbol
_atom_type_description
_atom_site_fract_x
_atom_site_fract_y
_atom_site_fract_z
_atom_type_partial_charge
C1    C     C_R   0.498605 0.329720 0.500106 0.828669
C2    C     C_R   0.498629 0.670360 0.499399 0.834534
C3    C     C_R   0.871630 0.488962 0.503767 -0.092151
C4    C     C_R   0.127976 0.486866 0.495735 -0.063442
C5    C     C_R   0.940922 0.460014 0.586500 0.027427
C6    C     C_R   0.057090 0.503135 0.410628 0.025433
C7    C     C_R   0.441522 0.093004 0.576136 -0.024775
C8    C     C_R   0.438821 0.906378 0.419852 -0.025379
C9    C     C_R   0.436199 0.185373 0.573414 0.103493
C10   C     C_R   0.435501 0.813715 0.421997 0.094152
C11   C     C_R   0.498734 0.232983 0.500119 -0.129906
C12   C     C_R   0.498851 0.767341 0.497422 -0.140209
C13   C     C_R   0.559133 0.186703 0.425940 -0.034773
C14   C     C_R   0.563234 0.815123 0.570581 -0.036140
C15   C     C_R   0.557849 0.095254 0.427376 -0.194093
C16   C     C_R   0.561165 0.906488 0.569334 -0.197876
C17   C     C_R   0.499088 0.048475 0.500460 0.019479
C18   C     C_R   0.498848 0.952080 0.496079 0.016379
C19   C     C_R   0.555180 0.569621 0.107976 -0.271276
C20   C     C_R   0.403258 0.463261 0.892010 -0.256202
C21   C     C_R   0.552605 0.568643 0.209776 0.111258
C22   C     C_R   0.403294 0.464634 0.790274 0.137933
C23   C     C_R   0.261935 0.495482 0.498644 0.846784
C24   C     C_R   0.737900 0.496130 0.501431 0.775567
C25   C     C_R   0.451702 0.430211 0.208789 0.131361
C26   C     C_R   0.598296 0.534774 0.791383 0.116665
C27   C     C_R   0.453195 0.428270 0.107082 -0.289577
C28   C     C_R   0.601639 0.535441 0.893231 -0.280233
C29   C     C_R   0.504259 0.498964 0.054629 0.126277
C30   C     C_R   0.503231 0.499184 0.945547 0.108759
C31   C     C_R   0.124030 0.587925 0.159641 -0.097488
C32   C     C_R   0.741562 0.311246 0.741936 -0.106163
C33   C     C_R   0.097237 0.585741 0.258184 -0.158249
C34   C     C_R   0.798163 0.350456 0.662421 -0.092643
C35   C     C_R   0.105816 0.506783 0.311305 0.110749
C36   C     C_R   0.883894 0.420067 0.674591 0.081736
C37   C     C_R   0.138128 0.428806 0.263258 0.156990
C38   C     C_R   0.917393 0.445842 0.770505 0.133279
C39   C     C_R   0.161224 0.431308 0.163857 -0.191251
C40   C     C_R   0.860272 0.405393 0.849634 -0.152410
C41   C     C_R   0.155512 0.510718 0.112445 -0.127753
C42   C     C_R   0.772047 0.339055 0.835436 -0.150709
C43   C     C_R   0.930793 0.508687 0.417396 -0.258991
C44   C     C_R   0.069079 0.460508 0.580702 -0.156937
Cu1   Cu    Cu3+1 0.500000 0.499990 0.596430 0.975086
Cu2   Cu    Cu3+1 0.500000 0.500010 0.403570 0.975613
H1    H     H_    0.174501 0.512278 0.035827 0.164698
H2    H     H_    0.727983 0.308751 0.897096 0.133856
H3    H     H_    0.604241 0.059750 0.371051 0.148043
H4    H     H_    0.611473 0.942966 0.625035 0.149162
H5    H     H_    0.595224 0.625999 0.071463 0.129320
H6    H     H_    0.324365 0.435348 0.928243 0.144075
H7    H     H_    0.593006 0.623206 0.249506 0.129475
H8    H     H_    0.325186 0.437318 0.750816 0.160472
H9    H     H_    0.411423 0.375418 0.247565 0.149239
H10   H     H_    0.675273 0.561524 0.752379 0.155095
H11   H     H_    0.415103 0.371316 0.069973 0.127676
H12   H     H_    0.681934 0.562655 0.930505 0.137315
H13   H     H_    0.117870 0.649201 0.119425 0.154545
H14   H     H_    0.674106 0.259058 0.730908 0.138230
H15   H     H_    0.067100 0.645270 0.292878 0.154639
H16   H     H_    0.773933 0.326823 0.590879 0.099010
H17   H     H_    0.184145 0.371528 0.126356 0.148244
H18   H     H_    0.884298 0.425530 0.922777 0.152734
H19   H     H_    0.877879 0.525827 0.352519 0.161024
H20   H     H_    0.123740 0.436744 0.641756 0.185357
N1    N     N_R   0.500000 0.500020 0.258690 -0.171058
N2    N     N_R   0.500000 0.499980 0.741310 -0.183576
O1    O     O_R   0.500010 0.371450 0.581430 -0.566487
O2    O     O_R   0.499990 0.628550 0.418570 -0.568650
O3    O     O_R   0.500010 0.371460 0.418560 -0.582888
O4    O     O_R   0.499990 0.628540 0.581440 -0.569904
O5    O     O_R   0.319640 0.500000 0.581430 -0.587004
O6    O     O_R   0.680360 0.500000 0.418570 -0.593946
O7    O     O_R   0.319640 0.500010 0.418560 -0.559093
O8    O     O_R   0.680360 0.499990 0.581440 -0.590605
I1    I     I_    0.147484 0.304781 0.335020 -0.479585
I2    I     I_    0.052489 0.543435 0.805818 -0.555527
C45   C     C_R   0.391029 0.043466 0.659847 0.138378
C46   C     C_R   0.287659 0.987786 0.648612 -0.098760
C47   C     C_R   0.244450 0.939052 0.727468 -0.122112
C48   C     C_R   0.303897 0.945620 0.817988 -0.116431
C49   C     C_R   0.406677 0.000959 0.829820 -0.143491
C50   C     C_R   0.450305 0.049659 0.751113 -0.134081
H21   H     H_    0.240876 0.981780 0.579147 0.119327
H22   H     H_    0.164964 0.896052 0.718352 0.139143
H23   H     H_    0.270435 0.907761 0.878915 0.135641
H24   H     H_    0.452865 0.005834 0.899875 0.121880
H25   H     H_    0.530817 0.091660 0.760910 0.125084
C51   C     C_R   0.383030 0.955279 0.336607 0.134297
C52   C     C_R   0.275272 0.004271 0.347399 -0.101759
C53   C     C_R   0.225726 0.051802 0.268960 -0.101869
C54   C     C_R   0.283399 0.050935 0.179404 -0.124646
C55   C     C_R   0.390704 0.002401 0.168077 -0.149853
C56   C     C_R   0.440585 0.954830 0.246346 -0.129538
H26   H     H_    0.229557 0.005680 0.416065 0.122770
H27   H     H_    0.142530 0.089303 0.277606 0.160372
H28   H     H_    0.245061 0.087951 0.118855 0.136458
H29   H     H_    0.435535 0.001969 0.098784 0.124185
H30   H     H_    0.524372 0.918045 0.236975 0.131493
I3    I     I_    0.313954 0.248167 0.671259 -0.414946
I4    I     I_    0.322975 0.747981 0.314709 -0.429999
C57   C     C_R   0.621317 0.230253 0.343330 0.129772
C58   C     C_R   0.576779 0.216007 0.248278 -0.161435
C59   C     C_R   0.635810 0.255089 0.169588 -0.162620
C60   C     C_R   0.739256 0.309045 0.185114 -0.106706
C61   C     C_R   0.784788 0.322926 0.279259 -0.088988
C62   C     C_R   0.726886 0.283132 0.358118 -0.089530
H31   H     H_    0.495888 0.175140 0.235321 0.153808
H32   H     H_    0.600669 0.244190 0.096629 0.129714
H33   H     H_    0.784274 0.339897 0.124213 0.127396
H34   H     H_    0.865356 0.364178 0.290983 0.152369
H35   H     H_    0.764307 0.293417 0.430274 0.099877
C63   C     C_R   0.641630 0.773522 0.646254 0.139826
C64   C     C_R   0.615707 0.785507 0.744590 -0.127171
C65   C     C_R   0.698434 0.756243 0.816410 -0.169013
C66   C     C_R   0.807898 0.715893 0.790439 -0.131127
C67   C     C_R   0.833493 0.702959 0.692581 -0.125664
C68   C     C_R   0.750420 0.731264 0.620629 -0.140779
H36   H     H_    0.532705 0.818922 0.765335 0.142440
H37   H     H_    0.678442 0.765799 0.892126 0.132980
H38   H     H_    0.872407 0.694544 0.846314 0.165312
H39   H     H_    0.918253 0.672094 0.672024 0.173082
H40   H     H_    0.772648 0.722853 0.545083 0.112029

loop_
_geom_bond_atom_site_label_1
_geom_bond_atom_site_label_2
_ccdc_geom_bond_type
C38   C40   A    
C59   H32   S    
C54   C55   A    
C27   C29   A    
C61   H34   S    
C44   H20   S    
C25   N1    A    
C2    C12   S    
C63   C64   A    
C51   C56   A    
C39   C41   A    
C20   C30   A    
Cu1   Cu2   S    
C65   C66   A    
C3    C43   A    
C46   H21   S    
Cu1   O8    S    
C35   C37   A    
C16   H4    S    
C58   H31   S    
C60   C61   A    
C64   C65   A    
C5    C36   S    
C34   H16   S    
C6    C35   S    
Cu1   O5    S    
C31   H13   S    
C67   C68   A    
C58   C59   A    
C52   H26   S    
C7    C17   A    
C1    C11   S    
C61   C62   A    
C31   C33   A    
C57   C62   A    
C13   C57   S    
C47   H22   S    
C40   C42   A    
C49   H24   S    
C21   N1    A    
Cu1   O4    S    
C3    C24   S    
C23   O5    A    
C2    O4    A    
Cu2   O7    S    
C53   H27   S    
C47   C48   A    
C60   H33   S    
C65   H37   S    
Cu1   O1    S    
C10   I4    S    
C22   H8    S    
C27   H11   S    
C23   O7    A    
C52   C53   A    
C4    C23   S    
C56   H30   S    
C24   O8    A    
C42   H2    S    
C4    C44   A    
C68   H40   S    
C37   I1    S    
C1    O1    A    
C32   C34   A    
C62   H35   S    
C66   H38   S    
C29   C30   S    
C49   C50   A    
C43   H19   S    
Cu1   N2    S    
C17   C18   S    
C41   H1    S    
C16   C18   A    
C1    O3    A    
C9    C11   A    
C22   N2    A    
Cu2   O3    S    
C10   C12   A    
C4    C6    A    
C5    C44   A    
C12   C14   A    
C48   C49   A    
C6    C43   A    
C13   C15   A    
C14   C16   A    
C8    C51   S    
C50   H25   S    
C32   H14   S    
C19   C29   A    
Cu2   O6    S    
C7    C45   S    
C7    C9    A    
C31   C41   A    
C19   C21   A    
C8    C10   A    
C25   H9    S    
C20   C22   A    
C46   C47   A    
C3    C5    A    
C26   H10   S    
C15   C17   A    
C28   H12   S    
C25   C27   A    
C38   I2    S    
C39   H17   S    
C59   C60   A    
C26   C28   A    
C40   H18   S    
C20   H6    S    
C26   N2    A    
C28   C30   A    
Cu2   N1    S    
C37   C39   A    
C14   C63   S    
C66   C67   A    
C21   H7    S    
C11   C13   A    
C24   O6    A    
C51   C52   A    
C45   C50   A    
C63   C68   A    
C55   H29   S    
C33   H15   S    
C36   C38   A    
C53   C54   A    
C33   C35   A    
C34   C36   A    
C67   H39   S    
C15   H3    S    
C55   C56   A    
C8    C18   A    
Cu2   O2    S    
C45   C46   A    
C19   H5    S    
C9    I3    S    
C64   H36   S    
C57   C58   A    
C32   C42   A    
C2    O2    A    
C54   H28   S    
C48   H23   S    
