data_mof_unit_12951.cif
_audit_creation_date              2012-12-10T17:30:24-0500
_audit_creation_method            fapswitch 2.2
_symmetry_space_group_name_H-M    P1
_symmetry_Int_Tables_number       1
_space_group_crystal_system       triclinic
_cell_length_a                    12.037915
_cell_length_b                    12.807425
_cell_length_c                    14.904583
_cell_angle_alpha                 89.966166
_cell_angle_beta                  85.860318
_cell_angle_gamma                 93.296855
_cell_volume                      2288.09520699

loop_
_atom_site_label
_atom_site_type_symbol
_atom_type_description
_atom_site_fract_x
_atom_site_fract_y
_atom_site_fract_z
_atom_type_partial_charge
C1    C     C_R   0.522095 0.700256 0.498357 0.871043
C2    C     C_R   0.477905 0.299743 0.501642 0.871029
C3    C     C_R   0.565718 0.683718 0.946030 0.469088
C4    C     C_R   0.434398 0.316253 0.053975 0.469092
C5    C     C_R   0.464092 0.188475 0.500313 -0.030946
C6    C     C_R   0.535912 0.811525 0.499679 -0.030856
C7    C     C_R   0.632895 0.968317 0.547809 -0.227453
C8    C     C_R   0.367115 0.031684 0.452174 -0.227389
C9    C     C_R   0.627977 0.860882 0.537541 -0.204405
C10   C     C_R   0.372028 0.139118 0.462449 -0.204263
C11   C     C_R   0.450870 0.868205 0.469035 -0.270872
C12   C     C_R   0.549141 0.131796 0.530947 -0.270916
C13   C     C_R   0.454257 0.974827 0.479925 0.181596
C14   C     C_R   0.545755 0.025174 0.520055 0.181664
C15   C     C_R   0.958488 0.428810 0.397991 -0.189154
C16   C     C_R   0.041510 0.571186 0.602008 -0.189181
C17   C     C_R   0.840749 0.428260 0.412029 0.565967
C18   C     C_R   0.159249 0.571762 0.587956 0.565997
C19   C     C_R   0.855865 0.527177 0.545627 -0.124424
C20   C     C_R   0.144134 0.472800 0.454385 -0.124438
C21   C     C_R   0.974004 0.524687 0.537632 -0.032487
C22   C     C_R   0.025994 0.475292 0.462377 -0.032468
C23   C     C_R   0.499759 0.499092 0.672663 0.884249
C24   C     C_R   0.500243 0.500912 0.327338 0.884229
C25   C     C_R   0.466340 0.412449 0.189861 -0.236353
C26   C     C_R   0.533720 0.587539 0.810140 -0.236588
C27   C     C_R   0.500947 0.503719 0.232076 -0.096527
C28   C     C_R   0.499066 0.496282 0.767926 -0.096446
C29   C     C_R   0.535944 0.595347 0.184343 -0.021677
C30   C     C_R   0.464081 0.404651 0.815659 -0.021693
C31   C     C_R   0.535158 0.594661 0.090433 0.038860
C32   C     C_R   0.464908 0.405324 0.909567 0.039030
C33   C     C_R   0.500361 0.501075 0.046860 -0.013272
C34   C     C_R   0.499721 0.498905 0.953139 -0.013157
C35   C     C_R   0.466474 0.409501 0.097076 0.034993
C36   C     C_R   0.533611 0.590479 0.902923 0.034706
C37   C     C_R   0.568127 0.684783 0.039191 -0.313230
C38   C     C_R   0.431957 0.315198 0.960810 -0.313580
H1    H     H_    0.440508 0.343498 0.230179 0.174813
H2    H     H_    0.559562 0.656489 0.769822 0.174723
H3    H     H_    0.596029 0.756856 0.070639 0.171708
H4    H     H_    0.404023 0.243139 0.929358 0.171570
H5    H     H_    0.619114 0.171061 0.561607 0.147567
H6    H     H_    0.380901 0.828939 0.438370 0.147527
H7    H     H_    0.306417 0.183763 0.438222 0.162884
H8    H     H_    0.693584 0.816237 0.561774 0.162870
H9    H     H_    0.703377 0.006565 0.578333 0.144975
H10   H     H_    0.296633 0.993436 0.421650 0.144961
H11   H     H_    0.186121 0.432635 0.399087 0.166653
H12   H     H_    0.813877 0.567333 0.600929 0.166648
N1    N     N_R   0.207800 0.519350 0.516680 -0.144953
N2    N     N_R   0.792200 0.480650 0.483320 -0.144939
O1    O     O_R   0.421700 0.658830 0.504450 -0.621385
O2    O     O_R   0.578300 0.341170 0.495550 -0.621422
O3    O     O_R   0.609310 0.646410 0.493750 -0.621089
O4    O     O_R   0.390690 0.353590 0.506250 -0.621088
O5    O     O_R   0.406180 0.506230 0.637500 -0.548968
O6    O     O_R   0.593820 0.493770 0.362500 -0.548908
O7    O     O_R   0.593800 0.493820 0.626800 -0.635885
O8    O     O_R   0.406200 0.506180 0.373200 -0.635896
Zn1   Zn    Zn3+2 0.374730 0.508290 0.507150 0.984031
Zn2   Zn    Zn3+2 0.625270 0.491710 0.492850 0.984032
C39   C     C_1   0.008273 0.385674 0.315811 0.177782
N3    N     N_1   0.048124 0.351292 0.250122 -0.181616
C40   C     C_1   0.991731 0.614337 0.684184 0.177827
N4    N     N_1   0.951885 0.648732 0.749870 -0.181587
C41   C     C_1   0.570355 0.689082 0.232416 0.139187
N5    N     N_1   0.597731 0.763732 0.270681 -0.208900
C42   C     C_1   0.429642 0.310923 0.767589 0.139188
N6    N     N_1   0.402244 0.236279 0.729324 -0.208939
O9    O     O_3   0.600950 0.772488 0.896459 -0.605165
C43   C     C_3   0.514350 0.842607 0.901071 0.078316
H13   H     H_    0.506401 0.879152 0.968807 0.146651
H14   H     H_    0.432778 0.802761 0.886578 0.136817
C44   C     C_3   0.541606 0.928688 0.831197 -0.809104
H15   H     H_    0.549205 0.894317 0.762744 0.257512
H16   H     H_    0.474071 0.984400 0.834229 0.212377
H17   H     H_    0.621405 0.971818 0.844454 0.259840
O10   O     O_3   0.399155 0.227506 0.103580 -0.605285
C45   C     C_3   0.485443 0.157053 0.098522 0.078549
H18   H     H_    0.567353 0.196616 0.112482 0.136755
H19   H     H_    0.492599 0.120373 0.030814 0.146709
C46   C     C_3   0.458449 0.071146 0.168594 -0.809123
H20   H     H_    0.378170 0.028471 0.156003 0.260043
H21   H     H_    0.525582 0.015009 0.165058 0.212355
H22   H     H_    0.451913 0.105624 0.237036 0.257352
O11   O     O_3   0.226265 0.617504 0.650345 -0.578535
C47   C     C_3   0.232755 0.727333 0.638549 0.119262
H23   H     H_    0.152768 0.761230 0.661494 0.131471
H24   H     H_    0.253403 0.750147 0.566949 0.136526
C48   C     C_3   0.322926 0.775406 0.694867 -0.779790
H25   H     H_    0.404178 0.741703 0.675966 0.247236
H26   H     H_    0.331720 0.861339 0.683809 0.209046
H27   H     H_    0.300131 0.759383 0.767272 0.245840
O12   O     O_3   0.773736 0.382607 0.349595 -0.578525
C49   C     C_3   0.767185 0.272765 0.361303 0.119314
H28   H     H_    0.746589 0.249877 0.432893 0.136473
H29   H     H_    0.847130 0.238849 0.338273 0.131525
C50   C     C_3   0.676922 0.224810 0.305009 -0.779664
H30   H     H_    0.699593 0.240962 0.232605 0.246002
H31   H     H_    0.668143 0.138857 0.315953 0.208946
H32   H     H_    0.595692 0.258482 0.324045 0.247133

loop_
_geom_bond_atom_site_label_1
_geom_bond_atom_site_label_2
_ccdc_geom_bond_type
C4    O10   S    
O6    Zn2   S    
O11   C47   S    
C49   C50   S    
C16   C21   A    
C27   C29   A    
C47   H24   S    
O12   C49   S    
N1    Zn1   S    
C24   C27   S    
C6    C9    A    
C23   O7    A    
C8    C13   A    
C19   C21   A    
C38   H4    S    
C12   H5    S    
C45   C46   S    
O3    Zn2   S    
C15   C17   A    
C1    O1    A    
C29   C41   S    
O1    Zn1   S    
C19   N2    A    
C15   C22   A    
C46   H20   S    
C49   H29   S    
C31   C33   A    
C17   O12   S    
C32   C38   A    
C4    C35   A    
C9    H8    S    
C13   C14   A    
C43   C44   S    
C17   N2    A    
C18   N1    A    
C7    C14   A    
C1    C6    S    
C24   O6    A    
O10   C45   S    
C5    C12   A    
C43   H14   S    
C2    O2    A    
C6    C11   A    
C45   H18   S    
O2    Zn2   S    
C41   N5    T    
C31   C37   A    
O8    Zn1   S    
C32   C34   A    
C3    O9    S    
C44   H15   S    
C8    H10   S    
C20   H11   S    
C48   H26   S    
C50   H30   S    
C47   C48   S    
C24   O8    A    
C49   H28   S    
C46   H22   S    
C10   H7    S    
C33   C34   A    
C11   H6    S    
C16   C18   A    
C23   C28   S    
C44   H16   S    
C25   C35   A    
C45   H19   S    
C46   H21   S    
C12   C14   A    
C2    C5    S    
C25   C27   A    
C48   H25   S    
C30   C42   S    
C26   C36   A    
C23   O5    A    
O7    Zn2   S    
C50   H31   S    
C20   C22   A    
C43   H13   S    
O5    Zn1   S    
C20   N1    A    
C26   C28   A    
C18   O11   S    
C28   C30   A    
C1    O3    A    
C5    C10   A    
C29   C31   A    
N2    Zn2   S    
C25   H1    S    
C48   H27   S    
C30   C32   A    
C11   C13   A    
C19   H12   S    
C26   H2    S    
C3    C36   A    
C33   C35   A    
C34   C36   A    
C37   H3    S    
C42   N6    T    
C44   H17   S    
C39   N3    T    
C7    C9    A    
O9    C43   S    
C50   H32   S    
C47   H23   S    
C3    C37   A    
C8    C10   A    
C40   N4    T    
C15   C39   S    
O4    Zn1   S    
C4    C38   A    
C2    O4    A    
C16   C40   S    
C21   C22   A    
C7    H9    S    
