data_mof_unit_38121.cif
_audit_creation_date              2012-12-10T17:12:35-0500
_audit_creation_method            fapswitch 2.2
_symmetry_space_group_name_H-M    P1
_symmetry_Int_Tables_number       1
_space_group_crystal_system       triclinic
_cell_length_a                    22.56482
_cell_length_b                    10.889548
_cell_length_c                    10.103519
_cell_angle_alpha                 88.367344
_cell_angle_beta                  86.96455
_cell_angle_gamma                 91.932562
_cell_volume                      2476.60987014

loop_
_atom_site_label
_atom_site_type_symbol
_atom_type_description
_atom_site_fract_x
_atom_site_fract_y
_atom_site_fract_z
_atom_type_partial_charge
C1    C     C_R   0.502624 0.262496 0.502317 0.800727
C2    C     C_R   0.123896 0.592264 0.721171 0.570773
C3    C     C_R   0.231090 0.592533 0.545655 0.559538
C4    C     C_R   0.388719 0.497799 0.503587 0.848912
C5    C     C_R   0.292202 0.599308 0.511050 -0.183406
C6    C     C_R   0.324040 0.490652 0.514753 -0.263543
C7    C     C_R   0.294108 0.375304 0.536803 -0.135666
C8    C     C_R   0.232257 0.371873 0.568761 -0.040969
C9    C     C_R   0.204872 0.482522 0.606054 0.032484
C10   C     C_R   0.775694 0.456328 0.421339 0.504713
C11   C     C_R   0.714027 0.453589 0.406915 -0.301233
C12   C     C_R   0.955448 0.277418 0.713783 0.448419
C13   C     C_R   0.676444 0.516874 0.494006 -0.168800
C14   C     C_R   0.700668 0.591140 0.588770 -0.288614
C15   C     C_R   0.760803 0.591340 0.609472 0.477175
C16   C     C_R   0.503223 0.736114 0.497060 0.893541
C17   C     C_R   0.798650 0.521073 0.528972 0.051011
C18   C     C_2   0.498455 0.937023 0.401162 0.399463
C19   C     C_2   0.525946 0.859714 0.482244 -0.217347
C20   C     C_2   0.514811 0.067177 0.396271 0.414835
C21   C     C_2   0.508161 0.129114 0.509702 0.223395
C22   C     C_2   0.535036 0.573135 0.917149 0.644738
C23   C     C_R   0.016768 0.269420 0.733907 -0.168661
C24   C     C_2   0.523469 0.587595 0.067226 -0.315574
C25   C     C_R   0.611689 0.502131 0.496885 0.886409
C26   C     C_R   0.893432 0.614947 0.570774 0.570367
C27   C     C_R   0.877301 0.399020 0.611649 0.520069
C28   C     C_R   0.933301 0.390273 0.666204 -0.133749
C29   C     C_R   0.968777 0.498787 0.671959 -0.078448
C30   C     C_R   0.946340 0.614095 0.637483 -0.161743
C31   C     C_3   0.877636 0.175917 0.835017 0.137622
C32   C     C_3   0.888802 0.075537 0.938590 -0.424620
C33   C     C_3   0.836288 0.056630 0.039705 -0.911117
C34   C     C_R   0.054115 0.377444 0.723729 -0.093911
C35   C     C_3   0.783130 0.603634 0.826704 0.049029
C36   C     C_3   0.803371 0.693663 0.930667 -0.317450
C37   C     C_3   0.777038 0.658850 0.069349 -0.956558
C38   C     C_3   0.453147 0.871698 0.215204 0.137561
C39   C     C_3   0.415662 0.951888 0.128281 -0.364284
C40   C     C_3   0.416569 0.906505 0.986515 -0.906746
C41   C     C_2   0.586432 0.882550 0.530692 0.301380
C42   C     C_3   0.578756 0.097281 0.213148 0.058678
C43   C     C_3   0.627462 0.188193 0.253796 -0.322423
C44   C     C_3   0.688389 0.158067 0.192486 -0.910841
C45   C     C_R   0.028111 0.492204 0.705018 -0.088106
C46   C     C_3   0.531982 0.110074 0.737897 0.120249
C47   C     C_3   0.597931 0.150087 0.706099 -0.321811
C48   C     C_3   0.619857 0.240891 0.806528 -0.959817
C49   C     C_3   0.622146 0.700225 0.917870 0.003853
C50   C     C_3   0.608300 0.836132 0.927219 -0.347714
C51   C     C_3   0.660903 0.910014 0.975779 -0.981197
C52   C     C_3   0.420068 0.372218 0.879460 0.195428
C53   C     C_3   0.356851 0.361137 0.942143 -0.360510
C54   C     C_3   0.330811 0.230457 0.937034 -0.859715
C55   C     C_2   0.039871 0.145936 0.758566 0.706331
C56   C     C_R   0.062139 0.601065 0.719907 -0.208144
C57   C     C_2   0.504590 0.377877 0.108108 0.737352
C58   C     C_3   0.060508 0.800254 0.917743 0.153607
C59   C     C_3   0.999232 0.820139 0.985717 -0.483905
C60   C     C_3   0.999926 0.802511 0.135968 -0.880425
C61   C     C_2   0.950009 0.844662 0.664447 0.531929
C62   C     C_3   0.161437 0.663635 0.407085 0.095978
C63   C     C_3   0.197781 0.672143 0.274066 -0.368810
C64   C     C_3   0.157792 0.661361 0.157801 -0.925605
C65   C     C_2   0.322782 0.719075 0.470249 0.478786
C66   C     C_2   0.327913 0.260780 0.520957 0.373173
C67   C     C_R   0.033814 0.714429 0.724027 0.532935
C68   C     C_2   0.195718 0.265738 0.524748 0.557560
C69   C     C_3   0.860554 0.451051 0.280556 0.121281
C70   C     C_3   0.879813 0.393682 0.149362 -0.349877
C71   C     C_3   0.931102 0.467886 0.077626 -0.972490
C72   C     C_R   0.977515 0.723141 0.671467 -0.150457
C73   C     C_R   0.116826 0.379003 0.727636 0.619343
H1    H     H_    0.695334 0.399610 0.330484 0.171743
H2    H     H_    0.796125 0.024231 0.990081 0.262099
H3    H     H_    0.814526 0.526987 0.822375 0.123157
H4    H     H_    0.738187 0.563415 0.856051 0.136758
H5    H     H_    0.852635 0.696032 0.930759 0.190501
H6    H     H_    0.789870 0.788127 0.904743 0.245104
H7    H     H_    0.729094 0.677955 0.076768 0.262232
H8    H     H_    0.799610 0.714213 0.143699 0.274618
H9    H     H_    0.782182 0.559868 0.092007 0.267471
H10   H     H_    0.437659 0.774440 0.206729 0.178830
H11   H     H_    0.500278 0.878739 0.175678 0.092938
H12   H     H_    0.672301 0.647154 0.649462 0.190321
H13   H     H_    0.369015 0.949621 0.169877 0.250413
H14   H     H_    0.433340 0.048339 0.126983 0.272578
H15   H     H_    0.462872 0.904133 0.944174 0.255259
H16   H     H_    0.391361 0.968951 0.923485 0.287052
H17   H     H_    0.395781 0.812642 0.985027 0.284448
H18   H     H_    0.602636 0.821113 0.605819 0.112379
H19   H     H_    0.574915 0.106349 0.104513 0.151983
H20   H     H_    0.591107 0.000539 0.233431 0.153717
H21   H     H_    0.616511 0.282816 0.221755 0.208164
H22   H     H_    0.629486 0.185785 0.363329 0.233424
H23   H     H_    0.534521 0.674796 0.109859 0.139982
H24   H     H_    0.698397 0.060722 0.214645 0.294540
H25   H     H_    0.723375 0.216945 0.234227 0.290457
H26   H     H_    0.690111 0.175677 0.083659 0.245865
H27   H     H_    0.531708 0.036398 0.815823 0.130829
H28   H     H_    0.506345 0.182107 0.787006 0.162866
H29   H     H_    0.625828 0.068186 0.709171 0.243492
H30   H     H_    0.605447 0.194804 0.606528 0.216975
H31   H     H_    0.594842 0.326703 0.801286 0.284687
H32   H     H_    0.667738 0.264150 0.784596 0.272399
H33   H     H_    0.613898 0.200763 0.908357 0.239954
H34   H     H_    0.832846 0.157458 0.797851 0.216245
H35   H     H_    0.665454 0.695824 0.862753 0.193420
H36   H     H_    0.628889 0.656134 0.016238 0.120286
H37   H     H_    0.598394 0.872613 0.827724 0.231156
H38   H     H_    0.568804 0.848314 0.994639 0.188881
H39   H     H_    0.670751 0.878599 0.077546 0.274678
H40   H     H_    0.650138 0.008122 0.976294 0.263687
H41   H     H_    0.700673 0.900950 0.907843 0.279452
H42   H     H_    0.446609 0.297216 0.918104 0.111883
H43   H     H_    0.418142 0.355968 0.773451 0.188495
H44   H     H_    0.356922 0.388067 0.047479 0.252735
H45   H     H_    0.876463 0.266609 0.883673 0.091438
H46   H     H_    0.328278 0.424871 0.888522 0.236137
H47   H     H_    0.333033 0.198309 0.833803 0.302658
H48   H     H_    0.283648 0.227980 0.974709 0.285140
H49   H     H_    0.355699 0.167737 0.000370 0.263076
H50   H     H_    0.019884 0.087699 0.838416 0.009012
H51   H     H_    0.540585 0.349593 0.041295 -0.114919
H52   H     H_    0.092619 0.869256 0.954349 0.192413
H53   H     H_    0.076348 0.708394 0.947952 0.138336
H54   H     H_    0.985793 0.914560 0.962212 0.229633
H55   H     H_    0.965720 0.754412 0.948834 0.202226
H56   H     H_    0.895825 0.987476 0.888315 0.229344
H57   H     H_    0.012347 0.707443 0.162509 0.259434
H58   H     H_    0.954985 0.817919 0.181381 0.286217
H59   H     H_    0.031978 0.869195 0.176786 0.275670
H60   H     H_    0.903096 0.852870 0.690772 0.098845
H61   H     H_    0.126222 0.732470 0.405104 0.198688
H62   H     H_    0.137979 0.572047 0.420737 0.130882
H63   H     H_    0.223006 0.761701 0.264897 0.260594
H64   H     H_    0.229916 0.597080 0.269528 0.208800
H65   H     H_    0.131540 0.573042 0.165167 0.268953
H66   H     H_    0.185281 0.665026 0.063201 0.290125
H67   H     H_    0.929253 0.101251 0.990984 0.212701
H68   H     H_    0.127207 0.738949 0.157219 0.259156
H69   H     H_    0.367045 0.721243 0.423110 0.080585
H70   H     H_    0.367965 0.261327 0.456562 0.101278
H71   H     H_    0.210491 0.172510 0.533208 0.166464
H72   H     H_    0.898393 0.444256 0.345718 0.166463
H73   H     H_    0.851654 0.549961 0.262235 0.142908
H74   H     H_    0.894324 0.298776 0.169504 0.245585
H75   H     H_    0.841792 0.388320 0.084088 0.210194
H76   H     H_    0.917502 0.562743 0.054656 0.271955
H77   H     H_    0.944177 0.423888 0.983221 0.258299
H78   H     H_    0.826581 0.143566 0.089837 0.273043
H79   H     H_    0.970144 0.471856 0.140060 0.274336
H80   H     H_    0.846882 0.986106 0.115602 0.284341
N1    N     N_R   0.858827 0.510113 0.565854 -0.347620
N2    N     N_R   0.148717 0.483928 0.686863 -0.327885
N3    N     N_2   0.500610 0.501330 0.852150 -0.003419
N4    N     N_2   0.500630 0.501360 0.147810 -0.142676
O1    O     O_R   0.499990 0.319060 0.613040 -0.662089
O2    O     O_R   0.583840 0.500020 0.613040 -0.587576
O3    O     O_R   0.583850 0.500060 0.386900 -0.639470
O4    O     O_2   0.876619 0.718493 0.508791 -0.552253
O5    O     O_3   0.919828 0.170621 0.725898 -0.586318
O6    O     O_3   0.783276 0.667583 0.703196 -0.618442
O7    O     O_3   0.444566 0.903199 0.349805 -0.634934
O8    O     O_2   0.620037 0.963680 0.482053 -0.619109
O9    O     O_3   0.523194 0.126316 0.273277 -0.632013
O10   O     O_3   0.500968 0.061672 0.630512 -0.659933
O11   O     O_3   0.579971 0.638628 0.842591 -0.655709
O12   O     O_2   0.842228 0.297808 0.599847 -0.508913
O13   O     O_3   0.444759 0.489045 0.908040 -0.601655
O14   O     O_2   0.078641 0.105490 0.684817 -0.438456
O15   O     O_2   0.466353 0.302087 0.148309 -0.564853
O16   O     O_3   0.060197 0.817131 0.777801 -0.549085
O17   O     O_2   0.979347 0.936279 0.626674 -0.481131
O18   O     O_3   0.197341 0.692195 0.513652 -0.546752
O19   O     O_2   0.299423 0.816838 0.490276 -0.455252
O20   O     O_2   0.312893 0.166113 0.583098 -0.547945
O21   O     O_2   0.148945 0.282628 0.472569 -0.574796
O22   O     O_3   0.810287 0.384113 0.338447 -0.619683
O23   O     O_2   0.145257 0.281799 0.775126 -0.546769
O24   O     O_2   0.158504 0.689293 0.752697 -0.466537
O25   O     O_R   0.500010 0.319100 0.386900 -0.545374
O26   O     O_R   0.416150 0.499940 0.613100 -0.596347
O27   O     O_R   0.416160 0.499980 0.386960 -0.601223
O28   O     O_R   0.499990 0.680900 0.613100 -0.571365
O29   O     O_R   0.500010 0.680940 0.386960 -0.640547
Zn1   Zn    Zn3+2 0.499990 0.499970 0.650990 0.990941
Zn2   Zn    Zn3+2 0.500010 0.500030 0.349010 0.962669

loop_
_geom_bond_atom_site_label_1
_geom_bond_atom_site_label_2
_ccdc_geom_bond_type
C1    C21   S    
C2    N2    A    
C54   H47   S    
C38   H10   S    
C42   H20   S    
C69   H72   S    
C35   C36   S    
N4    Zn2   S    
C39   H14   S    
C13   C25   S    
O1    Zn1   S    
C60   H59   S    
C61   H60   S    
C7    C8    A    
C22   N3    D    
C53   C54   S    
C12   C23   A    
C29   C30   A    
C12   C28   A    
C5    C6    A    
C10   O22   S    
C15   O6    S    
C28   C29   A    
C32   H67   S    
C53   H44   S    
C16   O28   A    
C24   H23   S    
C38   C39   S    
C44   H26   S    
C33   H80   S    
O28   Zn1   S    
C71   H77   S    
C64   H68   S    
C10   C17   A    
C59   H54   S    
C48   H31   S    
C50   H37   S    
C43   H21   S    
C67   C72   A    
O2    Zn1   S    
C57   N4    S    
C73   O23   S    
C44   H25   S    
C33   H2    S    
C48   H33   S    
C48   H32   S    
C45   C56   A    
C8    C9    A    
C41   O8    D    
C25   O2    A    
C43   H22   S    
C70   C71   S    
C40   H16   S    
C27   O12   S    
C42   H19   S    
C57   O15   D    
C22   O11   S    
C27   N1    A    
C38   O7    S    
C54   H49   S    
C31   O5    S    
C59   C60   S    
C47   H29   S    
C13   C14   A    
C69   H73   S    
C63   H64   S    
C37   H8    S    
C18   O7    S    
C17   N1    S    
C60   H58   S    
C55   O14   D    
C32   H56   S    
C46   H28   S    
C49   H35   S    
C52   H43   S    
C37   H7    S    
C55   H50   S    
C35   H3    S    
C52   H42   S    
C51   H41   S    
C47   H30   S    
C46   O10   S    
C49   O11   S    
C5    C65   S    
C33   H78   S    
C52   O13   S    
C39   C40   S    
C24   N4    D    
C18   C19   D    
C64   H65   S    
C66   H70   S    
C58   C59   S    
C36   H6    S    
C35   O6    S    
O27   Zn2   S    
C29   C45   A    
C2    O24   S    
C62   H62   S    
C43   C44   S    
C31   H45   S    
C62   C63   S    
C3    C9    A    
O26   Zn1   S    
C44   H24   S    
C47   C48   S    
C51   H39   S    
C23   C34   A    
C73   N2    A    
C25   O3    A    
C50   C51   S    
C34   C45   A    
C51   H40   S    
C4    O27   A    
C2    C56   A    
C61   C72   S    
C4    C6    S    
C41   H18   S    
C54   H48   S    
C58   H53   S    
C65   O19   D    
C22   C24   S    
C37   H9    S    
C26   N1    A    
C58   O16   S    
C70   H75   S    
C42   C43   S    
O3    Zn2   S    
C60   H57   S    
C52   C53   S    
C49   H36   S    
N3    Zn1   S    
C3    O18   S    
C15   C17   A    
C46   H27   S    
C46   C47   S    
C1    O1    A    
C38   H11   S    
C31   H34   S    
C31   C32   S    
C61   O17   D    
C14   H12   S    
C3    C5    A    
C11   H1    S    
C30   C72   A    
C1    O25   A    
C53   H46   S    
C23   C55   S    
C6    C7    A    
C56   C67   A    
C20   O9    S    
C26   O4    S    
C21   O10   S    
C40   H17   S    
C63   H63   S    
C62   H61   S    
C8    C68   S    
C59   H55   S    
C36   H5    S    
C32   C33   S    
C7    C66   S    
C65   H69   S    
C11   C13   A    
C40   H15   S    
C71   H76   S    
C67   O16   S    
C16   C19   S    
C62   O18   S    
N3    O13   S    
C50   H38   S    
C35   H4    S    
C68   H71   S    
C18   C20   S    
C4    O26   A    
C69   C70   S    
C10   C11   A    
C34   C73   A    
C12   O5    S    
C63   C64   S    
C42   O9    S    
C20   C21   D    
C9    N2    S    
C58   H52   S    
C36   C37   S    
C49   C50   S    
C27   C28   A    
C71   H79   S    
C14   C15   A    
C16   O29   A    
C70   H74   S    
C39   H13   S    
C66   O20   D    
O25   Zn2   S    
O29   Zn2   S    
C64   H66   S    
C69   O22   S    
C19   C41   S    
C57   H51   S    
C26   C30   A    
C68   O21   D    
