data_mof_unit_23776.cif
_audit_creation_date              2012-12-10T18:51:31-0500
_audit_creation_method            fapswitch 2.2
_symmetry_space_group_name_H-M    P1
_symmetry_Int_Tables_number       1
_space_group_crystal_system       triclinic
_cell_length_a                    10.703627
_cell_length_b                    9.850838
_cell_length_c                    10.550863
_cell_angle_alpha                 90.663533
_cell_angle_beta                  90.043427
_cell_angle_gamma                 90.037584
_cell_volume                      1112.40461789

loop_
_atom_site_label
_atom_site_type_symbol
_atom_type_description
_atom_site_fract_x
_atom_site_fract_y
_atom_site_fract_z
_atom_type_partial_charge
C1    C     C_R   0.872509 0.500079 0.500224 -0.006490
C2    C     C_R   0.127491 0.499921 0.499776 -0.006490
C3    C     C_R   0.259932 0.499964 0.499839 0.866764
C4    C     C_R   0.740068 0.500036 0.500161 0.866765
C5    C     C_R   0.499981 0.499079 0.257671 0.906987
C6    C     C_R   0.500019 0.500921 0.742329 0.906988
C7    C     C_3   0.397576 0.559497 0.042895 0.108900
C8    C     C_3   0.602424 0.440503 0.957105 0.108898
C9    C     C_3   0.497590 0.628113 0.963323 0.113314
C10   C     C_3   0.502410 0.371887 0.036677 0.113313
C11   C     C_3   0.396534 0.432500 0.955685 -0.289108
C12   C     C_3   0.603466 0.567500 0.044315 -0.289110
C13   C     C_3   0.499071 0.502662 0.876393 -0.055979
C14   C     C_3   0.500929 0.497338 0.123607 -0.055980
C15   C     C_R   0.577138 0.072950 0.579265 -0.074402
C16   C     C_R   0.422861 0.927050 0.420734 -0.074402
C17   C     C_R   0.422858 0.070882 0.420746 -0.069324
C18   C     C_R   0.577142 0.929118 0.579254 -0.069324
C19   C     C_R   0.063962 0.382282 0.534754 -0.202585
C20   C     C_R   0.936038 0.617718 0.465246 -0.202585
C21   C     C_R   0.935946 0.382379 0.535036 -0.186175
C22   C     C_R   0.064054 0.617621 0.464963 -0.186176
H1    H     H_    0.638870 0.128211 0.642632 0.116836
H2    H     H_    0.361130 0.871789 0.357368 0.116836
H3    H     H_    0.361096 0.124497 0.357436 0.121170
H4    H     H_    0.638904 0.875503 0.642564 0.121170
H5    H     H_    0.313120 0.378665 0.917740 0.151871
H6    H     H_    0.686880 0.621335 0.082260 0.151871
H7    H     H_    0.112874 0.291145 0.562845 0.155688
H8    H     H_    0.887126 0.708855 0.437155 0.155688
H9    H     H_    0.886960 0.291311 0.563339 0.151634
H10   H     H_    0.113040 0.708689 0.436661 0.151634
N1    N     N_R   0.500000 0.857200 0.500000 -0.078070
N2    N     N_R   0.500000 0.142800 0.500000 -0.078070
O1    O     O_R   0.316770 0.614620 0.499990 -0.625908
O2    O     O_R   0.683230 0.385380 0.500010 -0.625908
O3    O     O_R   0.683230 0.614620 0.500010 -0.631442
O4    O     O_R   0.316770 0.385380 0.499990 -0.631442
O5    O     O_R   0.499970 0.614650 0.313950 -0.631875
O6    O     O_R   0.500030 0.385350 0.686050 -0.631873
O7    O     O_R   0.500030 0.614650 0.686050 -0.611301
O8    O     O_R   0.499970 0.385350 0.313950 -0.611299
Zn1   Zn    Zn3+2 0.500000 0.653120 0.500000 0.947353
Zn2   Zn    Zn3+2 0.500000 0.346880 0.500000 0.947354
N3    N     N_3   0.286332 0.625372 0.093878 -0.464621
H11   H     H_    0.234682 0.660656 0.016925 0.193604
H12   H     H_    0.315437 0.710891 0.145481 0.180353
N4    N     N_3   0.713667 0.374628 0.906122 -0.464625
H13   H     H_    0.765322 0.339354 0.983074 0.193605
H14   H     H_    0.684565 0.289106 0.854524 0.180354
N5    N     N_3   0.491530 0.768255 0.921171 -0.445005
H15   H     H_    0.488228 0.830074 0.002255 0.171334
H16   H     H_    0.576027 0.789710 0.876065 0.186476
N6    N     N_3   0.508469 0.231745 0.078831 -0.445005
H17   H     H_    0.511772 0.169929 0.997746 0.171336
H18   H     H_    0.423971 0.210290 0.123935 0.186476

loop_
_geom_bond_atom_site_label_1
_geom_bond_atom_site_label_2
_ccdc_geom_bond_type
O3    Zn1   S    
C15   C18   A    
C17   N2    A    
C5    O8    A    
C8    N4    S    
C1    C21   A    
C8    C13   S    
C11   H5    S    
C16   N1    A    
O7    Zn1   S    
C22   H10   S    
C15   N2    A    
C18   H4    S    
C3    O1    A    
C8    C12   S    
C1    C4    S    
C17   H3    S    
O1    Zn1   S    
C15   H1    S    
C2    C3    S    
C16   H2    S    
C20   H8    S    
C2    C22   A    
C4    O3    A    
C6    C13   S    
C7    C11   S    
C21   H9    S    
C5    C14   S    
O8    Zn2   S    
C12   H6    S    
C7    N3    S    
N4    H14   S    
N4    H13   S    
C19   C21   A    
C12   C14   S    
O4    Zn2   S    
N6    H18   S    
C10   C11   S    
C5    O5    A    
C10   N6    S    
C18   N1    A    
C6    O6    A    
O2    Zn2   S    
C9    C12   S    
O6    Zn2   S    
N5    H15   S    
C19   H7    S    
C9    N5    S    
C11   C13   S    
N2    Zn2   S    
C4    O2    A    
C8    C10   S    
C10   C14   S    
N3    H12   S    
C7    C9    S    
C9    C13   S    
N6    H17   S    
C1    C20   A    
O5    Zn1   S    
C2    C19   A    
N3    H11   S    
C7    C14   S    
C3    O4    A    
C20   C22   A    
C16   C17   A    
N5    H16   S    
C6    O7    A    
N1    Zn1   S    
