data_mof_unit_38240.cif
_audit_creation_date              2012-10-26T18:47:59-0400
_audit_creation_method            fapswitch 2.2
_symmetry_space_group_name_H-M    P1
_symmetry_Int_Tables_number       1
_space_group_crystal_system       triclinic
_cell_length_a                    15.862725
_cell_length_b                    8.693666
_cell_length_c                    7.583327
_cell_angle_alpha                 102.280189
_cell_angle_beta                  96.34878
_cell_angle_gamma                 94.1502
_cell_volume                      1010.62221624

loop_
_atom_site_label
_atom_site_type_symbol
_atom_type_description
_atom_site_fract_x
_atom_site_fract_y
_atom_site_fract_z
_atom_type_partial_charge
C1    C     C_R   0.493314 0.200480 0.455236 0.564734
C2    C     C_2   0.513796 0.967289 0.567850 0.394691
C3    C     C_R   0.340518 0.498872 0.498733 0.526140
C4    C     C_R   0.503178 0.799523 0.545682 0.581867
C5    C     C_R   0.659367 0.499559 0.501024 0.552237
C6    C     C_3   0.045445 0.324818 0.543310 0.570998
C7    C     C_3   0.037145 0.488272 0.296955 0.209057
C8    C     C_3   0.937518 0.473878 0.292041 0.393091
C9    C     C_1   0.748804 0.496218 0.502715 0.179705
C10   C     C_3   0.081771 0.478608 0.487483 -0.121756
C11   C     C_3   0.949218 0.344920 0.577156 0.500083
C12   C     C_3   0.915744 0.485892 0.492282 -0.120356
C13   C     C_3   0.964716 0.644037 0.606030 0.257051
C14   C     C_3   0.061811 0.628701 0.625507 0.223004
C15   C     C_1   0.824033 0.491724 0.500216 0.187601
C16   C     C_1   0.174535 0.486579 0.489923 0.158522
C17   C     C_1   0.250523 0.493493 0.494476 0.142899
C18   C     C_2   0.477616 0.033642 0.438727 0.371147
Cu1   Cu    Cu3+1 0.509300 0.517380 0.684380 1.306760
Cu2   Cu    Cu3+1 0.490700 0.482620 0.315620 1.290360
F1    F     F_    0.091567 0.317789 0.707839 -0.450518
F2    F     F_    0.951364 0.394018 0.764189 -0.448306
F3    F     F_    0.417294 0.950628 0.303653 -0.588121
F4    F     F_    0.567060 0.052741 0.715000 -0.577998
F5    F     F_    0.432786 0.329678 0.926289 -0.476088
F6    F     F_    0.062011 0.378150 0.156687 -0.438935
F7    F     F_    0.903754 0.328101 0.186741 -0.482262
F8    F     F_    0.092079 0.623548 0.802692 -0.479907
F9    F     F_    0.936677 0.689378 0.773435 -0.489370
H1    H     H_    0.952722 0.741460 0.536153 0.191569
H2    H     H_    0.061396 0.604453 0.275967 0.126212
H3    H     H_    0.094745 0.736741 0.597283 0.148547
H4    H     H_    0.927264 0.076921 0.759723 0.430969
H5    H     H_    0.558277 0.966028 0.086493 0.387644
H6    H     H_    0.170568 0.057397 0.247945 0.396137
H7    H     H_    0.999223 0.721171 0.075147 0.431635
N1    N     N_2   0.476670 0.456430 0.038530 0.161767
N2    N     N_2   0.523330 0.543570 0.961470 0.057886
O1    O     O_R   0.506050 0.286130 0.619770 -0.448103
O2    O     O_2   0.853189 0.095256 0.327591 -0.104335
O3    O     O_3   0.919410 0.028497 0.627656 -0.408644
O4    O     O_2   0.630734 0.732666 0.249946 -0.244943
O5    O     O_2   0.649504 0.751968 0.945787 -0.186924
O6    O     O_3   0.519617 0.868417 0.073561 -0.431364
O7    O     O_2   0.060994 0.008062 0.479996 -0.229364
O8    O     O_2   0.003412 0.104416 0.215441 -0.088179
O9    O     O_3   0.164189 0.161271 0.326983 -0.469957
O10   O     O_2   0.850844 0.540441 0.990877 -0.054327
O11   O     O_2   0.822292 0.698793 0.277201 -0.216438
O12   O     O_R   0.490330 0.256780 0.308370 -0.471701
O13   O     O_3   0.963819 0.767928 0.168062 -0.426547
O14   O     O_R   0.387300 0.514690 0.655770 -0.479399
O15   O     O_R   0.371580 0.485340 0.344370 -0.482020
O16   O     O_R   0.509670 0.743220 0.691630 -0.458657
O17   O     O_R   0.493950 0.713870 0.380230 -0.470554
O18   O     O_R   0.628420 0.514660 0.655630 -0.471290
O19   O     O_R   0.612700 0.485310 0.344230 -0.492884
O20   O     O_2   0.795312 0.198340 0.607905 -0.223724
S1    S     S_3+6 0.876269 0.164160 0.527553 0.204557
S2    S     S_3+6 0.583500 0.722401 0.065445 0.215354
S3    S     S_3+6 0.065522 0.143739 0.386508 0.191536
S4    S     S_3+6 0.890852 0.621304 0.179763 0.179209

loop_
_geom_bond_atom_site_label_1
_geom_bond_atom_site_label_2
_ccdc_geom_bond_type
Cu1   O18   S    
C6    C10   S    
C7    C10   S    
C2    C4    S    
C3    O14   A    
O9    S3    S    
N1    N2    D    
Cu1   N2    S    
C2    C18   D    
C1    O12   A    
C5    O18   A    
O10   S4    D    
Cu1   Cu2   S    
C12   C15   S    
C5    O19   A    
C8    C12   S    
H4    O3    S    
C9    C15   T    
H6    O9    S    
C7    C8    S    
O2    S1    D    
C10   C16   S    
C13   C14   S    
C5    C9    S    
Cu2   N1    S    
C3    O15   A    
O3    S1    S    
C1    C18   S    
C7    F6    S    
Cu1   O1    S    
O5    S2    D    
O6    S2    S    
Cu2   O17   S    
N2    S2    S    
C6    S3    S    
O7    S3    D    
C8    S4    S    
C3    C17   S    
C4    O16   A    
C4    O17   A    
C2    F4    S    
C11   S1    S    
O20   S1    D    
C7    H2    S    
C1    O1    A    
O8    S3    D    
O4    S2    D    
C18   F3    S    
C13   H1    S    
H7    O13   S    
H5    O6    S    
C12   C13   S    
Cu1   O16   S    
C10   C14   S    
C13   F9    S    
C6    C11   S    
C8    F7    S    
Cu2   O15   S    
Cu2   O12   S    
O11   S4    D    
C11   F2    S    
O13   S4    S    
C14   F8    S    
Cu2   O19   S    
C6    F1    S    
Cu1   O14   S    
C11   C12   S    
C14   H3    S    
C16   C17   T    
F5    N1    S    
