data_mof_unit_7947.cif
_audit_creation_date              2012-12-10T19:46:22-0500
_audit_creation_method            fapswitch 2.2
_symmetry_space_group_name_H-M    P1
_symmetry_Int_Tables_number       1
_space_group_crystal_system       triclinic
_cell_length_a                    10.894778
_cell_length_b                    10.849184
_cell_length_c                    10.43212
_cell_angle_alpha                 90.672087
_cell_angle_beta                  91.211958
_cell_angle_gamma                 89.665988
_cell_volume                      1232.69098378

loop_
_atom_site_label
_atom_site_type_symbol
_atom_type_description
_atom_site_fract_x
_atom_site_fract_y
_atom_site_fract_z
_atom_type_partial_charge
C1    C     C_R   0.504719 0.261671 0.499512 0.810419
C2    C     C_R   0.497351 0.738555 0.500898 0.820020
C3    C     C_R   0.872156 0.501830 0.504327 -0.078987
C4    C     C_R   0.128006 0.496185 0.496020 -0.075713
C5    C     C_R   0.942404 0.519605 0.618513 0.032927
C6    C     C_R   0.057824 0.477675 0.381884 0.024728
C7    C     C_R   0.714593 0.145978 0.092076 0.598409
C8    C     C_R   0.424538 0.837851 0.949208 0.615474
C9    C     C_R   0.626172 0.106762 0.177600 -0.190044
C10   C     C_R   0.471145 0.887752 0.837460 -0.255748
C11   C     C_R   0.648879 0.114566 0.310266 -0.017185
C12   C     C_R   0.401079 0.884871 0.722869 0.010604
C13   C     C_R   0.761480 0.161328 0.356391 -0.267610
C14   C     C_R   0.283994 0.831673 0.721228 -0.214355
C15   C     C_R   0.851282 0.196427 0.270725 -0.312753
C16   C     C_R   0.237258 0.782944 0.833614 -0.273038
C17   C     C_R   0.828252 0.188428 0.138674 0.583396
C18   C     C_R   0.307274 0.786346 0.947563 0.630797
C19   C     C_R   0.552589 0.931979 0.400858 -0.143126
C20   C     C_R   0.452618 0.068711 0.601529 -0.188886
C21   C     C_R   0.497249 0.872234 0.502670 -0.105030
C22   C     C_R   0.507211 0.128246 0.499443 -0.082894
C23   C     C_R   0.261489 0.497472 0.498399 0.801192
C24   C     C_R   0.738583 0.501625 0.501668 0.799492
C25   C     C_R   0.450108 0.941193 0.606391 0.060779
C26   C     C_R   0.563046 0.059511 0.401053 0.099978
C27   C     C_1   0.499549 0.499949 0.071951 0.170743
C28   C     C_1   0.499439 0.499976 0.928029 0.104188
C29   C     C_R   0.128427 0.492046 0.029344 -0.115773
C30   C     C_R   0.800772 0.468742 0.941245 -0.151035
C31   C     C_R   0.091091 0.526519 0.151938 -0.034876
C32   C     C_R   0.844116 0.446229 0.818048 -0.020088
C33   C     C_R   0.110330 0.446837 0.255540 0.025432
C34   C     C_R   0.889401 0.543643 0.745800 0.015960
C35   C     C_R   0.166635 0.331773 0.234581 -0.182030
C36   C     C_R   0.893555 0.662833 0.799425 -0.270844
C37   C     C_R   0.203224 0.296869 0.111160 0.490913
C38   C     C_R   0.852539 0.684620 0.924141 0.466068
C39   C     C_R   0.184190 0.377648 0.008808 -0.187831
C40   C     C_R   0.805742 0.587200 0.994674 -0.253999
C41   C     C_R   0.930915 0.483175 0.387654 -0.241315
C42   C     C_R   0.069268 0.517411 0.612387 -0.236253
Cu1   Cu    Cu3+1 0.500000 0.500000 0.625300 0.992573
Cu2   Cu    Cu3+1 0.500000 0.500000 0.374700 1.038479
H1    H     H_    0.210730 0.351468 0.912807 0.142513
H2    H     H_    0.773882 0.602483 0.091184 0.183724
H3    H     H_    0.781592 0.165705 0.458483 0.180249
H4    H     H_    0.228855 0.829052 0.633626 0.173935
H5    H     H_    0.939424 0.227769 0.307040 0.193681
H6    H     H_    0.146508 0.743348 0.832427 0.175252
H7    H     H_    0.595707 0.878604 0.325441 0.206475
H8    H     H_    0.412204 0.121838 0.678651 0.164532
H9    H     H_    0.112247 0.553201 0.949684 0.154962
H10   H     H_    0.762832 0.394567 0.995582 0.185075
H11   H     H_    0.045372 0.614403 0.165910 0.186941
H12   H     H_    0.841909 0.353408 0.778692 0.178555
H13   H     H_    0.178261 0.268449 0.313467 0.150876
H14   H     H_    0.930703 0.737850 0.744941 0.171872
H15   H     H_    0.877661 0.468784 0.299747 0.167501
H16   H     H_    0.122354 0.532648 0.700220 0.156028
H17   H     H_    0.541558 0.067571 0.140744 0.282837
H18   H     H_    0.561698 0.928552 0.839935 0.243749
N1    N     N_1   0.500010 0.499990 0.186410 -0.129260
N2    N     N_1   0.499990 0.500010 0.813590 -0.147300
O1    O     O_R   0.499990 0.319650 0.605810 -0.577664
O2    O     O_R   0.500010 0.680350 0.394190 -0.538374
O3    O     O_R   0.499990 0.319640 0.394190 -0.564899
O4    O     O_R   0.500010 0.680360 0.605810 -0.577805
O5    O     O_R   0.319640 0.500010 0.605810 -0.594516
O6    O     O_R   0.680360 0.499990 0.394190 -0.592255
O7    O     O_R   0.319650 0.500010 0.394190 -0.558711
O8    O     O_R   0.680350 0.499990 0.605810 -0.573284
S1    S     S_3+6 0.265798 0.149646 0.082326 0.019535
O9    O     O_2   0.311040 0.093501 0.205673 -0.276312
O10   O     O_2   0.168247 0.068248 0.023365 -0.194416
O11   O     O_3   0.382757 0.160683 0.980521 -0.553738
H19   H     H_    0.343666 0.162829 0.894047 0.340993
S2    S     S_3+6 0.864545 0.832410 0.993689 0.024434
O12   O     O_2   0.993717 0.849526 0.043921 -0.246030
O13   O     O_2   0.836686 0.928358 0.894402 -0.215203
O14   O     O_3   0.765843 0.846895 0.114953 -0.521836
H20   H     H_    0.811409 0.891741 0.183975 0.357578
F1    F     F_    0.916795 0.220125 0.056034 -0.627505
F2    F     F_    0.261251 0.740677 0.056797 -0.623421
F3    F     F_    0.691105 0.139683 0.964021 -0.608756
F4    F     F_    0.492895 0.839781 0.059279 -0.613165

loop_
_geom_bond_atom_site_label_1
_geom_bond_atom_site_label_2
_ccdc_geom_bond_type
C38   C40   A    
C5    C42   A    
Cu1   O8    S    
S1    O9    D    
C23   O5    A    
Cu2   O2    S    
O14   H20   S    
C24   O6    A    
C40   H2    S    
C30   H10   S    
C29   H9    S    
C9    H17   S    
C19   C21   A    
C16   H6    S    
C36   H14   S    
S2    O13   D    
C20   C25   A    
Cu2   O7    S    
C15   C17   A    
C19   C26   A    
C37   S1    S    
C33   C35   A    
Cu1   O4    S    
C7    C17   A    
C6    C41   A    
C18   F2    S    
C31   C33   A    
Cu2   O6    S    
C8    F4    S    
C39   H1    S    
C1    C22   S    
Cu1   O5    S    
S1    O10   D    
C3    C24   S    
C10   H18   S    
Cu1   N2    S    
Cu2   N1    S    
C37   C39   A    
C23   O7    A    
O11   H19   S    
C41   H15   S    
C4    C6    A    
C42   H16   S    
C13   H3    S    
C4    C23   S    
S2    O12   D    
C14   H4    S    
C38   S2    S    
C11   C26   S    
C2    O2    A    
C8    C18   A    
C17   F1    S    
C32   C34   A    
Cu1   Cu2   S    
C1    O1    A    
Cu1   O1    S    
C5    C34   S    
C29   C39   A    
C2    C21   S    
C30   C40   A    
C9    C11   A    
C10   C12   A    
C28   N2    T    
C8    C10   A    
C12   C14   A    
C13   C15   A    
S1    O11   S    
C14   C16   A    
C24   O8    A    
C7    C9    A    
C21   C25   A    
C3    C41   A    
C35   C37   A    
C20   C22   A    
C3    C5    A    
C20   H8    S    
C2    O4    A    
C6    C33   S    
C12   C25   S    
C35   H13   S    
C36   C38   A    
C29   C31   A    
C30   C32   A    
C11   C13   A    
S2    O14   S    
C7    F3    S    
C4    C42   A    
C1    O3    A    
C34   C36   A    
C15   H5    S    
C19   H7    S    
C16   C18   A    
C22   C26   A    
C27   C28   S    
C27   N1    T    
Cu2   O3    S    
C31   H11   S    
C32   H12   S    
