data_mof_unit_62611.cif
_audit_creation_date              2012-12-10T16:47:59-0500
_audit_creation_method            fapswitch 2.2
_symmetry_space_group_name_H-M    P1
_symmetry_Int_Tables_number       1
_space_group_crystal_system       triclinic
_cell_length_a                    18.973331
_cell_length_b                    19.148303
_cell_length_c                    18.462184
_cell_angle_alpha                 108.889091
_cell_angle_beta                  109.033571
_cell_angle_gamma                 110.483361
_cell_volume                      5162.95733638

loop_
_atom_site_label
_atom_site_type_symbol
_atom_type_description
_atom_site_fract_x
_atom_site_fract_y
_atom_site_fract_z
_atom_type_partial_charge
C1    C     C_R   0.389350 0.882230 0.008783 0.941646
C2    C     C_R   0.001861 0.384157 0.880046 0.928454
C3    C     C_R   0.118956 0.615898 0.995957 0.804736
C4    C     C_R   0.881127 0.378259 0.998060 0.807078
C5    C     C_2   0.953406 0.282681 0.728472 0.496204
C6    C     C_2   0.055024 0.726960 0.269271 0.495233
C7    C     C_2   0.015483 0.336755 0.813272 -0.511881
C8    C     C_2   0.988621 0.667071 0.187692 -0.522450
C9    C     C_2   0.975016 0.233703 0.669719 0.067026
C10   C     C_2   0.035811 0.775434 0.331433 0.069022
C11   C     C_2   0.997788 0.178841 0.688137 -0.095265
C12   C     C_R   0.610255 0.117623 0.990925 0.927833
C13   C     C_2   0.001117 0.822058 0.310246 -0.089049
C14   C     C_R   0.622662 0.004627 0.120114 0.810329
C15   C     C_R   0.377416 0.995577 0.879849 0.802402
C16   C     C_2   0.834379 0.020985 0.249982 0.432198
C17   C     C_2   0.166157 0.979105 0.750071 0.491358
C18   C     C_2   0.816486 0.970309 0.286637 -0.081037
C19   C     C_2   0.183151 0.030015 0.713558 -0.096444
C20   C     C_2   0.764293 0.014384 0.178610 0.105874
C21   C     C_2   0.237656 0.990200 0.824110 0.107947
C22   C     C_2   0.698457 0.018060 0.190434 0.195105
C23   C     C_2   0.348859 0.821519 0.035088 -0.097378
C24   C     C_2   0.300534 0.981203 0.809768 0.167839
C25   C     C_2   0.259398 0.674007 0.999691 0.101216
C26   C     C_2   0.747029 0.237726 0.914267 0.097861
C27   C     C_2   0.183167 0.671938 0.982725 0.157014
C28   C     C_2   0.817559 0.303267 0.992358 0.162073
C29   C     C_2   0.320199 0.736395 0.988437 0.501225
C30   C     C_2   0.687978 0.165743 0.916746 0.480910
C31   C     C_3   0.962949 0.238563 0.585654 -0.368037
C32   C     C_3   0.934884 0.302005 0.574609 -0.736923
C33   C     C_3   0.061592 0.778702 0.420680 -0.374201
C34   C     C_2   0.649003 0.179922 0.965559 -0.084367
C35   C     C_3   0.097972 0.720996 0.432891 -0.738060
C36   C     C_3   0.005041 0.169327 0.769855 -0.428867
C37   C     C_3   0.013728 0.093346 0.772333 -0.847988
C38   C     C_3   0.981735 0.826010 0.224163 -0.433248
C39   C     C_3   0.970839 0.901217 0.222773 -0.863277
C40   C     C_3   0.730101 0.886004 0.238625 -0.410683
C41   C     C_3   0.741505 0.808260 0.209021 -0.906322
C42   C     C_3   0.268104 0.115870 0.762710 -0.420314
C43   C     C_3   0.253525 0.191176 0.794166 -0.892572
C44   C     C_3   0.775049 0.011686 0.099822 -0.493155
C45   C     C_R   0.001848 0.117739 0.621754 0.942748
C46   C     C_3   0.798387 0.096969 0.100783 -0.650054
C47   C     C_3   0.239429 0.012044 0.912163 -0.427863
C48   C     C_3   0.157335 0.008537 0.911287 -0.851909
C49   C     C_3   0.283827 0.616284 0.029857 -0.428202
C50   C     C_3   0.367986 0.621764 0.035309 -0.862401
C51   C     C_3   0.727882 0.236580 0.826981 -0.438371
C52   C     C_3   0.650431 0.152925 0.745432 -0.831488
C53   C     C_3   0.345579 0.859268 0.119987 -0.420351
C54   C     C_3   0.435985 0.910515 0.200797 -0.881277
C55   C     C_3   0.639821 0.259396 0.993334 -0.409572
C56   C     C_R   0.997768 0.882450 0.377880 0.940489
C57   C     C_3   0.545534 0.235343 0.943153 -0.903201
C58   C     C_R   0.881413 0.992594 0.373281 0.924444
C59   C     C_R   0.118626 0.007020 0.626410 0.925032
C60   C     C_R   0.998932 0.616591 0.119927 0.943918
H1    H     H_    0.080948 0.348218 0.834124 0.132392
H2    H     H_    0.052038 0.653655 0.378572 0.246289
H3    H     H_    0.161641 0.744177 0.435518 0.294393
H4    H     H_    0.107789 0.722569 0.496210 0.252837
H5    H     H_    0.110667 0.845787 0.474390 0.220990
H6    H     H_    0.003365 0.758056 0.428538 0.221053
H7    H     H_    0.952117 0.031850 0.722800 0.280167
H8    H     H_    0.067408 0.092218 0.761108 0.236618
H9    H     H_    0.028365 0.099613 0.838231 0.243836
H10   H     H_    0.063807 0.227144 0.829459 0.215682
H11   H     H_    0.947382 0.163764 0.776409 0.231654
H12   H     H_    0.922825 0.652332 0.171229 0.132475
H13   H     H_    0.920617 0.903472 0.239889 0.238811
H14   H     H_    0.033205 0.962792 0.268995 0.277674
H15   H     H_    0.950056 0.893057 0.155523 0.244848
H16   H     H_    0.034783 0.829768 0.209311 0.230378
H17   H     H_    0.920374 0.766841 0.169323 0.215519
H18   H     H_    0.764657 0.806054 0.160742 0.255800
H19   H     H_    0.788101 0.809952 0.265615 0.282545
H20   H     H_    0.678181 0.748633 0.176502 0.258323
H21   H     H_    0.702138 0.885062 0.282880 0.246911
H22   H     H_    0.680737 0.876673 0.178261 0.207314
H23   H     H_    0.953444 0.058865 0.282542 0.331127
H24   H     H_    0.206719 0.189804 0.737975 0.278966
H25   H     H_    0.228747 0.189211 0.840738 0.254424
H26   H     H_    0.315883 0.252420 0.828977 0.258713
H27   H     H_    0.318787 0.124949 0.821961 0.209885
H28   H     H_    0.295841 0.119915 0.718686 0.243480
H29   H     H_    0.748890 0.114569 0.102025 0.239216
H30   H     H_    0.862058 0.148719 0.159842 0.271756
H31   H     H_    0.802680 0.091924 0.040914 0.269267
H32   H     H_    0.828454 0.999172 0.101764 0.217283
H33   H     H_    0.716855 0.957924 0.036697 0.230943
H34   H     H_    0.044992 0.929355 0.711258 0.329746
H35   H     H_    0.143868 0.052683 0.890066 0.245341
H36   H     H_    0.101146 0.942115 0.867000 0.293331
H37   H     H_    0.166485 0.028881 0.978812 0.250751
H38   H     H_    0.249885 0.966789 0.933521 0.235740
H39   H     H_    0.293960 0.078346 0.962141 0.223770
H40   H     H_    0.650065 0.032799 0.269074 0.340630
H41   H     H_    0.342927 0.956724 0.726713 0.343655
H42   H     H_    0.361547 0.597662 0.968789 0.289694
H43   H     H_    0.423193 0.688774 0.079982 0.246322
H44   H     H_    0.382044 0.581020 0.062072 0.249245
H45   H     H_    0.868126 0.280202 0.563929 0.295916
H46   H     H_    0.292128 0.634467 0.096900 0.227985
H47   H     H_    0.230834 0.548381 0.983711 0.225310
H48   H     H_    0.663045 0.099231 0.737163 0.285462
H49   H     H_    0.590704 0.137959 0.750502 0.243985
H50   H     H_    0.639905 0.159799 0.685923 0.259299
H51   H     H_    0.714461 0.288812 0.828176 0.228060
H52   H     H_    0.785781 0.248120 0.819434 0.208332
H53   H     H_    0.111105 0.719856 0.946761 0.350092
H54   H     H_    0.883331 0.350475 0.119595 0.347251
H55   H     H_    0.399495 0.731802 0.946923 0.326366
H56   H     H_    0.980438 0.367047 0.633293 0.254290
H57   H     H_    0.625518 0.044666 0.838954 0.333093
H58   H     H_    0.479530 0.966404 0.199877 0.274238
H59   H     H_    0.431553 0.934655 0.261584 0.263333
H60   H     H_    0.464483 0.868952 0.202913 0.251103
H61   H     H_    0.317759 0.901368 0.117841 0.240691
H62   H     H_    0.304435 0.810193 0.130211 0.210522
H63   H     H_    0.520582 0.201718 0.870956 0.252402
H64   H     H_    0.504110 0.193364 0.959640 0.278371
H65   H     H_    0.541192 0.294336 0.961333 0.258046
H66   H     H_    0.663659 0.291368 0.065367 0.243139
H67   H     H_    0.935075 0.305811 0.515907 0.244643
H68   H     H_    0.677943 0.308302 0.980887 0.209795
H69   H     H_    0.852409 0.266877 0.741738 0.332888
H70   H     H_    0.149340 0.741480 0.243054 0.334111
H71   H     H_    0.025623 0.258995 0.586093 0.222514
H72   H     H_    0.914034 0.173983 0.527069 0.223131
O1    O     O_R   0.409560 0.858470 0.948950 -0.596955
O2    O     O_R   0.590460 0.039390 0.948920 -0.617517
O3    O     O_R   0.590480 0.948940 0.039400 -0.644340
O4    O     O_R   0.409520 0.051060 0.960600 -0.659359
O5    O     O_R   0.590470 0.051080 0.141520 -0.614478
O6    O     O_R   0.409530 0.948920 0.858480 -0.600031
O7    O     O_R   0.051050 0.141530 0.590440 -0.652199
O8    O     O_R   0.948950 0.858470 0.409560 -0.648420
O9    O     O_R   0.948920 0.039390 0.590460 -0.607751
O10   O     O_R   0.051080 0.960610 0.409540 -0.610358
O11   O     O_R   0.960590 0.051060 0.409530 -0.613255
O12   O     O_R   0.590440 0.141530 0.051050 -0.609722
O13   O     O_R   0.039410 0.948940 0.590470 -0.616627
O14   O     O_R   0.858460 0.948920 0.409550 -0.615747
O15   O     O_R   0.141540 0.051080 0.590450 -0.616605
O16   O     O_R   0.051060 0.590470 0.141520 -0.594272
O17   O     O_R   0.948940 0.409530 0.858480 -0.598558
O18   O     O_3   0.917036 0.085502 0.281856 -0.744985
O19   O     O_3   0.085918 0.908132 0.712656 -0.736303
O20   O     O_3   0.705490 0.039192 0.272826 -0.780527
O21   O     O_3   0.288912 0.952865 0.725101 -0.770921
O22   O     O_3   0.164054 0.721283 0.947526 -0.765196
O23   O     O_R   0.948910 0.590450 0.039380 -0.615641
O24   O     O_3   0.833481 0.295487 0.067463 -0.778312
O25   O     O_3   0.335651 0.703244 0.920879 -0.735034
O26   O     O_3   0.687060 0.089845 0.881337 -0.758349
O27   O     O_3   0.868095 0.262892 0.695211 -0.747238
O28   O     O_3   0.141151 0.752407 0.295061 -0.750540
O29   O     O_R   0.051090 0.409550 0.960620 -0.619993
O30   O     O_R   0.141530 0.590470 0.051060 -0.653055
O31   O     O_R   0.858470 0.409530 0.948940 -0.649488
O32   O     O_R   0.039370 0.590450 0.948920 -0.602766
O33   O     O_R   0.960630 0.409550 0.051080 -0.601789
O34   O     O_R   0.409540 0.960610 0.051080 -0.624484
Zn1   Zn    Zn3+2 0.500010 0.931800 0.931810 0.976702
Zn2   Zn    Zn3+2 0.499990 0.068200 0.068190 0.946503
Zn3   Zn    Zn3+2 0.068190 0.068200 0.499990 0.956132
Zn4   Zn    Zn3+2 0.931810 0.931800 0.500010 0.955113
Zn5   Zn    Zn3+2 0.068210 0.500010 0.068200 0.969022
Zn6   Zn    Zn3+2 0.931790 0.499990 0.931800 0.972173

loop_
_geom_bond_atom_site_label_1
_geom_bond_atom_site_label_2
_ccdc_geom_bond_type
O33   Zn5   S    
C45   O9    A    
C50   H44   S    
C51   H52   S    
C48   H35   S    
C37   H9    S    
O17   Zn6   S    
C2    C7    S    
H53   O22   S    
C41   H20   S    
C33   H5    S    
C49   H47   S    
C46   H29   S    
C38   H16   S    
C53   C54   S    
H40   O20   S    
C48   H37   S    
C47   H38   S    
H55   O25   S    
C23   C29   D    
C32   H67   S    
C36   C37   S    
C54   H60   S    
C53   H62   S    
O1    Zn1   S    
C15   O6    A    
C57   H65   S    
C38   C39   S    
C56   O8    A    
C14   O3    A    
C37   H8    S    
C45   O7    A    
O16   Zn5   S    
C47   H39   S    
C4    O33   A    
H70   O28   S    
C39   H14   S    
C18   C40   S    
C7    H1    S    
C31   H71   S    
C44   H33   S    
C3    O30   A    
C17   C19   D    
C58   O11   A    
C18   C58   S    
O30   Zn5   S    
C47   C48   S    
C44   C46   S    
C5    O27   S    
O8    Zn4   S    
C55   H66   S    
C35   H4    S    
C52   H50   S    
C10   C33   S    
C44   H32   S    
C36   H11   S    
H23   O18   S    
C56   O10   A    
C2    O17   A    
C50   H43   S    
C12   O2    A    
C54   H59   S    
O34   Zn2   S    
C43   H24   S    
C17   O19   S    
C1    O1    A    
O23   Zn6   S    
C2    O29   A    
H54   O24   S    
C20   C44   S    
C36   H10   S    
C33   H6    S    
C23   C53   S    
C25   C29   S    
C22   O20   S    
C8    H12   S    
C30   C34   D    
C51   C52   S    
C43   H25   S    
C40   H22   S    
O11   Zn3   S    
C41   H18   S    
C5    C7    D    
C6    C8    D    
C46   H31   S    
O4    Zn2   S    
C19   C59   S    
H34   O19   S    
C17   C21   S    
C12   O12   A    
O6    Zn1   S    
C11   C36   S    
C5    C9    S    
C31   H72   S    
C57   H63   S    
C50   H42   S    
C6    O28   S    
C31   C32   S    
C14   O5    A    
H41   O21   S    
C16   C20   S    
C4    O31   A    
C55   C57   S    
C32   H56   S    
O31   Zn6   S    
C9    C11   D    
C13   C38   S    
C3    O32   A    
O10   Zn3   S    
C46   H30   S    
C59   O13   A    
C15   C24   S    
O12   Zn2   S    
C1    C23   S    
C39   H15   S    
C32   H45   S    
O14   Zn4   S    
O32   Zn6   S    
C42   H28   S    
C42   C43   S    
C12   C34   S    
H69   O27   S    
C24   O21   S    
C30   O26   S    
O13   Zn4   S    
C40   C41   S    
C51   H51   S    
C48   H36   S    
H57   O26   S    
C43   H26   S    
C40   H21   S    
C20   C22   D    
C10   C13   D    
C41   H19   S    
C29   O25   S    
C58   O14   A    
C26   C30   S    
C49   H46   S    
C15   O4    A    
C38   H17   S    
C25   C27   D    
C26   C28   D    
C13   C56   S    
C54   H58   S    
C60   O23   A    
C53   H61   S    
C26   C51   S    
C8    C60   S    
C57   H64   S    
C19   C42   S    
C14   C22   S    
C52   H49   S    
C27   O22   S    
C37   H7    S    
C3    C27   S    
O9    Zn4   S    
C33   C35   S    
O7    Zn3   S    
C35   H2    S    
C39   H13   S    
C25   C49   S    
C11   C45   S    
C6    C10   S    
C9    C31   S    
O29   Zn5   S    
C34   C55   S    
C55   H68   S    
C52   H48   S    
C16   C18   D    
C49   C50   S    
C4    C28   S    
C21   C24   D    
C28   O24   S    
O3    Zn1   S    
O2    Zn1   S    
C35   H3    S    
C42   H27   S    
C60   O16   A    
C16   O18   S    
O5    Zn2   S    
O15   Zn3   S    
C1    O34   A    
C21   C47   S    
C59   O15   A    
