data_mof_unit_60858.cif
_audit_creation_date              2013-03-05T16:12:51-0500
_audit_creation_method            fapswitch 2.2
_symmetry_space_group_name_H-M    P1
_symmetry_Int_Tables_number       1
_space_group_crystal_system       triclinic
_cell_length_a                    37.157542
_cell_length_b                    30.225812
_cell_length_c                    21.554538
_cell_angle_alpha                 90.113152
_cell_angle_beta                  54.687682
_cell_angle_gamma                 90.163332
_cell_volume                      19754.1856353

loop_
_atom_site_label
_atom_site_type_symbol
_atom_site_description
_atom_site_fract_x
_atom_site_fract_y
_atom_site_fract_z
_atom_type_partial_charge
O1    O     O_R   0.934520 0.536930 0.565470 -0.606131
O2    O     O_R   0.065480 0.536930 0.434530 -0.607423
O3    O     O_R   0.434520 0.036930 0.565470 -0.610844
O4    O     O_R   0.565480 0.036930 0.434530 -0.600065
O5    O     O_R   0.934480 0.463010 0.565510 -0.573208
O6    O     O_R   0.065520 0.463010 0.434490 -0.566664
O7    O     O_R   0.434480 0.963010 0.565510 -0.556924
O8    O     O_R   0.565520 0.963010 0.434490 -0.584180
C1    C     C_R   0.913562 0.499808 0.586325 1.015431
C2    C     C_R   0.086463 0.499887 0.413769 1.013420
C3    C     C_R   0.413546 0.999825 0.586076 1.013006
C4    C     C_R   0.586328 0.999960 0.412073 1.013547
O9    O     O_R   0.999990 0.536930 0.407410 -0.551217
O10   O     O_R   0.000010 0.536930 0.592590 -0.550601
O11   O     O_R   0.499990 0.036930 0.407410 -0.536361
O12   O     O_R   0.500010 0.036930 0.592590 -0.553219
O13   O     O_R   0.999940 0.463010 0.407450 -0.606615
O14   O     O_R   0.000060 0.463010 0.592550 -0.603027
O15   O     O_R   0.499940 0.963010 0.407450 -0.571529
O16   O     O_R   0.500060 0.963010 0.592550 -0.607549
C5    C     C_R   0.996740 0.500149 0.382060 0.984329
C6    C     C_R   0.003271 0.500231 0.617932 0.984253
C7    C     C_R   0.499572 0.000006 0.378960 0.963445
C8    C     C_R   0.503111 0.000222 0.618112 0.987086
Zn1   Zn    Zn3+2 1.000000 0.549330 0.500000 1.216311
Zn2   Zn    Zn3+2 0.500000 0.049330 0.500000 1.210148
Zn3   Zn    Zn3+2 1.000000 0.450610 0.500000 1.221422
Zn4   Zn    Zn3+2 0.500000 0.950610 0.500000 1.237092
C9    C     C_3   0.973634 0.545177 0.309237 0.467656
C10   C     C_3   0.028492 0.544415 0.688739 0.467280
C11   C     C_3   0.450436 0.015132 0.334854 0.433666
C12   C     C_3   0.525035 0.045891 0.692471 0.472016
C13   C     C_3   0.972319 0.539278 0.238624 -0.551801
C14   C     C_3   0.029535 0.538484 0.759635 -0.549530
C15   C     C_3   0.452113 0.009431 0.261283 -0.516022
C16   C     C_3   0.526594 0.039953 0.762772 -0.554047
H1    H     H_    0.937764 0.533709 0.257331 0.257717
H2    H     H_    0.063797 0.531408 0.741124 0.258999
H3    H     H_    0.432080 0.980202 0.267038 0.259158
H4    H     H_    0.561296 0.035376 0.743809 0.256969
H5    H     H_    0.982897 0.569773 0.203373 0.205890
H6    H     H_    0.020460 0.569399 0.793596 0.206203
H7    H     H_    0.436341 0.037706 0.252841 0.228925
H8    H     H_    0.515296 0.070106 0.798992 0.205839
H9    H     H_    0.060739 0.535690 0.142978 0.157342
H10   H     H_    0.940970 0.538681 0.855771 0.154441
H11   H     H_    0.513494 0.071421 0.188817 0.140440
H12   H     H_    0.438322 0.033841 0.858202 0.158819
C17   C     C_3   0.046440 0.498494 0.242828 0.484708
C18   C     C_3   0.953534 0.501162 0.757198 0.484348
C19   C     C_3   0.534253 0.035681 0.252391 0.515178
C20   C     C_3   0.453439 0.997041 0.757324 0.482320
C21   C     C_3   0.971039 0.459053 0.313116 0.047194
C22   C     C_3   0.027062 0.458291 0.688747 0.047873
C23   C     C_3   0.511043 0.953535 0.271782 0.063536
C24   C     C_3   0.529769 0.959834 0.685774 0.048436
C25   C     C_3   0.996387 0.501050 0.314067 -0.319945
C26   C     C_3   0.003671 0.501303 0.685886 -0.322476
C27   C     C_3   0.498089 0.000719 0.312076 -0.332281
C28   C     C_3   0.503412 0.001132 0.686160 -0.318523
H13   H     H_    0.985335 0.428419 0.318597 0.207231
H14   H     H_    0.011512 0.428232 0.684317 0.209260
H15   H     H_    0.543485 0.944021 0.259198 0.211216
H16   H     H_    0.516135 0.928836 0.679472 0.205970
C29   C     C_3   0.000058 0.499003 0.189451 -0.083396
C30   C     C_3   0.999894 0.499447 0.810591 -0.084379
C31   C     C_3   0.500116 0.002051 0.189046 -0.091293
C32   C     C_3   0.499884 0.998879 0.810621 -0.082929
C33   C     C_3   0.047795 0.502438 0.169190 0.174888
C34   C     C_3   0.952361 0.504954 0.830685 0.174293
C35   C     C_3   0.530248 0.039720 0.184291 0.146904
C36   C     C_3   0.452056 0.000963 0.831041 0.175386
C37   C     C_3   0.977711 0.456182 0.235327 -0.446987
C38   C     C_3   0.020119 0.455688 0.766702 -0.444435
C39   C     C_3   0.516908 0.956749 0.195103 -0.445318
C40   C     C_3   0.523250 0.956725 0.763394 -0.447599
H17   H     H_    0.946203 0.449992 0.241887 0.239101
H18   H     H_    0.051238 0.448078 0.760618 0.238797
H19   H     H_    0.499398 0.929457 0.188147 0.201474
H20   H     H_    0.554937 0.951412 0.756517 0.239983
H21   H     H_    0.998892 0.427300 0.202728 0.233123
H22   H     H_    0.997519 0.427789 0.800459 0.233899
H23   H     H_    0.552281 0.952671 0.147489 0.253091
H24   H     H_    0.502792 0.927240 0.795124 0.232137
C41   C     C_R   0.794704 0.461828 0.706847 0.407335
C42   C     C_R   0.205600 0.463820 0.283391 0.403801
C43   C     C_R   0.294474 0.962889 0.713575 0.403457
C44   C     C_R   0.704324 0.964855 0.268824 0.410038
C45   C     C_R   0.840572 0.460061 0.660034 0.322813
C46   C     C_R   0.159723 0.461226 0.331562 0.318377
C47   C     C_R   0.340335 0.960601 0.665095 0.320613
C48   C     C_R   0.658240 0.964330 0.312967 0.302221
C49   C     C_R   0.865351 0.499728 0.633743 -0.266507
C50   C     C_R   0.134722 0.500055 0.366553 -0.270404
C51   C     C_R   0.365306 0.999825 0.632924 -0.271670
C52   C     C_R   0.634400 0.000063 0.362246 -0.255780
C53   C     C_R   0.843765 0.540560 0.651805 -0.217364
C54   C     C_R   0.156116 0.540533 0.355404 -0.207819
C55   C     C_R   0.343902 0.040456 0.646564 -0.225020
C56   C     C_R   0.656574 0.036209 0.366063 -0.193852
H25   H     H_    0.862530 0.571029 0.630454 0.240286
H26   H     H_    0.137160 0.570214 0.383185 0.242748
H27   H     H_    0.362825 0.070482 0.620804 0.242200
H28   H     H_    0.638069 0.063436 0.404245 0.247758
C57   C     C_R   0.798109 0.542915 0.694971 0.328899
C58   C     C_R   0.201802 0.543340 0.311040 0.326940
C59   C     C_R   0.298224 0.043055 0.691012 0.331073
C60   C     C_R   0.702312 0.037104 0.323784 0.328836
C61   C     C_R   0.773498 0.503396 0.723619 -0.169588
C62   C     C_R   0.226606 0.504853 0.274330 -0.174746
C63   C     C_R   0.273447 0.004145 0.725365 -0.172286
C64   C     C_R   0.726305 0.001259 0.274892 -0.167377
C65   C     C_R   0.703286 0.521690 0.847295 0.465102
C66   C     C_R   0.297426 0.526853 0.154085 0.464842
C67   C     C_R   0.202857 0.025090 0.846675 0.465200
C68   C     C_R   0.796961 0.029286 0.160479 0.467322
C69   C     C_R   0.657500 0.523808 0.892509 0.455460
C70   C     C_R   0.343287 0.527944 0.109237 0.456172
C71   C     C_R   0.157025 0.026622 0.891470 0.455052
C72   C     C_R   0.842867 0.030705 0.115467 0.459593
C73   C     C_R   0.633897 0.505263 0.865718 -0.313443
C74   C     C_R   0.366248 0.505728 0.134086 -0.310982
C75   C     C_R   0.133813 0.005507 0.865931 -0.312026
C76   C     C_R   0.866189 0.003545 0.134159 -0.303307
C77   C     C_R   0.656320 0.489238 0.791317 -0.289154
C78   C     C_R   0.343323 0.486600 0.206313 -0.288836
C79   C     C_R   0.156544 0.987164 0.793089 -0.289411
C80   C     C_R   0.843663 0.977628 0.199836 -0.283185
H29   H     H_    0.638122 0.475958 0.770336 0.229185
H30   H     H_    0.361183 0.470480 0.225670 0.226544
H31   H     H_    0.138540 0.971884 0.773173 0.227323
H32   H     H_    0.862013 0.957379 0.213960 0.219855
C81   C     C_R   0.702010 0.490328 0.743058 0.336241
C82   C     C_R   0.297619 0.487988 0.254218 0.341302
C83   C     C_R   0.202254 0.988341 0.745197 0.339599
C84   C     C_R   0.797852 0.977385 0.247573 0.341502
C85   C     C_R   0.725598 0.505569 0.771857 -0.202385
C86   C     C_R   0.274544 0.507234 0.227208 -0.199679
C87   C     C_R   0.225524 0.006398 0.772864 -0.200757
C88   C     C_R   0.774375 0.003005 0.227333 -0.209157
O17   O     O_R   0.963000 0.565420 0.036990 -0.622372
O18   O     O_R   0.037000 0.565420 0.963010 -0.622219
O19   O     O_R   0.463000 0.065420 0.036990 -0.624629
O20   O     O_R   0.537000 0.065420 0.963010 -0.615374
C89   C     C_R   0.000039 0.586195 0.999954 0.846186
C90   C     C_R   0.500040 0.086197 0.999935 0.845243
O21   O     O_R   0.963020 0.499940 0.129580 -0.632166
O22   O     O_R   0.036980 0.499940 0.870420 -0.631270
O23   O     O_R   0.463020 0.999940 0.129580 -0.640874
O24   O     O_R   0.536980 0.999940 0.870420 -0.631669
O25   O     O_R   0.036940 0.500000 0.055660 -0.571379
O26   O     O_R   0.963060 0.500000 0.944340 -0.569657
O27   O     O_R   0.536940 0.000000 0.055660 -0.548934
O28   O     O_R   0.463060 0.000000 0.944340 -0.573326
C91   C     C_R   0.000147 0.498991 0.121183 0.920153
C92   C     C_R   0.999838 0.499326 0.878818 0.916666
C93   C     C_R   0.500014 0.001593 0.121180 0.917420
C94   C     C_R   0.499842 0.998855 0.878833 0.921583
Zn5   Zn    Zn3+2 0.950610 0.499940 0.049380 1.066434
Zn6   Zn    Zn3+2 0.049390 0.499940 0.950620 1.067917
Zn7   Zn    Zn3+2 0.450610 0.999940 0.049380 1.062655
Zn8   Zn    Zn3+2 0.549390 0.999940 0.950620 1.078466
O29   O     O_R   0.963020 0.434470 0.036970 -0.585208
O30   O     O_R   0.036980 0.434470 0.963030 -0.588604
O31   O     O_R   0.463020 0.934470 0.036970 -0.583324
O32   O     O_R   0.536980 0.934470 0.963030 -0.596623
C95   C     C_R   0.999978 0.413838 0.999922 0.885616
C96   C     C_R   0.499949 0.913841 0.000143 0.878513
O33   O     O_R   0.499930 0.434510 0.947790 -0.615926
O34   O     O_R   0.500070 0.434510 0.052210 -0.616283
O35   O     O_R   0.999930 0.934510 0.947790 -0.616354
O36   O     O_R   0.000070 0.934510 0.052210 -0.616472
C97   C     C_R   0.500010 0.413778 0.999938 0.865222
C98   C     C_R   0.000001 0.913778 0.999947 0.864010
O37   O     O_R   0.565440 0.499980 0.882290 -0.607262
O38   O     O_R   0.434560 0.499980 0.117710 -0.605236
O39   O     O_R   0.065440 0.999980 0.882290 -0.606424
O40   O     O_R   0.934560 0.999980 0.117710 -0.600250
O41   O     O_R   0.565450 0.499990 0.986830 -0.598940
O42   O     O_R   0.434550 0.499990 0.013170 -0.599082
O43   O     O_R   0.065450 0.999990 0.986830 -0.598657
O44   O     O_R   0.934550 0.999990 0.013170 -0.600426
C99   C     C_R   0.586053 0.501758 0.914008 0.914310
C100  C     C_R   0.413991 0.501772 0.085959 0.911458
C101  C     C_R   0.086026 0.001767 0.914042 0.910986
C102  C     C_R   0.913983 0.001172 0.085990 0.903341
Zn9   Zn    Zn3+2 0.499970 0.499980 0.930220 1.047427
Zn10  Zn    Zn3+2 0.500030 0.499980 0.069780 1.047983
Zn11  Zn    Zn3+2 0.999970 0.999980 0.930220 1.046134
Zn12  Zn    Zn3+2 0.000030 0.999980 0.069780 1.050653
O45   O     O_R   0.500010 0.565460 0.947720 -0.620440
O46   O     O_R   0.499990 0.565460 0.052280 -0.620188
O47   O     O_R   0.000010 0.065460 0.947720 -0.620032
O48   O     O_R   0.999990 0.065460 0.052280 -0.618199
C103  C     C_R   0.499986 0.586172 0.000065 0.849055
C104  C     C_R   0.000044 0.086164 0.000037 0.841499
C105  C     C_R   0.037929 0.703084 0.943232 -0.134515
C106  C     C_R   0.962337 0.703043 0.056085 -0.134940
C107  C     C_R   0.537996 0.203078 0.943281 -0.139592
C108  C     C_R   0.462333 0.203058 0.055920 -0.137525
H33   H     H_    0.067367 0.720717 0.899630 0.158911
H34   H     H_    0.932913 0.720639 0.099621 0.159139
H35   H     H_    0.567465 0.220704 0.899759 0.158709
H36   H     H_    0.432890 0.220664 0.099368 0.159007
C109  C     C_R   0.038013 0.657237 0.943570 -0.148747
C110  C     C_R   0.962216 0.657207 0.055974 -0.149016
C111  C     C_R   0.538066 0.157231 0.943634 -0.151668
C112  C     C_R   0.462198 0.157221 0.055816 -0.151159
H37   H     H_    0.067482 0.639897 0.899608 0.176259
H38   H     H_    0.932723 0.639851 0.100023 0.176345
H39   H     H_    0.567559 0.139884 0.899762 0.177538
H40   H     H_    0.432669 0.139876 0.099782 0.176411
C113  C     C_R   0.000104 0.634166 0.999836 -0.041254
C114  C     C_R   0.500114 0.134169 0.999798 -0.043200
C115  C     C_R   0.000143 0.725979 0.999616 0.090371
C116  C     C_R   0.500183 0.225982 0.999556 0.089915
C117  C     C_R   0.487795 0.296864 0.065577 -0.143275
C118  C     C_R   0.512587 0.296844 0.933646 -0.137710
C119  C     C_R   0.987770 0.796870 0.065619 -0.137587
C120  C     C_R   0.012503 0.796839 0.933720 -0.137916
H41   H     H_    0.478426 0.279256 0.116638 0.157666
H42   H     H_    0.521996 0.279215 0.882516 0.160866
H43   H     H_    0.978424 0.779268 0.116672 0.160859
H44   H     H_    0.021884 0.779209 0.882607 0.160968
C121  C     C_R   0.487947 0.342702 0.065598 -0.153773
C122  C     C_R   0.512277 0.342691 0.933853 -0.154645
C123  C     C_R   0.987930 0.842708 0.065627 -0.152960
C124  C     C_R   0.012206 0.842686 0.933912 -0.153057
H45   H     H_    0.478264 0.360026 0.117109 0.174998
H46   H     H_    0.521905 0.360015 0.882435 0.175564
H47   H     H_    0.978271 0.860036 0.117121 0.175830
H48   H     H_    0.021817 0.860005 0.882499 0.175789
C125  C     C_R   0.500065 0.365774 0.999791 -0.045404
C126  C     C_R   0.000033 0.865774 0.999823 -0.046030
C127  C     C_R   0.500217 0.273941 0.999566 0.091180
C128  C     C_R   0.000162 0.773940 0.999628 0.089623
C129  C     C_R   0.975617 0.296170 0.068429 0.446937
C130  C     C_R   0.029030 0.297279 0.929570 0.396498
C131  C     C_R   0.472967 0.796496 0.069511 0.395579
C132  C     C_R   0.526776 0.796510 0.930995 0.391775
C133  C     C_R   0.975597 0.342571 0.069624 0.317595
C134  C     C_R   0.025938 0.343036 0.929776 0.426665
C135  C     C_R   0.474110 0.842835 0.070248 0.312699
C136  C     C_R   0.525452 0.842823 0.930287 0.323262
C137  C     C_R   0.000150 0.365902 0.999835 -0.397610
C138  C     C_R   0.499819 0.865901 0.000256 -0.344423
C139  C     C_R   0.002843 0.273902 0.998817 -0.285970
C140  C     C_R   0.499922 0.773973 0.000255 -0.198666
C141  C     C_R   0.486313 0.702921 0.960779 -0.053796
C142  C     C_R   0.513536 0.703102 0.039729 -0.055511
C143  C     C_R   0.986329 0.203334 0.962539 -0.118934
C144  C     C_R   0.016898 0.202612 0.036349 -0.045278
H49   H     H_    0.475473 0.720540 0.930609 0.171989
H50   H     H_    0.524362 0.720867 0.069932 0.171671
H51   H     H_    0.974611 0.221357 0.934081 0.179248
H52   H     H_    0.029249 0.220038 0.064464 0.172711
C145  C     C_R   0.486529 0.657091 0.960394 -0.182483
C146  C     C_R   0.513317 0.657264 0.040075 -0.181156
C147  C     C_R   0.985861 0.157477 0.962411 -0.165692
C148  C     C_R   0.015915 0.156794 0.037103 -0.179977
H53   H     H_    0.475786 0.639676 0.929790 0.180634
H54   H     H_    0.524056 0.639981 0.070662 0.179784
H55   H     H_    0.973622 0.140357 0.933880 0.181602
H56   H     H_    0.027673 0.139155 0.065822 0.177353
C149  C     C_R   0.499937 0.634129 0.000201 -0.045832
C150  C     C_R   0.000554 0.134103 0.999879 -0.042785
C151  C     C_R   0.499937 0.725878 0.000241 0.251870
C152  C     C_R   0.002066 0.225812 0.999160 0.176285
N1    N     N_R   0.998688 0.585952 0.300355 0.257138
O49   O     O_R   0.985108 0.611293 0.358922 -0.273091
O50   O     O_R   0.029265 0.601552 0.233473 -0.365970
N2    N     N_R   0.005423 0.586230 0.695785 0.258223
O51   O     O_R   0.019785 0.610530 0.635870 -0.273211
O52   O     O_R   0.976057 0.603530 0.761906 -0.365973
N3    N     N_R   0.440317 0.061488 0.362410 0.256680
O53   O     O_R   0.424692 0.070057 0.432958 -0.306801
O54   O     O_R   0.442445 0.093784 0.320464 -0.359060
N4    N     N_R   0.498901 0.085891 0.702766 0.256514
O55   O     O_R   0.511719 0.111633 0.645043 -0.275126
O56   O     O_R   0.467999 0.100550 0.770173 -0.366230
N5    N     N_R   0.067663 0.457143 0.243908 0.221153
O57   O     O_R   0.095306 0.458761 0.262499 -0.352565
O58   O     O_R   0.061029 0.419092 0.223635 -0.329210
N6    N     N_R   0.930074 0.461004 0.757964 0.222355
O59   O     O_R   0.900980 0.464474 0.742856 -0.348668
O60   O     O_R   0.935497 0.422413 0.778148 -0.327413
N7    N     N_R   0.579106 0.022232 0.227994 0.202899
O61   O     O_R   0.596171 0.039636 0.260824 -0.364587
O62   O     O_R   0.602466 0.993496 0.173977 -0.320153
N8    N     N_R   0.433258 0.955048 0.755018 0.220890
O63   O     O_R   0.405731 0.955751 0.736120 -0.349392
O64   O     O_R   0.440738 0.917257 0.774440 -0.330734
O65   O     O_3   0.075747 0.470316 0.115007 -0.682988
H57   H     H_    0.106487 0.480112 0.092571 0.356631
O66   O     O_3   0.922941 0.473913 0.885835 -0.682063
H58   H     H_    0.892689 0.485119 0.908133 0.356343
O67   O     O_3   0.571940 0.040082 0.114038 -0.677804
H59   H     H_    0.585252 0.069515 0.109299 0.349816
O68   O     O_3   0.424919 0.968086 0.884363 -0.684003
H60   H     H_    0.393946 0.976969 0.907062 0.356687
O69   O     O_3   0.772118 0.422152 0.734966 -0.664869
H61   H     H_    0.740951 0.427504 0.777052 0.341373
O70   O     O_3   0.228545 0.425243 0.248004 -0.662282
H62   H     H_    0.259356 0.432068 0.205747 0.341695
O71   O     O_3   0.271569 0.923865 0.746473 -0.661991
H63   H     H_    0.240790 0.930208 0.789286 0.341851
O72   O     O_3   0.726303 0.929940 0.219013 -0.662424
H64   H     H_    0.758462 0.935153 0.186566 0.344548
N9    N     N_R   0.861285 0.417491 0.640093 0.262946
O73   O     O_R   0.875683 0.401311 0.677781 -0.266105
O74   O     O_R   0.857419 0.391557 0.596018 -0.240460
N10   N     N_R   0.139232 0.418774 0.344020 0.266729
O75   O     O_R   0.123611 0.398205 0.407795 -0.260636
O76   O     O_R   0.145395 0.396710 0.286734 -0.242505
N11   N     N_R   0.360870 0.918025 0.648997 0.265719
O77   O     O_R   0.376828 0.899601 0.583349 -0.246871
O78   O     O_R   0.355366 0.894160 0.704056 -0.245696
N12   N     N_R   0.636126 0.928329 0.304319 0.258280
O79   O     O_R   0.609214 0.936118 0.285455 -0.338988
O80   O     O_R   0.646112 0.887616 0.307815 -0.247631
N13   N     N_R   0.777340 0.585529 0.709292 0.248805
O81   O     O_R   0.742415 0.590279 0.709675 -0.311502
O82   O     O_R   0.796137 0.620698 0.713465 -0.312492
N14   N     N_R   0.222350 0.585345 0.303972 0.248698
O83   O     O_R   0.257851 0.587539 0.302398 -0.308657
O84   O     O_R   0.202863 0.621981 0.307704 -0.310632
N15   N     N_R   0.277642 0.085289 0.700633 0.247230
O85   O     O_R   0.242273 0.088245 0.701952 -0.314926
O86   O     O_R   0.297010 0.121551 0.699423 -0.313089
N16   N     N_R   0.723742 0.074567 0.331078 0.249619
O87   O     O_R   0.759128 0.069461 0.329174 -0.308783
O88   O     O_R   0.705220 0.113356 0.347986 -0.304637
O89   O     O_3   0.724717 0.536695 0.878675 -0.657396
H65   H     H_    0.755999 0.527606 0.846911 0.337785
O90   O     O_3   0.276570 0.546032 0.124529 -0.657069
H66   H     H_    0.244738 0.539007 0.156530 0.337838
O91   O     O_3   0.223930 0.043044 0.876878 -0.657787
H67   H     H_    0.255557 0.035247 0.845157 0.337543
O92   O     O_3   0.775737 0.054733 0.137440 -0.651484
H68   H     H_    0.743831 0.048078 0.168531 0.345268
O93   O     O_3   0.637101 0.544256 0.962387 -0.659273
H69   H     H_    0.611077 0.560427 0.972417 0.335744
O94   O     O_3   0.364368 0.551147 0.041721 -0.660814
H70   H     H_    0.391664 0.564325 0.031824 0.333270
O95   O     O_3   0.136212 0.049139 0.959643 -0.661509
H71   H     H_    0.109361 0.063247 0.969402 0.332143
O96   O     O_3   0.863521 0.059328 0.054204 -0.663300
H72   H     H_    0.892502 0.068052 0.042625 0.330083
N17   N     N_R   0.927675 0.551553 0.377028 0.246075
O97   O     O_R   0.902238 0.579064 0.372813 -0.294925
O98   O     O_R   0.916025 0.540544 0.444607 -0.351645
N18   N     N_R   0.074655 0.548735 0.620638 0.245499
O99   O     O_R   0.101519 0.574914 0.623653 -0.292957
O100  O     O_R   0.085485 0.537596 0.553566 -0.359320
N19   N     N_R   0.413606 0.987668 0.395227 0.239414
O101  O     O_R   0.374945 0.991458 0.407987 -0.272294
O102  O     O_R   0.415538 0.968384 0.447073 -0.335278
N20   N     N_R   0.570795 0.053734 0.624966 0.246340
O103  O     O_R   0.595288 0.082408 0.629880 -0.296392
O104  O     O_R   0.583044 0.042378 0.557155 -0.365034
N21   N     N_R   0.723900 0.475131 0.665793 0.251922
O105  O     O_R   0.759295 0.494849 0.610390 -0.276975
O106  O     O_R   0.705792 0.444673 0.649440 -0.321258
N22   N     N_R   0.275177 0.468976 0.329176 0.251757
O107  O     O_R   0.239832 0.487344 0.386901 -0.276917
O108  O     O_R   0.292725 0.436037 0.341574 -0.321059
N23   N     N_R   0.224491 0.970384 0.669513 0.251780
O109  O     O_R   0.259893 0.989164 0.612445 -0.277763
O110  O     O_R   0.206683 0.938119 0.655923 -0.320066
N24   N     N_R   0.775841 0.950545 0.315339 0.247994
O111  O     O_R   0.739550 0.963897 0.377689 -0.280971
O112  O     O_R   0.794510 0.914723 0.317314 -0.330296
O113  O     O_3   0.949955 0.271342 0.134208 -0.707609
H73   H     H_    0.930966 0.290923 0.178414 0.405548
O114  O     O_3   0.057310 0.276692 0.860101 -0.651656
H74   H     H_    0.064009 0.246427 0.867970 0.344580
O115  O     O_3   0.446496 0.771944 0.135375 -0.712348
H75   H     H_    0.427944 0.791758 0.179427 0.413942
O116  O     O_3   0.553279 0.771999 0.865098 -0.717402
H76   H     H_    0.571802 0.791859 0.821090 0.408695
O117  O     O_3   0.951854 0.363741 0.139409 -0.725698
H77   H     H_    0.964710 0.393279 0.134690 0.340095
O118  O     O_3   0.049073 0.364141 0.860008 -0.646490
H78   H     H_    0.035131 0.392962 0.864830 0.319868
O119  O     O_3   0.450261 0.864220 0.139844 -0.706779
H79   H     H_    0.463608 0.893432 0.135336 0.342864
O120  O     O_3   0.548982 0.864230 0.860745 -0.725431
H80   H     H_    0.534928 0.892946 0.865356 0.338694
O121  O     O_3   0.069893 0.534474 0.245341 -0.720596
H81   H     H_    0.100751 0.532972 0.199211 0.353859
O122  O     O_3   0.932034 0.538340 0.753151 -0.717032
H82   H     H_    0.901244 0.538591 0.799627 0.355353
O123  O     O_3   0.525809 0.078062 0.285817 -0.691208
H83   H     H_    0.549237 0.098447 0.247479 0.352458
O124  O     O_3   0.429069 0.032296 0.755917 -0.722375
H84   H     H_    0.398265 0.029854 0.801990 0.353906
N25   N     N_R   0.924124 0.458137 0.377665 0.249901
O125  O     O_R   0.893026 0.469227 0.370047 -0.292676
O126  O     O_R   0.912978 0.442467 0.442730 -0.309253
N26   N     N_R   0.073970 0.455512 0.624539 0.250595
O127  O     O_R   0.105381 0.465506 0.632063 -0.290765
O128  O     O_R   0.084643 0.439162 0.560106 -0.290671
N27   N     N_R   0.480282 0.917461 0.318656 0.270947
O129  O     O_R   0.445223 0.909677 0.320391 -0.299061
O130  O     O_R   0.493017 0.887138 0.344804 -0.275454
N28   N     N_R   0.576667 0.960153 0.621119 0.250193
O131  O     O_R   0.607511 0.972394 0.628856 -0.295311
O132  O     O_R   0.588156 0.944318 0.555876 -0.321729

loop_
_geom_bond_atom_site_label_1
_geom_bond_atom_site_label_2
_geom_bond_distance
_ccdc_geom_bond_type
O48   C104  1.288329 A    
C141  H49   1.083577 S    
C23   C27   1.592400 S    
C106  C110  1.385448 A    
O28   Zn7   2.032059 S    
C55   H27   1.083213 S    
C14   H6    1.111960 S    
C124  H48   1.083202 S    
C84   C88   1.412851 A    
O91   H67   0.987968 S    
C63   C87   1.454845 S    
O89   H65   0.988114 S    
C81   C85   1.411107 A    
C122  C125  1.401766 A    
C145  H53   1.083264 S    
C19   O123  1.412754 S    
N6    O59   1.301390 A    
N27   O130  1.301676 A    
C142  C151  1.398262 A    
O28   C94   1.277474 A    
C43   C47   1.393705 A    
N25   O126  1.301051 A    
C51   C55   1.400379 A    
C67   O91   1.384564 S    
C24   N28   1.473554 S    
C9    C13   1.560644 S    
C56   H28   1.083381 S    
O38   C100  1.288612 A    
O22   Zn6   2.030392 S    
C11   C27   1.601449 S    
C82   N22   1.442019 S    
C22   C38   1.547692 S    
C23   N27   1.475933 S    
O26   C92   1.277250 A    
N14   O83   1.301290 A    
C130  C139  1.412494 A    
C10   N18   1.484128 S    
N7    O62   1.302085 A    
O25   C91   1.277646 A    
O4    C4    1.285445 A    
O21   C91   1.283874 A    
C148  H56   1.083312 S    
C53   C57   1.387223 A    
C108  C112  1.385448 A    
C17   C33   1.563463 S    
C19   C35   1.563657 S    
C32   C94   1.469361 S    
C98   C126  1.450957 S    
C37   H21   1.112400 S    
C46   N10   1.434478 S    
O38   Zn10  2.019872 S    
C21   N25   1.473557 S    
C117  H41   1.083546 S    
C134  C137  1.415296 A    
N16   O87   1.301216 A    
H9    C33   1.116274 S    
O46   C103  1.289027 A    
C62   C86   1.455222 S    
C145  C149  1.401646 A    
C66   O90   1.384640 S    
O33   Zn9   2.015366 S    
C42   C46   1.394102 A    
C141  C145  1.385276 A    
C78   H30   1.083811 S    
O41   Zn10  2.020212 S    
O16   Zn4   2.030313 S    
O36   Zn12  2.013905 S    
C54   H26   1.083273 S    
O13   C5    1.285373 A    
O7    Zn4   2.022459 S    
C131  C140  1.402280 A    
C75   C101  1.453181 S    
C22   N26   1.473791 S    
C20   C36   1.564060 S    
O42   Zn9   2.020210 S    
O43   Zn12  2.020212 S    
O4    Zn2   2.021261 S    
O70   H62   0.988307 S    
C84   N24   1.442362 S    
C32   C36   1.565998 S    
N18   O99   1.302737 A    
O9    C5    1.273665 A    
H11   C35   1.117147 S    
C90   C114  1.449999 S    
C48   N12   1.437092 S    
C11   N19   1.481347 S    
N1    O50   1.302882 A    
O121  H81   0.993725 S    
O8    Zn4   2.020913 S    
N28   O132  1.301324 A    
C16   H8    1.112139 S    
C148  C150  1.401786 A    
O118  H78   0.988961 S    
C144  C148  1.385149 A    
O37   C99   1.289141 A    
C71   O95   1.380513 S    
O43   C101  1.289295 A    
C42   C62   1.415917 A    
O3    Zn2   2.019728 S    
C65   O89   1.384451 S    
C6    C26   1.473646 S    
O114  H74   0.989085 S    
C16   C32   1.550696 S    
C71   C75   1.413740 A    
O123  H83   0.993800 S    
C147  H55   1.083280 S    
C54   C58   1.387886 A    
C9    N1    1.486830 S    
O37   Zn9   2.019872 S    
C18   C34   1.563155 S    
C13   H5    1.112120 S    
C76   C102  1.451119 S    
C30   C34   1.565830 S    
C11   C15   1.559842 S    
C79   H31   1.083753 S    
H10   C34   1.116444 S    
O3    C3    1.288129 A    
O90   H66   0.987853 S    
O40   C102  1.287620 A    
C77   H29   1.083594 S    
C78   C82   1.387436 A    
N13   O81   1.301333 A    
C116  C127  1.449602 S    
C37   H17   1.110462 S    
C131  C135  1.401506 A    
C39   H19   1.111545 S    
C118  C122  1.385833 A    
Zn7   O31   2.015117 S    
O42   C100  1.289320 A    
C123  H47   1.083210 S    
N17   O97   1.302756 A    
C64   C88   1.458398 S    
C104  C150  1.449050 S    
C132  C136  1.401270 A    
C39   H23   1.112213 S    
C14   C30   1.552699 S    
N24   O111  1.301267 A    
C7    C27   1.474382 S    
C12   C16   1.560237 S    
C41   C45   1.392123 A    
C118  C127  1.398723 A    
C30   C38   1.545305 S    
C48   C52   1.411582 A    
C17   C25   1.587965 S    
N22   O107  1.301360 A    
C129  C139  1.404591 A    
C70   C74   1.413715 A    
N12   O80   1.301160 A    
C20   C28   1.588315 S    
O5    Zn3   2.022459 S    
C21   H13   1.108726 S    
O17   Zn5   2.013751 S    
N22   O108  1.301519 A    
C23   H15   1.110441 S    
C106  H34   1.083530 S    
C24   H16   1.108729 S    
O2    Zn1   2.021261 S    
C15   H7    1.110720 S    
C108  H36   1.083535 S    
C23   C39   1.540372 S    
O47   C104  1.289237 A    
O26   Zn5   2.032059 S    
O32   C96   1.283202 A    
C146  H54   1.083252 S    
H12   C36   1.116226 S    
O36   C98   1.289292 A    
N9    O74   1.300685 A    
C56   C60   1.388867 A    
C10   C14   1.561537 S    
O13   Zn3   2.031775 S    
C10   N2    1.486666 S    
N15   O86   1.301507 A    
N2    O51   1.302626 A    
N8    O64   1.302097 A    
C122  H46   1.083201 S    
C111  C114  1.401501 A    
C68   C72   1.392577 A    
C18   N6    1.486918 S    
C35   O67   1.407495 S    
C73   C77   1.398259 A    
O65   H57   0.993085 S    
C110  H38   1.083254 S    
C75   C79   1.397159 A    
C15   C31   1.563926 S    
O8    C4    1.282174 A    
C135  C138  1.417359 A    
C41   O69   1.385251 S    
C31   C93   1.465061 S    
C34   O66   1.408776 S    
N20   O104  1.300451 A    
O15   Zn4   2.031775 S    
C72   O96   1.382140 S    
C65   C69   1.389930 A    
N19   O102  1.299724 A    
C42   O70   1.385153 S    
C67   C71   1.390660 A    
C31   C39   1.543060 S    
C36   O68   1.408608 S    
C49   C53   1.400298 A    
C132  O116  1.385329 S    
C57   C61   1.410061 A    
O14   C6    1.285125 A    
C59   C63   1.410036 A    
C115  C128  1.449667 S    
C40   H20   1.110509 S    
N26   O127  1.302503 A    
C60   N16   1.442159 S    
O17   C89   1.285555 A    
N5    O58   1.302074 A    
C129  C133  1.402697 A    
Zn10  O46   2.015704 S    
O10   C6    1.274042 A    
N6    O60   1.301957 A    
C29   C91   1.469578 S    
C147  C150  1.401311 A    
N25   O125  1.302465 A    
C30   C92   1.469422 S    
C52   C56   1.397200 A    
C17   N5    1.487136 S    
C108  C116  1.398750 A    
C136  C138  1.416790 A    
Zn5   O29   2.015117 S    
C66   C86   1.417862 A    
C45   C49   1.414077 A    
O45   C103  1.288794 A    
C109  C113  1.401461 A    
Zn11  O47   2.014232 S    
N2    O52   1.302968 A    
O34   Zn10  2.013905 S    
O33   C97   1.289485 A    
N4    O55   1.302652 A    
C117  C121  1.385499 A    
C130  O114  1.383691 S    
C142  H50   1.083566 S    
O19   C90   1.285620 A    
C107  H35   1.083517 S    
C105  C109  1.385794 A    
N3    O53   1.301990 A    
O94   H70   0.990337 S    
C11   N3    1.482862 S    
C40   H24   1.112369 S    
O116  H76   0.989435 S    
C140  C151  1.453687 S    
C134  O118  1.383309 S    
N21   O106  1.301516 A    
O5    C1    1.281540 A    
N16   O88   1.301544 A    
Zn6   O30   2.013572 S    
C19   N7    1.486354 S    
C79   C83   1.387271 A    
C41   C61   1.415884 A    
C80   C84   1.389748 A    
C22   C26   1.586891 S    
O40   Zn12  2.019872 S    
C12   N20   1.484352 S    
C43   C63   1.415903 A    
C50   C54   1.400488 A    
C3    C51   1.462949 S    
O39   C101  1.288893 A    
C120  C124  1.385814 A    
N8    O63   1.301705 A    
O44   C102  1.289245 A    
C143  C147  1.386127 A    
Zn8   O32   2.013572 S    
C144  C152  1.397538 A    
N27   O129  1.302233 A    
N18   O100  1.300635 A    
C131  O115  1.385390 S    
C76   C80   1.396092 A    
C129  O113  1.385584 S    
N11   O77   1.301079 A    
N1    O49   1.302655 A    
C57   N13   1.441721 S    
O18   C89   1.285781 A    
C117  C127  1.398672 A    
C38   H22   1.112535 S    
C106  C115  1.398770 A    
C97   C125  1.450968 S    
C46   C50   1.414916 A    
O12   Zn2   2.031562 S    
O24   Zn8   2.030392 S    
O35   C98   1.289485 A    
C133  O117  1.384070 S    
O72   H64   0.987443 S    
C18   C26   1.588339 S    
O1    C1    1.288327 A    
O20   C90   1.285765 A    
C135  O119  1.384214 S    
O18   Zn6   2.015294 S    
O96   H72   0.989674 S    
C21   C25   1.585688 S    
C22   H14   1.108560 S    
O93   H69   0.990591 S    
C121  H45   1.083209 S    
C60   C64   1.412123 A    
C15   H3    1.113514 S    
O68   H60   0.993101 S    
C70   O94   1.380710 S    
C143  H51   1.083522 S    
O92   H68   0.987828 S    
N23   O110  1.301519 A    
C44   C48   1.397899 A    
C136  O120  1.384000 S    
C89   C113  1.449956 S    
C110  C113  1.401430 A    
C9    C25   1.616571 S    
C33   O65   1.408655 S    
C32   C40   1.546904 S    
C12   C28   1.616720 S    
O66   H58   0.993089 S    
C20   O124  1.412016 S    
C12   N4    1.486786 S    
O119  H79   0.988512 S    
C123  C126  1.401706 A    
O120  H80   0.989030 S    
C112  C114  1.401436 A    
O24   C94   1.284024 A    
O30   C95   1.282453 A    
O69   H61   0.988043 S    
C20   N8    1.487709 S    
O6    C2    1.281669 A    
N24   O112  1.301539 A    
O124  H84   0.993718 S    
C55   C59   1.387573 A    
C83   C87   1.411840 A    
O27   Zn8   2.032052 S    
C121  C125  1.401707 A    
N15   O85   1.301303 A    
C69   O93   1.379968 S    
C141  C151  1.398146 A    
C29   C33   1.565682 S    
N10   O76   1.300984 A    
C68   O92   1.384835 S    
C31   C35   1.555919 S    
O10   Zn1   2.031562 S    
O27   C93   1.280372 A    
C103  C149  1.449532 S    
C13   H1    1.113579 S    
C119  H43   1.083545 S    
C44   C64   1.418737 A    
C24   C28   1.585831 S    
O71   H63   0.988332 S    
C38   H18   1.110505 S    
C132  C140  1.402284 A    
N28   O131  1.302496 A    
C4    C52   1.458172 S    
O22   C92   1.284078 A    
C119  C123  1.385499 A    
O23   C93   1.279352 A    
C143  C152  1.398546 A    
O34   C97   1.289292 A    
C96   C138  1.449022 S    
O19   Zn7   2.013751 S    
C2    C50   1.463373 S    
C24   C40   1.548758 S    
O67   H59   0.993003 S    
O15   C7    1.280720 A    
N23   O109  1.301382 A    
O21   Zn5   2.030392 S    
C13   C29   1.551401 S    
O122  H82   0.993755 S    
N9    O73   1.300324 A    
N10   O75   1.300749 A    
O7    C3    1.282242 A    
C133  C137  1.416482 A    
N3    O54   1.302684 A    
C83   N23   1.441992 S    
C29   C37   1.546678 S    
O35   Zn11  2.015366 S    
C61   C85   1.454046 S    
C111  H39   1.083243 S    
C17   O121  1.412103 S    
C69   C73   1.413600 A    
N19   O101  1.302498 A    
N13   O82   1.301510 A    
C105  H33   1.083517 S    
O44   Zn11  2.020210 S    
Zn9   O45   2.014232 S    
C105  C115  1.398854 A    
C9    N17   1.484761 S    
C112  H40   1.083245 S    
C73   C99   1.454389 S    
O11   C7    1.276749 A    
O12   C8    1.274125 A    
C81   N21   1.441966 S    
O1    Zn1   2.019728 S    
O9    Zn1   2.030109 S    
C80   H32   1.084117 S    
C118  H42   1.083533 S    
O41   C99   1.289817 A    
N11   O78   1.300959 A    
O39   Zn11  2.019872 S    
C107  C116  1.398815 A    
O16   C8    1.284729 A    
C16   H4    1.113716 S    
N26   O128  1.300763 A    
C47   N11   1.434042 S    
O11   Zn2   2.030109 S    
N5    O57   1.301326 A    
C95   C137  1.448936 S    
C47   C51   1.414396 A    
C74   C78   1.396854 A    
O29   C95   1.283587 A    
C5    C25   1.473474 S    
N12   O79   1.300948 A    
O6    Zn3   2.020913 S    
C109  H37   1.083246 S    
C8    C28   1.473452 S    
C107  C111  1.385795 A    
C59   N15   1.441755 S    
O115  H75   0.989398 S    
C66   C70   1.391007 A    
C139  C152  1.453697 S    
N14   O84   1.301511 A    
O31   C96   1.282767 A    
C18   O122  1.412352 S    
N7    O61   1.301889 A    
N4    O56   1.302862 A    
C19   C27   1.605051 S    
O2    C2    1.288968 A    
C1    C49   1.461866 S    
C120  H44   1.083530 S    
C58   C62   1.410034 A    
C77   C81   1.386938 A    
C58   N14   1.441840 S    
O20   Zn8   2.015294 S    
C14   H2    1.113437 S    
C124  C126  1.401751 A    
C119  C128  1.398696 A    
C120  C128  1.398742 A    
C21   C37   1.548969 S    
O14   Zn3   2.030313 S    
C67   C87   1.417659 A    
C45   N9    1.433082 S    
C82   C86   1.412008 A    
C43   O71   1.385051 S    
N21   O105  1.301389 A    
C130  C134  1.387935 A    
C144  H52   1.083572 S    
O25   Zn6   2.032052 S    
O113  H73   0.989422 S    
O117  H77   0.988638 S    
C10   C26   1.615804 S    
C74   C100  1.452841 S    
C65   C85   1.417560 A    
N20   O103  1.302773 A    
Zn12  O48   2.015704 S    
O23   Zn7   2.030392 S    
C44   O72   1.385723 S    
N17   O98   1.300785 A    
O95   H71   0.990430 S    
C146  C149  1.401603 A    
C142  C146  1.385510 A    
C53   H25   1.083147 S    
C72   C76   1.412902 A    
C68   C88   1.419329 A    
