data_mof_unit_20214.cif
_audit_creation_date              2012-12-10T17:08:42-0500
_audit_creation_method            fapswitch 2.2
_symmetry_space_group_name_H-M    P1
_symmetry_Int_Tables_number       1
_space_group_crystal_system       triclinic
_cell_length_a                    27.779129
_cell_length_b                    11.036086
_cell_length_c                    9.879438
_cell_angle_alpha                 111.779989
_cell_angle_beta                  96.906632
_cell_angle_gamma                 92.145351
_cell_volume                      2781.06885218

loop_
_atom_site_label
_atom_site_type_symbol
_atom_type_description
_atom_site_fract_x
_atom_site_fract_y
_atom_site_fract_z
_atom_type_partial_charge
C1    C     C_R   0.496372 0.253859 0.440053 0.857079
C2    C     C_R   0.503430 0.746132 0.559959 0.851501
C3    C     C_R   0.101754 0.492006 0.501959 -0.055263
C4    C     C_R   0.898667 0.505417 0.512820 -0.054844
C5    C     C_R   0.126054 0.388905 0.521154 -0.095582
C6    C     C_R   0.874528 0.609241 0.494847 -0.095929
C7    C     C_R   0.098926 0.280118 0.521704 -0.213733
C8    C     C_R   0.901776 0.718402 0.495707 -0.215306
C9    C     C_R   0.128491 0.591703 0.478999 0.001294
C10   C     C_R   0.871712 0.404754 0.533459 0.001035
C11   C     C_R   0.355493 0.498111 0.506881 -0.161928
C12   C     C_R   0.644577 0.500850 0.493497 -0.175171
C13   C     C_R   0.973291 0.395860 0.527416 0.066168
C14   C     C_R   0.027110 0.601421 0.487762 0.065818
C15   C     C_R   0.976791 0.609916 0.500839 -0.079363
C16   C     C_R   0.023720 0.387748 0.515246 -0.079266
C17   C     C_R   0.949743 0.503188 0.512263 0.014895
C18   C     C_R   0.050709 0.494313 0.503235 0.014793
C19   C     C_R   0.945879 0.304222 0.563143 -0.177247
C20   C     C_R   0.054296 0.692369 0.450476 -0.176364
C21   C     C_R   0.895965 0.306714 0.562556 -0.184511
C22   C     C_R   0.104106 0.689304 0.449349 -0.182535
C23   C     C_R   0.407925 0.500147 0.502317 0.809906
C24   C     C_R   0.592029 0.497781 0.497143 0.798929
C25   C     C_R   0.048249 0.274040 0.506135 0.400277
C26   C     C_R   0.952421 0.724021 0.510860 0.400129
C27   C     C_2   0.494234 0.113600 0.406358 -0.366292
C28   C     C_2   0.505010 0.886361 0.593686 -0.362480
C29   C     C_2   0.500013 0.069732 0.515909 -0.150366
C30   C     C_2   0.498368 0.930173 0.484197 -0.144225
C31   C     C_2   0.507328 0.501055 0.077075 0.398891
C32   C     C_2   0.492577 0.499814 0.923476 0.396051
C33   C     C_R   0.176974 0.393377 0.530503 0.567953
C34   C     C_R   0.823622 0.604913 0.484925 0.565130
C35   C     C_R   0.178939 0.588437 0.479895 0.544900
C36   C     C_R   0.821161 0.407430 0.530603 0.543163
C37   C     C_R   0.285031 0.605144 0.601350 -0.116292
C38   C     C_R   0.715490 0.394548 0.402196 -0.118952
C39   C     C_R   0.335127 0.610635 0.596645 0.168833
C40   C     C_R   0.665189 0.389521 0.402128 0.170733
C41   C     C_R   0.324916 0.383019 0.420277 0.165236
C42   C     C_R   0.674801 0.614130 0.588574 0.191338
C43   C     C_R   0.274804 0.382332 0.422414 -0.115266
C44   C     C_R   0.725517 0.612457 0.591926 -0.130403
C45   C     C_R   0.254535 0.492556 0.512721 0.220025
C46   C     C_R   0.745829 0.504393 0.497929 0.229367
Cu1   Cu    Cu3+1 0.508480 0.521810 0.644910 0.969810
Cu2   Cu    Cu3+1 0.491520 0.478190 0.355090 0.957581
H1    H     H_    0.511597 0.954011 0.708084 0.150292
H2    H     H_    0.487983 0.045981 0.291933 0.151153
H3    H     H_    0.551991 0.611437 0.926400 0.192539
H4    H     H_    0.448007 0.388737 0.073290 0.186381
H5    H     H_    0.251422 0.295508 0.352090 0.179667
H6    H     H_    0.749959 0.694990 0.666314 0.166563
H7    H     H_    0.116583 0.194480 0.522753 0.201063
H8    H     H_    0.884226 0.804395 0.495413 0.200689
H9    H     H_    0.731280 0.310905 0.329580 0.170532
H10   H     H_    0.269524 0.690377 0.672084 0.174930
H11   H     H_    0.876573 0.232054 0.587071 0.189898
H12   H     H_    0.123314 0.763279 0.423281 0.190604
H13   H     H_    0.962257 0.231911 0.597788 0.199685
H14   H     H_    0.037746 0.764338 0.415582 0.198832
H15   H     H_    0.491808 0.862763 0.369609 0.190187
H16   H     H_    0.506217 0.137119 0.630520 0.190510
N1    N     N_R   0.202522 0.492162 0.509478 -0.447118
N2    N     N_R   0.797864 0.504916 0.502989 -0.447910
N3    N     N_2   0.478780 0.445430 0.137360 -0.324671
N4    N     N_2   0.521220 0.554570 0.862640 -0.322518
O1    O     O_R   0.504520 0.332330 0.577400 -0.547053
O2    O     O_R   0.495480 0.667670 0.422600 -0.542115
O3    O     O_R   0.490210 0.295500 0.332650 -0.589720
O4    O     O_R   0.509790 0.704500 0.667350 -0.587491
O5    O     O_R   0.437420 0.518430 0.622370 -0.549956
O6    O     O_R   0.562580 0.481570 0.377630 -0.554110
O7    O     O_R   0.423110 0.481600 0.377610 -0.590333
O8    O     O_R   0.576890 0.518400 0.622390 -0.562083
O9    O     O_2   0.200693 0.300029 0.561162 -0.551243
O10   O     O_2   0.800083 0.699590 0.456581 -0.551843
O11   O     O_2   0.795590 0.314049 0.556899 -0.552149
O12   O     O_2   0.204097 0.679985 0.449465 -0.552058
N5    N     N_2   0.343622 0.266104 0.331096 -0.429823
H17   H     H_    0.369597 0.278900 0.270381 0.272238
C47   C     C_3   0.356889 0.179186 0.405973 -0.664836
H18   H     H_    0.367648 0.086849 0.326137 0.228095
H19   H     H_    0.325498 0.154753 0.454014 0.250570
H20   H     H_    0.388167 0.225511 0.494643 0.229325
N6    N     N_2   0.653289 0.727150 0.678590 -0.409193
H21   H     H_    0.620959 0.746040 0.630133 0.250090
C48   C     C_3   0.683688 0.844084 0.774666 -0.665046
H22   H     H_    0.660522 0.918519 0.837772 0.226462
H23   H     H_    0.703689 0.885802 0.708788 0.235704
H24   H     H_    0.709517 0.821597 0.855286 0.234170
O13   O     O_3   0.448614 0.433951 0.843856 -0.563335
C49   C     C_3   0.410285 0.511039 0.898740 0.049869
H25   H     H_    0.409065 0.594980 0.862779 0.172858
H26   H     H_    0.413807 0.552913 0.021114 0.110675
C50   C     C_3   0.362036 0.426911 0.840702 -0.746960
H27   H     H_    0.361362 0.347831 0.884702 0.235473
H28   H     H_    0.331552 0.488125 0.875777 0.214204
H29   H     H_    0.357010 0.381905 0.718793 0.256892
O14   O     O_3   0.550701 0.569651 0.158179 -0.560546
C51   C     C_3   0.589941 0.495388 0.105965 0.050584
H30   H     H_    0.587718 0.455604 0.983963 0.110104
H31   H     H_    0.591058 0.409993 0.139292 0.170949
C52   C     C_3   0.637535 0.581812 0.170267 -0.731271
H32   H     H_    0.640503 0.627733 0.291985 0.254002
H33   H     H_    0.668795 0.522197 0.140724 0.211243
H34   H     H_    0.638932 0.660399 0.125644 0.236971
N7    N     N_2   0.636490 0.269902 0.314056 -0.446983
H35   H     H_    0.600729 0.277899 0.279805 0.255577
C53   C     C_3   0.641424 0.166667 0.370501 -0.647770
H36   H     H_    0.627881 0.195781 0.478586 0.225684
H37   H     H_    0.680040 0.144818 0.383237 0.254108
H38   H     H_    0.619613 0.076039 0.292186 0.223336
N8    N     N_2   0.363803 0.731580 0.678656 -0.443938
H39   H     H_    0.399564 0.724662 0.714244 0.254941
C54   C     C_3   0.358876 0.829058 0.613589 -0.648705
H40   H     H_    0.380528 0.921600 0.687597 0.223803
H41   H     H_    0.320212 0.849837 0.598172 0.255824
H42   H     H_    0.372598 0.794499 0.505578 0.223125
O15   O     O_3   0.023797 0.152403 0.470212 -0.598208
C55   C     C_3   0.008404 0.097976 0.316449 0.048162
H43   H     H_    0.040410 0.078362 0.255907 0.144553
H44   H     H_    0.985534 0.163881 0.279455 0.149083
C56   C     C_3   0.977820 0.969202 0.276485 -0.716910
H45   H     H_    0.946341 0.985200 0.338722 0.264477
H46   H     H_    0.964077 0.928130 0.156636 0.181864
H47   H     H_    0.000255 0.897964 0.303250 0.256323
O16   O     O_3   0.977023 0.845464 0.546686 -0.598093
C57   C     C_3   0.992676 0.899602 0.700297 0.047649
H48   H     H_    0.015932 0.833894 0.736403 0.149887
H49   H     H_    0.960819 0.918291 0.761533 0.143307
C58   C     C_3   0.022818 0.029045 0.740260 -0.714485
H50   H     H_    0.000014 0.099902 0.713988 0.255577
H51   H     H_    0.036717 0.070068 0.860007 0.182217
H52   H     H_    0.054184 0.013963 0.677602 0.265460

loop_
_geom_bond_atom_site_label_1
_geom_bond_atom_site_label_2
_ccdc_geom_bond_type
N6    H21   S    
O13   C49   S    
C37   C45   A    
C27   C29   D    
C8    C26   A    
C14   C18   A    
C53   H36   S    
C7    H7    S    
C24   O6    A    
C8    H8    S    
C50   H27   S    
C33   N1    A    
C31   N3    D    
C52   H33   S    
C1    O3    A    
C3    C18   A    
C47   H18   S    
C31   O14   S    
C19   C21   A    
Cu1   O8    S    
C21   H11   S    
N7    C53   S    
C22   H12   S    
C51   H31   S    
C36   N2    A    
C9    C22   A    
C35   N1    A    
N8    H39   S    
C35   O12   S    
C51   C52   S    
C11   C23   S    
Cu1   O1    S    
C49   H26   S    
C12   C42   A    
N5    C47   S    
C43   H5    S    
C31   C32   S    
N8    C54   S    
C5    C33   A    
C58   H52   S    
C48   H23   S    
C37   H10   S    
C27   H2    S    
C32   N4    D    
C1    C27   S    
C32   O13   S    
C29   H16   S    
C30   H15   S    
C41   C43   A    
Cu2   O7    S    
C34   N2    A    
C49   H25   S    
C42   C44   A    
C23   O5    A    
C2    O4    A    
C50   H28   S    
C44   C46   A    
N5    H17   S    
C10   C21   A    
C52   H34   S    
C13   C19   A    
O14   C51   S    
C14   C20   A    
Cu1   O5    S    
C4    C6    A    
C54   H42   S    
Cu2   O2    S    
C5    C7    A    
C24   O8    A    
C15   C26   A    
C6    C8    A    
C49   C50   S    
C1    O1    A    
C6    C34   A    
C12   C40   A    
C57   H49   S    
C29   C30   S    
C3    C9    A    
C56   H46   S    
Cu2   O6    S    
C56   H47   S    
C38   H9    S    
C28   H1    S    
Cu1   Cu2   S    
C41   N5    S    
C53   H37   S    
C48   H24   S    
C11   C39   A    
C43   C45   A    
O15   C55   S    
C26   O16   S    
C4    C17   A    
C47   H19   S    
C20   C22   A    
C39   N8    S    
N6    C48   S    
C45   N1    S    
C56   H45   S    
C57   C58   S    
Cu2   O3    S    
C55   H44   S    
Cu1   N4    S    
C50   H29   S    
C58   H51   S    
O16   C57   S    
C16   C25   A    
C15   C17   A    
C23   O7    A    
C3    C5    A    
C36   O11   S    
C10   C36   A    
C46   N2    S    
C40   N7    S    
C52   H32   S    
C12   C24   S    
C7    C25   A    
C13   C17   A    
C55   C56   S    
C54   H41   S    
C57   H48   S    
C48   H22   S    
C37   C39   A    
C2    O2    A    
C54   H40   S    
C34   O10   S    
C38   C40   A    
C33   O9    S    
C58   H50   S    
C25   O15   S    
H4    N3    S    
C19   H13   S    
C28   C30   D    
C11   C41   A    
C53   H38   S    
H3    N4    S    
Cu2   N3    S    
C20   H14   S    
C51   H30   S    
Cu1   O4    S    
C38   C46   A    
C44   H6    S    
C47   H20   S    
C16   C18   A    
C13   C16   A    
C9    C35   A    
C14   C15   A    
C2    C28   S    
C42   N6    S    
C55   H43   S    
N7    H35   S    
C4    C10   A    
