data_mof_unit_60850.cif
_audit_creation_date              2012-12-10T20:34:55-0500
_audit_creation_method            fapswitch 2.2
_symmetry_space_group_name_H-M    P1
_symmetry_Int_Tables_number       1
_space_group_crystal_system       orthorhombic
_cell_length_a                    25.818618
_cell_length_b                    39.705391
_cell_length_c                    39.712533
_cell_angle_alpha                 90.0
_cell_angle_beta                  90.0
_cell_angle_gamma                 90.0
_cell_volume                      40710.8394726

loop_
_atom_site_label
_atom_site_type_symbol
_atom_type_description
_atom_site_fract_x
_atom_site_fract_y
_atom_site_fract_z
_atom_type_partial_charge
C1    C     C_R   0.391376 0.500030 0.750024 0.774990
C2    C     C_R   0.608624 0.500030 0.249976 0.774990
C3    C     C_R   0.608624 0.500030 0.750024 0.774990
C4    C     C_R   0.391376 0.500030 0.249976 0.774991
C5    C     C_R   0.891376 0.500030 0.250024 0.774991
C6    C     C_R   0.108624 0.500030 0.749976 0.774990
C7    C     C_R   0.108624 0.500030 0.250024 0.774991
C8    C     C_R   0.891376 0.500030 0.749976 0.774990
C9    C     C_R   0.891376 0.000030 0.750024 0.774990
C10   C     C_R   0.108624 0.000030 0.249976 0.774991
C11   C     C_R   0.108624 0.000030 0.750024 0.774990
C12   C     C_R   0.891376 0.000030 0.249976 0.774990
C13   C     C_R   0.391376 0.000030 0.250024 0.774991
C14   C     C_R   0.608624 0.000030 0.749976 0.774991
C15   C     C_R   0.608624 0.000030 0.250024 0.774990
C16   C     C_R   0.391376 0.000030 0.749976 0.774991
C17   C     C_1   0.250000 0.265172 0.750000 -0.064212
C18   C     C_1   0.750000 0.265172 0.250000 -0.064212
C19   C     C_1   0.750000 0.265172 0.750000 -0.064212
C20   C     C_1   0.250000 0.265172 0.250000 -0.064212
C21   C     C_1   0.750000 0.765172 0.750000 -0.064212
C22   C     C_1   0.250000 0.765172 0.250000 -0.064212
C23   C     C_1   0.250000 0.765172 0.750000 -0.064212
C24   C     C_1   0.750000 0.765172 0.250000 -0.064212
C25   C     C_R   0.283617 0.318827 0.728711 -0.167952
C26   C     C_R   0.716383 0.318827 0.271288 -0.167952
C27   C     C_R   0.716383 0.318827 0.728711 -0.167952
C28   C     C_R   0.283617 0.318827 0.271288 -0.167952
C29   C     C_R   0.783617 0.318827 0.228711 -0.167952
C30   C     C_R   0.216383 0.318827 0.771289 -0.167951
C31   C     C_R   0.216383 0.318827 0.228711 -0.167953
C32   C     C_R   0.783617 0.318827 0.771289 -0.167951
C33   C     C_R   0.783617 0.818827 0.728711 -0.167952
C34   C     C_R   0.216383 0.818827 0.271288 -0.167952
C35   C     C_R   0.216383 0.818827 0.728711 -0.167952
C36   C     C_R   0.783617 0.818827 0.271288 -0.167952
C37   C     C_R   0.283617 0.818827 0.228711 -0.167952
C38   C     C_R   0.716383 0.818827 0.771289 -0.167951
C39   C     C_R   0.716383 0.818827 0.228711 -0.167952
C40   C     C_R   0.283617 0.818827 0.771289 -0.167951
C41   C     C_R   0.283659 0.353981 0.728684 -0.199228
C42   C     C_R   0.716341 0.353981 0.271316 -0.199228
C43   C     C_R   0.716341 0.353981 0.728684 -0.199228
C44   C     C_R   0.283659 0.353981 0.271316 -0.199229
C45   C     C_R   0.783659 0.353981 0.228684 -0.199229
C46   C     C_R   0.216341 0.353981 0.771316 -0.199230
C47   C     C_R   0.216341 0.353981 0.228684 -0.199228
C48   C     C_R   0.783659 0.353981 0.771316 -0.199230
C49   C     C_R   0.783659 0.853981 0.728684 -0.199228
C50   C     C_R   0.216341 0.853981 0.271316 -0.199229
C51   C     C_R   0.216341 0.853981 0.728684 -0.199228
C52   C     C_R   0.783659 0.853981 0.271316 -0.199229
C53   C     C_R   0.283659 0.853981 0.228684 -0.199229
C54   C     C_R   0.716341 0.853981 0.771316 -0.199230
C55   C     C_R   0.716341 0.853981 0.228684 -0.199228
C56   C     C_R   0.283659 0.853981 0.771316 -0.199230
C57   C     C_R   0.250000 0.371903 0.750000 -0.005454
C58   C     C_R   0.750000 0.371903 0.250000 -0.005454
C59   C     C_R   0.750000 0.371903 0.750000 -0.005454
C60   C     C_R   0.250000 0.371903 0.250000 -0.005454
C61   C     C_R   0.750000 0.871903 0.750000 -0.005454
C62   C     C_R   0.250000 0.871903 0.250000 -0.005454
C63   C     C_R   0.250000 0.871903 0.750000 -0.005454
C64   C     C_R   0.750000 0.871903 0.250000 -0.005454
C65   C     C_R   0.250000 0.301255 0.750000 0.160123
C66   C     C_R   0.750000 0.301255 0.250000 0.160124
C67   C     C_R   0.750000 0.301255 0.750000 0.160123
C68   C     C_R   0.250000 0.301255 0.250000 0.160124
C69   C     C_R   0.750000 0.801255 0.750000 0.160124
C70   C     C_R   0.250000 0.801255 0.250000 0.160124
C71   C     C_R   0.250000 0.801255 0.750000 0.160124
C72   C     C_R   0.750000 0.801255 0.250000 0.160124
C73   C     C_3   0.029677 0.474725 0.776599 -0.357040
C74   C     C_3   0.970323 0.474724 0.223402 -0.357042
C75   C     C_3   0.970323 0.474725 0.776599 -0.357039
C76   C     C_3   0.029677 0.474724 0.223402 -0.357039
C77   C     C_3   0.529677 0.474724 0.276598 -0.357042
C78   C     C_3   0.470323 0.474723 0.723403 -0.357038
C79   C     C_3   0.470323 0.474725 0.276598 -0.357041
C80   C     C_3   0.529677 0.474723 0.723403 -0.357040
C81   C     C_3   0.529677 0.974726 0.776600 -0.357042
C82   C     C_3   0.470323 0.974725 0.223401 -0.357039
C83   C     C_3   0.470323 0.974726 0.776600 -0.357039
C84   C     C_3   0.529677 0.974724 0.223402 -0.357039
C85   C     C_3   0.029677 0.974724 0.276597 -0.357037
C86   C     C_3   0.970323 0.974725 0.723401 -0.357038
C87   C     C_3   0.970323 0.974723 0.276597 -0.357041
C88   C     C_3   0.029677 0.974725 0.723401 -0.357040
C89   C     C_3   0.030388 0.536856 0.758948 -0.244299
C90   C     C_3   0.969612 0.536855 0.241051 -0.244299
C91   C     C_3   0.969612 0.536856 0.758948 -0.244298
C92   C     C_3   0.030388 0.536855 0.241051 -0.244298
C93   C     C_3   0.530388 0.536855 0.258949 -0.244296
C94   C     C_3   0.469612 0.536855 0.741050 -0.244299
C95   C     C_3   0.469612 0.536855 0.258948 -0.244298
C96   C     C_3   0.530388 0.536855 0.741050 -0.244299
C97   C     C_3   0.530388 0.036856 0.758946 -0.244296
C98   C     C_3   0.469612 0.036855 0.241052 -0.244298
C99   C     C_3   0.469612 0.036856 0.758946 -0.244298
C100  C     C_3   0.530388 0.036855 0.241051 -0.244299
C101  C     C_3   0.030388 0.036855 0.258949 -0.244299
C102  C     C_3   0.969612 0.036856 0.741052 -0.244299
C103  C     C_3   0.969612 0.036855 0.258950 -0.244302
C104  C     C_3   0.030388 0.036856 0.741052 -0.244298
C105  C     C_3   0.029931 0.490336 0.715478 -0.427035
C106  C     C_3   0.970069 0.490337 0.284522 -0.427038
C107  C     C_3   0.970069 0.490336 0.715478 -0.427036
C108  C     C_3   0.029930 0.490337 0.284522 -0.427036
C109  C     C_3   0.529930 0.490337 0.215478 -0.427036
C110  C     C_3   0.470069 0.490338 0.784522 -0.427035
C111  C     C_3   0.470069 0.490337 0.215478 -0.427036
C112  C     C_3   0.529930 0.490338 0.784522 -0.427034
C113  C     C_3   0.529930 0.990335 0.715479 -0.427038
C114  C     C_3   0.470069 0.990336 0.284522 -0.427037
C115  C     C_3   0.470069 0.990335 0.715479 -0.427037
C116  C     C_3   0.529930 0.990337 0.284522 -0.427033
C117  C     C_3   0.029930 0.990338 0.215478 -0.427037
C118  C     C_3   0.970069 0.990336 0.784521 -0.427036
C119  C     C_3   0.970069 0.990338 0.215478 -0.427033
C120  C     C_3   0.029930 0.990336 0.784521 -0.427036
C121  C     C_3   0.050969 0.500644 0.750656 0.095838
C122  C     C_3   0.949031 0.500644 0.249343 0.095837
C123  C     C_3   0.949031 0.500644 0.750656 0.095838
C124  C     C_3   0.050969 0.500644 0.249343 0.095839
C125  C     C_3   0.550969 0.500644 0.250657 0.095836
C126  C     C_3   0.449031 0.500644 0.749344 0.095838
C127  C     C_3   0.449031 0.500644 0.250657 0.095837
C128  C     C_3   0.550969 0.500644 0.749344 0.095838
C129  C     C_3   0.550969 0.000644 0.750657 0.095838
C130  C     C_3   0.449031 0.000644 0.249343 0.095838
C131  C     C_3   0.449031 0.000644 0.750657 0.095837
C132  C     C_3   0.550969 0.000644 0.249343 0.095837
C133  C     C_3   0.050969 0.000643 0.250656 0.095838
C134  C     C_3   0.949031 0.000644 0.749343 0.095837
C135  C     C_3   0.949031 0.000643 0.250656 0.095838
C136  C     C_3   0.050969 0.000644 0.749343 0.095837
C137  C     C_R   0.283879 0.478934 0.431234 -0.162907
C138  C     C_R   0.716121 0.478934 0.568766 -0.162907
C139  C     C_R   0.716121 0.478934 0.431234 -0.162907
C140  C     C_R   0.283879 0.478934 0.568766 -0.162907
C141  C     C_R   0.783879 0.478934 0.931234 -0.162907
C142  C     C_R   0.216121 0.478934 0.068766 -0.162907
C143  C     C_R   0.216121 0.478934 0.931234 -0.162907
C144  C     C_R   0.783879 0.478934 0.068766 -0.162907
C145  C     C_R   0.783879 0.978934 0.431234 -0.162907
C146  C     C_R   0.216121 0.978934 0.568766 -0.162907
C147  C     C_R   0.216121 0.978934 0.431234 -0.162907
C148  C     C_R   0.783879 0.978934 0.568766 -0.162907
C149  C     C_R   0.283879 0.978934 0.931234 -0.162907
C150  C     C_R   0.716121 0.978934 0.068766 -0.162908
C151  C     C_R   0.716121 0.978934 0.931234 -0.162908
C152  C     C_R   0.283879 0.978934 0.068766 -0.162908
C153  C     C_R   0.249987 0.500076 0.841052 0.791747
C154  C     C_R   0.750012 0.500076 0.158948 0.791747
C155  C     C_R   0.750012 0.500076 0.841052 0.791748
C156  C     C_R   0.249987 0.500076 0.158948 0.791748
C157  C     C_R   0.749987 0.500076 0.341052 0.791747
C158  C     C_R   0.250012 0.500076 0.658948 0.791748
C159  C     C_R   0.250012 0.500076 0.341052 0.791748
C160  C     C_R   0.749987 0.500076 0.658948 0.791747
C161  C     C_R   0.749988 0.000076 0.841052 0.791747
C162  C     C_R   0.250012 0.000076 0.158948 0.791748
C163  C     C_R   0.250012 0.000076 0.841052 0.791747
C164  C     C_R   0.749987 0.000076 0.158948 0.791747
C165  C     C_R   0.249987 0.000076 0.341052 0.791748
C166  C     C_R   0.750012 0.000076 0.658948 0.791747
C167  C     C_R   0.750012 0.000076 0.341052 0.791747
C168  C     C_R   0.249987 0.000076 0.658948 0.791747
C169  C     C_R   0.283860 0.478871 0.396090 -0.183869
C170  C     C_R   0.716140 0.478871 0.603910 -0.183869
C171  C     C_R   0.716140 0.478871 0.396090 -0.183870
C172  C     C_R   0.283860 0.478871 0.603910 -0.183869
C173  C     C_R   0.783860 0.478871 0.896090 -0.183870
C174  C     C_R   0.216140 0.478871 0.103910 -0.183869
C175  C     C_R   0.216140 0.478871 0.896090 -0.183870
C176  C     C_R   0.783860 0.478871 0.103910 -0.183870
C177  C     C_R   0.783860 0.978871 0.396090 -0.183869
C178  C     C_R   0.216140 0.978871 0.603910 -0.183870
C179  C     C_R   0.216140 0.978871 0.396090 -0.183869
C180  C     C_R   0.783860 0.978871 0.603910 -0.183870
C181  C     C_R   0.283860 0.978871 0.896090 -0.183871
C182  C     C_R   0.716140 0.978871 0.103910 -0.183870
C183  C     C_R   0.716140 0.978871 0.896090 -0.183871
C184  C     C_R   0.283860 0.978871 0.103910 -0.183869
C185  C     C_R   0.250076 0.500113 0.378179 -0.007572
C186  C     C_R   0.749924 0.500113 0.621820 -0.007572
C187  C     C_R   0.749924 0.500113 0.378179 -0.007572
C188  C     C_R   0.250076 0.500113 0.621820 -0.007572
C189  C     C_R   0.750076 0.500113 0.878179 -0.007571
C190  C     C_R   0.249924 0.500113 0.121820 -0.007571
C191  C     C_R   0.249924 0.500113 0.878179 -0.007571
C192  C     C_R   0.750076 0.500113 0.121820 -0.007572
C193  C     C_R   0.750076 0.000113 0.378179 -0.007572
C194  C     C_R   0.249924 0.000113 0.621820 -0.007571
C195  C     C_R   0.249924 0.000113 0.378179 -0.007572
C196  C     C_R   0.750076 0.000113 0.621820 -0.007571
C197  C     C_R   0.250076 0.000113 0.878179 -0.007571
C198  C     C_R   0.749924 0.000113 0.121820 -0.007571
C199  C     C_R   0.749924 0.000113 0.878179 -0.007571
C200  C     C_R   0.250076 0.000113 0.121820 -0.007571
C201  C     C_R   0.216370 0.521400 0.396097 -0.197240
C202  C     C_R   0.783629 0.521400 0.603902 -0.197240
C203  C     C_R   0.783629 0.521400 0.396097 -0.197240
C204  C     C_R   0.216370 0.521400 0.603902 -0.197240
C205  C     C_R   0.716370 0.521400 0.896097 -0.197240
C206  C     C_R   0.283629 0.521400 0.103902 -0.197240
C207  C     C_R   0.283629 0.521400 0.896097 -0.197239
C208  C     C_R   0.716370 0.521400 0.103902 -0.197240
C209  C     C_R   0.716370 0.021400 0.396097 -0.197240
C210  C     C_R   0.283629 0.021400 0.603902 -0.197239
C211  C     C_R   0.283629 0.021400 0.396097 -0.197240
C212  C     C_R   0.716370 0.021400 0.603902 -0.197239
C213  C     C_R   0.216370 0.021400 0.896097 -0.197239
C214  C     C_R   0.783629 0.021400 0.103902 -0.197240
C215  C     C_R   0.783629 0.021400 0.896097 -0.197239
C216  C     C_R   0.216370 0.021400 0.103902 -0.197240
C217  C     C_R   0.216473 0.521407 0.431241 -0.166886
C218  C     C_R   0.783527 0.521406 0.568758 -0.166885
C219  C     C_R   0.783527 0.521407 0.431241 -0.166886
C220  C     C_R   0.216473 0.521407 0.568758 -0.166886
C221  C     C_R   0.716473 0.521407 0.931241 -0.166886
C222  C     C_R   0.283527 0.521406 0.068758 -0.166886
C223  C     C_R   0.283527 0.521407 0.931241 -0.166887
C224  C     C_R   0.716473 0.521407 0.068758 -0.166886
C225  C     C_R   0.716473 0.021406 0.431241 -0.166886
C226  C     C_R   0.283527 0.021407 0.568758 -0.166886
C227  C     C_R   0.283527 0.021407 0.431241 -0.166886
C228  C     C_R   0.716473 0.021407 0.568758 -0.166886
C229  C     C_R   0.216473 0.021407 0.931241 -0.166887
C230  C     C_R   0.783527 0.021406 0.068758 -0.166886
C231  C     C_R   0.783527 0.021407 0.931241 -0.166886
C232  C     C_R   0.216473 0.021406 0.068758 -0.166886
C233  C     C_R   0.250202 0.500185 0.448802 0.158438
C234  C     C_R   0.749798 0.500185 0.551198 0.158437
C235  C     C_R   0.749798 0.500185 0.448802 0.158438
C236  C     C_R   0.250202 0.500185 0.551198 0.158438
C237  C     C_R   0.750202 0.500185 0.948802 0.158438
C238  C     C_R   0.249798 0.500185 0.051198 0.158438
C239  C     C_R   0.249798 0.500185 0.948802 0.158438
C240  C     C_R   0.750202 0.500185 0.051198 0.158438
C241  C     C_R   0.750202 0.000185 0.448802 0.158438
C242  C     C_R   0.249798 0.000185 0.551198 0.158438
C243  C     C_R   0.249798 0.000185 0.448802 0.158438
C244  C     C_R   0.750202 0.000185 0.551198 0.158438
C245  C     C_R   0.250202 0.000185 0.948802 0.158438
C246  C     C_R   0.749798 0.000185 0.051198 0.158438
C247  C     C_R   0.749798 0.000185 0.948802 0.158438
C248  C     C_R   0.250202 0.000185 0.051198 0.158438
C249  C     C_1   0.250227 0.500197 0.484872 -0.062217
C250  C     C_1   0.749773 0.500197 0.515128 -0.062217
C251  C     C_1   0.749773 0.500197 0.484872 -0.062217
C252  C     C_1   0.250227 0.500197 0.515128 -0.062217
C253  C     C_1   0.750227 0.500196 0.984872 -0.062217
C254  C     C_1   0.249773 0.500197 0.015128 -0.062217
C255  C     C_1   0.249773 0.500196 0.984872 -0.062217
C256  C     C_1   0.750227 0.500197 0.015128 -0.062217
C257  C     C_1   0.750227 0.000196 0.484872 -0.062217
C258  C     C_1   0.249773 0.000197 0.515128 -0.062217
C259  C     C_1   0.249773 0.000196 0.484872 -0.062217
C260  C     C_1   0.750227 0.000197 0.515128 -0.062217
C261  C     C_1   0.250227 0.000197 0.984872 -0.062217
C262  C     C_1   0.749773 0.000197 0.015128 -0.062217
C263  C     C_1   0.749773 0.000197 0.984872 -0.062217
C264  C     C_1   0.250227 0.000197 0.015128 -0.062217
C265  C     C_R   0.250000 0.591039 0.750000 0.814544
C266  C     C_R   0.750000 0.591039 0.250000 0.814545
C267  C     C_R   0.750000 0.591039 0.750000 0.814544
C268  C     C_R   0.250000 0.591039 0.250000 0.814543
C269  C     C_R   0.750000 0.091039 0.750000 0.814543
C270  C     C_R   0.250000 0.091039 0.250000 0.814543
C271  C     C_R   0.250000 0.091039 0.750000 0.814543
C272  C     C_R   0.750000 0.091039 0.250000 0.814545
C273  C     C_R   0.250000 0.409044 0.750000 0.779477
C274  C     C_R   0.750000 0.409044 0.250000 0.779477
C275  C     C_R   0.750000 0.409044 0.750000 0.779477
C276  C     C_R   0.250000 0.409044 0.250000 0.779477
C277  C     C_R   0.750000 0.909044 0.750000 0.779478
C278  C     C_R   0.250000 0.909044 0.250000 0.779477
C279  C     C_R   0.250000 0.909044 0.750000 0.779478
C280  C     C_R   0.750000 0.909044 0.250000 0.779477
C281  C     C_R   0.284338 0.181250 0.729203 -0.163268
C282  C     C_R   0.715662 0.181250 0.270797 -0.163267
C283  C     C_R   0.715662 0.181250 0.729203 -0.163268
C284  C     C_R   0.284338 0.181250 0.270797 -0.163267
C285  C     C_R   0.784337 0.181250 0.229203 -0.163267
C286  C     C_R   0.215662 0.181250 0.770797 -0.163268
C287  C     C_R   0.215662 0.181250 0.229203 -0.163267
C288  C     C_R   0.784338 0.181250 0.770797 -0.163268
C289  C     C_R   0.784338 0.681250 0.729203 -0.163267
C290  C     C_R   0.215662 0.681250 0.270797 -0.163267
C291  C     C_R   0.215662 0.681250 0.729203 -0.163267
C292  C     C_R   0.784338 0.681250 0.270797 -0.163267
C293  C     C_R   0.284338 0.681250 0.229203 -0.163267
C294  C     C_R   0.715662 0.681250 0.770797 -0.163267
C295  C     C_R   0.715662 0.681250 0.229203 -0.163267
C296  C     C_R   0.284338 0.681250 0.770797 -0.163267
C297  C     C_R   0.284376 0.146097 0.729173 -0.176262
C298  C     C_R   0.715624 0.146097 0.270827 -0.176263
C299  C     C_R   0.715623 0.146097 0.729173 -0.176262
C300  C     C_R   0.284376 0.146097 0.270827 -0.176263
C301  C     C_R   0.784376 0.146097 0.229173 -0.176265
C302  C     C_R   0.215623 0.146097 0.770827 -0.176262
C303  C     C_R   0.215624 0.146097 0.229173 -0.176264
C304  C     C_R   0.784376 0.146097 0.770827 -0.176262
C305  C     C_R   0.784376 0.646097 0.729173 -0.176262
C306  C     C_R   0.215624 0.646097 0.270827 -0.176263
C307  C     C_R   0.215624 0.646097 0.729173 -0.176262
C308  C     C_R   0.784376 0.646097 0.270827 -0.176264
C309  C     C_R   0.284376 0.646097 0.229173 -0.176264
C310  C     C_R   0.715624 0.646097 0.770827 -0.176265
C311  C     C_R   0.715624 0.646097 0.229173 -0.176264
C312  C     C_R   0.284376 0.646097 0.770827 -0.176265
C313  C     C_R   0.250000 0.128177 0.750000 -0.012249
C314  C     C_R   0.750000 0.128177 0.250000 -0.012246
C315  C     C_R   0.750000 0.128177 0.750000 -0.012249
C316  C     C_R   0.250000 0.128177 0.250000 -0.012247
C317  C     C_R   0.750000 0.628177 0.750000 -0.012247
C318  C     C_R   0.250000 0.628177 0.250000 -0.012248
C319  C     C_R   0.250000 0.628177 0.750000 -0.012247
C320  C     C_R   0.750000 0.628177 0.250000 -0.012246
C321  C     C_R   0.250000 0.198822 0.750000 0.155342
C322  C     C_R   0.750000 0.198822 0.250000 0.155342
C323  C     C_R   0.750000 0.198822 0.750000 0.155342
C324  C     C_R   0.250000 0.198822 0.250000 0.155342
C325  C     C_R   0.750000 0.698822 0.750000 0.155342
C326  C     C_R   0.250000 0.698822 0.250000 0.155342
C327  C     C_R   0.250000 0.698822 0.750000 0.155342
C328  C     C_R   0.750000 0.698822 0.250000 0.155342
C329  C     C_1   0.250000 0.234905 0.750000 -0.059891
C330  C     C_1   0.750000 0.234905 0.250000 -0.059891
C331  C     C_1   0.750000 0.234905 0.750000 -0.059891
C332  C     C_1   0.250000 0.234905 0.250000 -0.059891
C333  C     C_1   0.750000 0.734905 0.750000 -0.059891
C334  C     C_1   0.250000 0.734905 0.250000 -0.059891
C335  C     C_1   0.250000 0.734905 0.750000 -0.059891
C336  C     C_1   0.750000 0.734905 0.250000 -0.059891
H1    H     H_    0.311057 0.194712 0.713030 0.136964
H2    H     H_    0.688943 0.194712 0.286971 0.136964
H3    H     H_    0.688943 0.194712 0.713030 0.136965
H4    H     H_    0.311057 0.194712 0.286971 0.136964
H5    H     H_    0.811057 0.194713 0.213029 0.136964
H6    H     H_    0.188943 0.194712 0.786970 0.136964
H7    H     H_    0.188943 0.194713 0.213029 0.136964
H8    H     H_    0.811057 0.194712 0.786970 0.136964
H9    H     H_    0.811057 0.694712 0.713029 0.136964
H10   H     H_    0.188943 0.694712 0.286971 0.136964
H11   H     H_    0.188943 0.694712 0.713029 0.136964
H12   H     H_    0.811057 0.694712 0.286971 0.136964
H13   H     H_    0.311057 0.694712 0.213029 0.136964
H14   H     H_    0.688943 0.694713 0.786971 0.136964
H15   H     H_    0.688943 0.694712 0.213029 0.136964
H16   H     H_    0.311057 0.694713 0.786971 0.136964
H17   H     H_    0.042309 0.553234 0.737490 0.147525
H18   H     H_    0.957690 0.553234 0.262507 0.147524
H19   H     H_    0.957691 0.553234 0.737490 0.147525
H20   H     H_    0.042308 0.553234 0.262509 0.147525
H21   H     H_    0.542309 0.553234 0.237492 0.147524
H22   H     H_    0.457691 0.553234 0.762507 0.147524
H23   H     H_    0.457691 0.553234 0.237491 0.147525
H24   H     H_    0.542309 0.553234 0.762506 0.147524
H25   H     H_    0.542309 0.053233 0.737488 0.147526
H26   H     H_    0.457691 0.053234 0.262509 0.147525
H27   H     H_    0.457691 0.053233 0.737488 0.147526
H28   H     H_    0.542309 0.053234 0.262508 0.147524
H29   H     H_    0.042308 0.053234 0.237493 0.147525
H30   H     H_    0.957691 0.053234 0.762510 0.147525
H31   H     H_    0.957690 0.053235 0.237494 0.147524
H32   H     H_    0.042309 0.053234 0.762510 0.147525
H33   H     H_    0.310119 0.462427 0.444693 0.137057
H34   H     H_    0.689881 0.462427 0.555307 0.137057
H35   H     H_    0.689881 0.462427 0.444693 0.137057
H36   H     H_    0.310119 0.462427 0.555307 0.137057
H37   H     H_    0.810118 0.462427 0.944693 0.137057
H38   H     H_    0.189881 0.462427 0.055307 0.137057
H39   H     H_    0.189881 0.462427 0.944693 0.137057
H40   H     H_    0.810118 0.462427 0.055307 0.137057
H41   H     H_    0.810118 0.962427 0.444693 0.137057
H42   H     H_    0.189882 0.962427 0.555307 0.137057
H43   H     H_    0.189881 0.962427 0.444693 0.137057
H44   H     H_    0.810118 0.962427 0.555307 0.137057
H45   H     H_    0.310118 0.962427 0.944693 0.137056
H46   H     H_    0.689882 0.962427 0.055307 0.137057
H47   H     H_    0.689882 0.962427 0.944693 0.137056
H48   H     H_    0.310118 0.962427 0.055307 0.137057
H49   H     H_    0.310261 0.462220 0.382982 0.163166
H50   H     H_    0.689739 0.462220 0.617018 0.163166
H51   H     H_    0.689739 0.462220 0.382982 0.163166
H52   H     H_    0.310261 0.462220 0.617018 0.163166
H53   H     H_    0.810261 0.462220 0.882982 0.163165
H54   H     H_    0.189739 0.462220 0.117018 0.163166
H55   H     H_    0.189739 0.462220 0.882982 0.163165
H56   H     H_    0.810261 0.462220 0.117018 0.163166
H57   H     H_    0.810261 0.962220 0.382982 0.163166
H58   H     H_    0.189739 0.962220 0.617018 0.163165
H59   H     H_    0.189739 0.962220 0.382982 0.163166
H60   H     H_    0.810261 0.962220 0.617018 0.163165
H61   H     H_    0.310261 0.962220 0.882982 0.163165
H62   H     H_    0.689739 0.962220 0.117018 0.163165
H63   H     H_    0.689739 0.962220 0.882982 0.163165
H64   H     H_    0.310261 0.962220 0.117018 0.163165
H65   H     H_    0.189928 0.538028 0.382995 0.160309
H66   H     H_    0.810071 0.538028 0.617005 0.160309
H67   H     H_    0.810071 0.538028 0.382995 0.160309
H68   H     H_    0.189928 0.538028 0.617005 0.160309
H69   H     H_    0.689928 0.538028 0.882995 0.160309
H70   H     H_    0.310071 0.538028 0.117005 0.160309
H71   H     H_    0.310071 0.538028 0.882995 0.160309
H72   H     H_    0.689928 0.538028 0.117005 0.160309
H73   H     H_    0.689928 0.038028 0.382995 0.160309
H74   H     H_    0.310071 0.038028 0.617005 0.160309
H75   H     H_    0.310071 0.038028 0.382995 0.160309
H76   H     H_    0.689928 0.038028 0.617005 0.160309
H77   H     H_    0.189928 0.038028 0.882995 0.160309
H78   H     H_    0.810071 0.038028 0.117005 0.160309
H79   H     H_    0.810071 0.038028 0.882995 0.160309
H80   H     H_    0.189928 0.038028 0.117005 0.160309
H81   H     H_    0.190273 0.537936 0.444706 0.134808
H82   H     H_    0.809726 0.537936 0.555294 0.134807
H83   H     H_    0.809726 0.537936 0.444706 0.134808
H84   H     H_    0.190274 0.537936 0.555294 0.134808
H85   H     H_    0.690273 0.537936 0.944706 0.134808
H86   H     H_    0.309726 0.537936 0.055294 0.134807
H87   H     H_    0.309726 0.537936 0.944706 0.134808
H88   H     H_    0.690273 0.537936 0.055294 0.134808
H89   H     H_    0.690273 0.037936 0.444706 0.134807
H90   H     H_    0.309726 0.037936 0.555294 0.134808
H91   H     H_    0.309726 0.037936 0.444706 0.134808
H92   H     H_    0.690273 0.037936 0.555294 0.134808
H93   H     H_    0.190274 0.037936 0.944706 0.134808
H94   H     H_    0.809727 0.037936 0.055294 0.134807
H95   H     H_    0.809726 0.037936 0.944706 0.134808
H96   H     H_    0.190273 0.037936 0.055294 0.134807
H97   H     H_    0.311313 0.132990 0.712889 0.166158
H98   H     H_    0.688687 0.132990 0.287111 0.166156
H99   H     H_    0.688686 0.132990 0.712889 0.166158
H100  H     H_    0.311313 0.132990 0.287111 0.166157
H101  H     H_    0.811313 0.132990 0.212889 0.166155
H102  H     H_    0.188686 0.132990 0.787111 0.166157
H103  H     H_    0.188687 0.132990 0.212889 0.166156
H104  H     H_    0.811314 0.132990 0.787111 0.166157
H105  H     H_    0.811313 0.632990 0.712889 0.166157
H106  H     H_    0.188687 0.632990 0.287111 0.166157
H107  H     H_    0.188687 0.632990 0.712889 0.166156
H108  H     H_    0.811313 0.632990 0.287111 0.166156
H109  H     H_    0.311313 0.632990 0.212889 0.166156
H110  H     H_    0.688687 0.632990 0.787111 0.166156
H111  H     H_    0.688687 0.632990 0.212889 0.166156
H112  H     H_    0.311313 0.632990 0.787111 0.166156
H113  H     H_    0.309770 0.305364 0.712151 0.135337
H114  H     H_    0.690230 0.305364 0.287849 0.135337
H115  H     H_    0.690230 0.305364 0.712151 0.135337
H116  H     H_    0.309770 0.305364 0.287849 0.135337
H117  H     H_    0.809770 0.305364 0.212151 0.135337
H118  H     H_    0.190230 0.305364 0.787849 0.135337
H119  H     H_    0.190230 0.305364 0.212151 0.135337
H120  H     H_    0.809770 0.305364 0.787849 0.135337
H121  H     H_    0.809770 0.805365 0.712151 0.135337
H122  H     H_    0.190230 0.805365 0.287849 0.135337
H123  H     H_    0.190230 0.805365 0.712151 0.135337
H124  H     H_    0.809770 0.805365 0.287849 0.135337
H125  H     H_    0.309770 0.805365 0.212151 0.135337
H126  H     H_    0.690230 0.805365 0.787849 0.135336
H127  H     H_    0.690230 0.805365 0.212151 0.135337
H128  H     H_    0.309770 0.805365 0.787849 0.135336
H129  H     H_    0.310011 0.367090 0.712001 0.159903
H130  H     H_    0.689989 0.367090 0.287999 0.159903
H131  H     H_    0.689989 0.367090 0.712001 0.159903
H132  H     H_    0.310011 0.367090 0.287999 0.159903
H133  H     H_    0.810010 0.367090 0.212001 0.159904
H134  H     H_    0.189989 0.367090 0.787999 0.159904
H135  H     H_    0.189989 0.367090 0.212001 0.159903
H136  H     H_    0.810010 0.367090 0.787999 0.159904
H137  H     H_    0.810011 0.867090 0.712001 0.159903
H138  H     H_    0.189989 0.867090 0.287999 0.159903
H139  H     H_    0.189989 0.867090 0.712001 0.159903
H140  H     H_    0.810011 0.867090 0.287999 0.159903
H141  H     H_    0.310010 0.867090 0.212001 0.159904
H142  H     H_    0.689989 0.867090 0.787999 0.159904
H143  H     H_    0.689989 0.867090 0.212001 0.159903
H144  H     H_    0.310010 0.867090 0.787999 0.159904
H145  H     H_    0.044152 0.479973 0.802380 0.227378
H146  H     H_    0.955847 0.479970 0.197621 0.227378
H147  H     H_    0.955848 0.479973 0.802380 0.227378
H148  H     H_    0.044151 0.479972 0.197621 0.227380
H149  H     H_    0.544152 0.479971 0.302379 0.227378
H150  H     H_    0.455848 0.479970 0.697621 0.227379
H151  H     H_    0.455848 0.479972 0.302379 0.227380
H152  H     H_    0.544152 0.479970 0.697621 0.227379
H153  H     H_    0.544152 0.979975 0.802381 0.227378
H154  H     H_    0.455848 0.979972 0.197620 0.227380
H155  H     H_    0.455848 0.979975 0.802381 0.227377
H156  H     H_    0.544153 0.979971 0.197621 0.227378
H157  H     H_    0.044152 0.979970 0.302379 0.227380
H158  H     H_    0.955848 0.979973 0.697620 0.227377
H159  H     H_    0.955847 0.979969 0.302378 0.227378
H160  H     H_    0.044152 0.979973 0.697620 0.227378
H161  H     H_    0.043569 0.449001 0.769999 0.167828
H162  H     H_    0.956431 0.449000 0.230004 0.167828
H163  H     H_    0.956431 0.449001 0.769999 0.167828
H164  H     H_    0.043570 0.449000 0.230002 0.167827
H165  H     H_    0.543569 0.449000 0.269997 0.167828
H166  H     H_    0.456431 0.448999 0.730004 0.167826
H167  H     H_    0.456430 0.449001 0.269998 0.167828
H168  H     H_    0.543569 0.448999 0.730004 0.167826
H169  H     H_    0.543569 0.949002 0.770001 0.167830
H170  H     H_    0.456430 0.949000 0.230001 0.167827
H171  H     H_    0.456431 0.949002 0.770001 0.167829
H172  H     H_    0.543569 0.949000 0.230003 0.167827
H173  H     H_    0.043570 0.949000 0.269996 0.167825
H174  H     H_    0.956431 0.949001 0.730001 0.167828
H175  H     H_    0.956431 0.948999 0.269995 0.167826
H176  H     H_    0.043569 0.949001 0.730001 0.167828
H177  H     H_    0.044191 0.508049 0.695832 0.183800
H178  H     H_    0.955809 0.508051 0.304167 0.183803
H179  H     H_    0.955808 0.508049 0.695832 0.183800
H180  H     H_    0.044192 0.508050 0.304168 0.183801
H181  H     H_    0.544191 0.508051 0.195832 0.183801
H182  H     H_    0.455808 0.508052 0.804168 0.183801
H183  H     H_    0.455808 0.508050 0.195832 0.183800
H184  H     H_    0.544191 0.508052 0.804168 0.183802
H185  H     H_    0.544192 0.008047 0.695832 0.183800
H186  H     H_    0.455808 0.008050 0.304168 0.183801
H187  H     H_    0.455808 0.008047 0.695832 0.183800
H188  H     H_    0.544191 0.008051 0.304168 0.183801
H189  H     H_    0.044192 0.008052 0.195832 0.183801
H190  H     H_    0.955808 0.008049 0.804168 0.183800
H191  H     H_    0.955809 0.008053 0.195832 0.183802
H192  H     H_    0.044191 0.008049 0.804168 0.183800
H193  H     H_    0.044294 0.464799 0.708636 0.168852
H194  H     H_    0.955706 0.464801 0.291365 0.168853
H195  H     H_    0.955706 0.464799 0.708637 0.168853
H196  H     H_    0.044293 0.464800 0.291364 0.168853
H197  H     H_    0.544294 0.464801 0.208635 0.168853
H198  H     H_    0.455706 0.464802 0.791366 0.168852
H199  H     H_    0.455707 0.464800 0.208636 0.168853
H200  H     H_    0.544294 0.464802 0.791366 0.168852
H201  H     H_    0.544293 0.964798 0.708638 0.168854
H202  H     H_    0.455707 0.964800 0.291364 0.168853
H203  H     H_    0.455706 0.964798 0.708638 0.168853
H204  H     H_    0.544294 0.964801 0.291365 0.168852
H205  H     H_    0.044293 0.964801 0.208635 0.168853
H206  H     H_    0.955706 0.964799 0.791363 0.168853
H207  H     H_    0.955706 0.964802 0.208634 0.168851
H208  H     H_    0.044294 0.964799 0.791363 0.168853
O1    O     O_3   0.250000 0.500050 0.750000 -0.471318
O2    O     O_3   0.750000 0.500050 0.250000 -0.471318
O3    O     O_3   0.750000 0.500050 0.750000 -0.471318
O4    O     O_3   0.250000 0.500050 0.250000 -0.471318
O5    O     O_3   0.750000 0.000050 0.750000 -0.471318
O6    O     O_3   0.250000 0.000050 0.250000 -0.471318
O7    O     O_3   0.250000 0.000050 0.750000 -0.471318
O8    O     O_3   0.750000 0.000050 0.250000 -0.471318
O9    O     O_R   0.366830 0.480430 0.730440 -0.644173
O10   O     O_R   0.633170 0.480430 0.269560 -0.644174
O11   O     O_R   0.633170 0.480430 0.730440 -0.644173
O12   O     O_R   0.366830 0.480430 0.269560 -0.644173
O13   O     O_R   0.866830 0.480430 0.230440 -0.644174
O14   O     O_R   0.133170 0.480430 0.769560 -0.644174
O15   O     O_R   0.133170 0.480430 0.230440 -0.644173
O16   O     O_R   0.866830 0.480430 0.769560 -0.644173
O17   O     O_R   0.866830 0.980430 0.730440 -0.644174
O18   O     O_R   0.133170 0.980430 0.269560 -0.644172
O19   O     O_R   0.133170 0.980430 0.730440 -0.644174
O20   O     O_R   0.866830 0.980430 0.269560 -0.644173
O21   O     O_R   0.366830 0.980430 0.230440 -0.644173
O22   O     O_R   0.633170 0.980430 0.769560 -0.644175
O23   O     O_R   0.633170 0.980430 0.230440 -0.644173
O24   O     O_R   0.366830 0.980430 0.769560 -0.644175
O25   O     O_R   0.280630 0.519680 0.824880 -0.648879
O26   O     O_R   0.719370 0.519680 0.175120 -0.648879
O27   O     O_R   0.719370 0.519680 0.824880 -0.648879
O28   O     O_R   0.280630 0.519680 0.175120 -0.648879
O29   O     O_R   0.780630 0.519680 0.324880 -0.648879
O30   O     O_R   0.219370 0.519680 0.675120 -0.648879
O31   O     O_R   0.219370 0.519680 0.324880 -0.648879
O32   O     O_R   0.780630 0.519680 0.675120 -0.648879
O33   O     O_R   0.780630 0.019680 0.824880 -0.648878
O34   O     O_R   0.219370 0.019680 0.175120 -0.648879
O35   O     O_R   0.219370 0.019680 0.824880 -0.648878
O36   O     O_R   0.780630 0.019680 0.175120 -0.648879
O37   O     O_R   0.280630 0.019680 0.324880 -0.648879
O38   O     O_R   0.719370 0.019680 0.675120 -0.648878
O39   O     O_R   0.719370 0.019680 0.324880 -0.648879
O40   O     O_R   0.280630 0.019680 0.675120 -0.648878
O41   O     O_R   0.280620 0.574880 0.769680 -0.636413
O42   O     O_R   0.719380 0.574880 0.230320 -0.636412
O43   O     O_R   0.719380 0.574880 0.769680 -0.636413
O44   O     O_R   0.280620 0.574880 0.230320 -0.636412
O45   O     O_R   0.780620 0.574880 0.269680 -0.636412
O46   O     O_R   0.219380 0.574880 0.730320 -0.636411
O47   O     O_R   0.219380 0.574880 0.269680 -0.636411
O48   O     O_R   0.780620 0.574880 0.730320 -0.636411
O49   O     O_R   0.780620 0.074880 0.769680 -0.636411
O50   O     O_R   0.219380 0.074880 0.230320 -0.636412
O51   O     O_R   0.219380 0.074880 0.769680 -0.636411
O52   O     O_R   0.780620 0.074880 0.230320 -0.636413
O53   O     O_R   0.280620 0.074880 0.269680 -0.636411
O54   O     O_R   0.719380 0.074880 0.730320 -0.636410
O55   O     O_R   0.719380 0.074880 0.269680 -0.636412
O56   O     O_R   0.280620 0.074880 0.730320 -0.636410
O57   O     O_R   0.280640 0.425230 0.730430 -0.648845
O58   O     O_R   0.719360 0.425230 0.269570 -0.648845
O59   O     O_R   0.719360 0.425230 0.730430 -0.648845
O60   O     O_R   0.280640 0.425230 0.269570 -0.648846
O61   O     O_R   0.780640 0.425230 0.230430 -0.648846
O62   O     O_R   0.219360 0.425230 0.769570 -0.648845
O63   O     O_R   0.219360 0.425230 0.230430 -0.648845
O64   O     O_R   0.780640 0.425230 0.769570 -0.648845
O65   O     O_R   0.780640 0.925230 0.730430 -0.648845
O66   O     O_R   0.219360 0.925230 0.269570 -0.648846
O67   O     O_R   0.219360 0.925230 0.730430 -0.648845
O68   O     O_R   0.780640 0.925230 0.269570 -0.648846
O69   O     O_R   0.280640 0.925230 0.230430 -0.648845
O70   O     O_R   0.719360 0.925230 0.769570 -0.648845
O71   O     O_R   0.719360 0.925230 0.230430 -0.648845
O72   O     O_R   0.280640 0.925230 0.769570 -0.648845
O73   O     O_R   0.219380 0.480450 0.824880 -0.640985
O74   O     O_R   0.780620 0.480450 0.175120 -0.640985
O75   O     O_R   0.780620 0.480450 0.824880 -0.640985
O76   O     O_R   0.219380 0.480450 0.175120 -0.640984
O77   O     O_R   0.719380 0.480450 0.324880 -0.640985
O78   O     O_R   0.280620 0.480450 0.675120 -0.640984
O79   O     O_R   0.280620 0.480450 0.324880 -0.640984
O80   O     O_R   0.719380 0.480450 0.675120 -0.640984
O81   O     O_R   0.719380 0.980450 0.824880 -0.640985
O82   O     O_R   0.280620 0.980450 0.175120 -0.640985
O83   O     O_R   0.280620 0.980450 0.824880 -0.640985
O84   O     O_R   0.719380 0.980450 0.175120 -0.640985
O85   O     O_R   0.219380 0.980450 0.324880 -0.640984
O86   O     O_R   0.780620 0.980450 0.675120 -0.640985
O87   O     O_R   0.780620 0.980450 0.324880 -0.640984
O88   O     O_R   0.219380 0.980450 0.675120 -0.640985
O89   O     O_R   0.366830 0.519670 0.769670 -0.642736
O90   O     O_R   0.633170 0.519670 0.230330 -0.642734
O91   O     O_R   0.633170 0.519670 0.769670 -0.642735
O92   O     O_R   0.366830 0.519670 0.230330 -0.642735
O93   O     O_R   0.866830 0.519670 0.269670 -0.642734
O94   O     O_R   0.133170 0.519670 0.730330 -0.642734
O95   O     O_R   0.133170 0.519670 0.269670 -0.642735
O96   O     O_R   0.866830 0.519670 0.730330 -0.642735
O97   O     O_R   0.866830 0.019670 0.769670 -0.642734
O98   O     O_R   0.133170 0.019670 0.230330 -0.642736
O99   O     O_R   0.133170 0.019670 0.769670 -0.642734
O100  O     O_R   0.866830 0.019670 0.230330 -0.642735
O101  O     O_R   0.366830 0.019670 0.269670 -0.642734
O102  O     O_R   0.633170 0.019670 0.730330 -0.642733
O103  O     O_R   0.633170 0.019670 0.269670 -0.642735
O104  O     O_R   0.366830 0.019670 0.730330 -0.642733
Zn1   Zn    Zn3+2 0.206240 0.472030 0.778080 0.972836
Zn2   Zn    Zn3+2 0.793760 0.472030 0.221920 0.972837
Zn3   Zn    Zn3+2 0.793760 0.472030 0.778080 0.972836
Zn4   Zn    Zn3+2 0.206240 0.472030 0.221920 0.972837
Zn5   Zn    Zn3+2 0.706240 0.472030 0.278080 0.972837
Zn6   Zn    Zn3+2 0.293760 0.472030 0.721920 0.972838
Zn7   Zn    Zn3+2 0.293760 0.472030 0.278080 0.972837
Zn8   Zn    Zn3+2 0.706240 0.472030 0.721920 0.972838
Zn9   Zn    Zn3+2 0.706240 0.972030 0.778080 0.972835
Zn10  Zn    Zn3+2 0.293760 0.972030 0.221920 0.972837
Zn11  Zn    Zn3+2 0.293760 0.972030 0.778080 0.972835
Zn12  Zn    Zn3+2 0.706240 0.972030 0.221920 0.972837
Zn13  Zn    Zn3+2 0.206240 0.972030 0.278080 0.972838
Zn14  Zn    Zn3+2 0.793760 0.972030 0.721920 0.972836
Zn15  Zn    Zn3+2 0.793760 0.972030 0.278080 0.972838
Zn16  Zn    Zn3+2 0.206240 0.972030 0.721920 0.972836
Zn17  Zn    Zn3+2 0.293760 0.528090 0.778080 0.987511
Zn18  Zn    Zn3+2 0.706240 0.528090 0.221920 0.987512
Zn19  Zn    Zn3+2 0.706240 0.528090 0.778080 0.987512
Zn20  Zn    Zn3+2 0.293760 0.528090 0.221920 0.987513
Zn21  Zn    Zn3+2 0.793760 0.528090 0.278080 0.987512
Zn22  Zn    Zn3+2 0.206240 0.528090 0.721920 0.987513
Zn23  Zn    Zn3+2 0.206240 0.528090 0.278080 0.987513
Zn24  Zn    Zn3+2 0.793760 0.528090 0.721920 0.987513
Zn25  Zn    Zn3+2 0.793760 0.028090 0.778080 0.987513
Zn26  Zn    Zn3+2 0.206240 0.028090 0.221920 0.987512
Zn27  Zn    Zn3+2 0.206240 0.028090 0.778080 0.987513
Zn28  Zn    Zn3+2 0.793760 0.028090 0.221920 0.987511
Zn29  Zn    Zn3+2 0.293760 0.028090 0.278080 0.987513
Zn30  Zn    Zn3+2 0.706240 0.028090 0.721920 0.987514
Zn31  Zn    Zn3+2 0.706240 0.028090 0.278080 0.987512
Zn32  Zn    Zn3+2 0.293760 0.028090 0.721920 0.987514
C337  C     C_2   0.055773 0.552748 0.789658 0.920038
O105  O     O_2   0.053212 0.539323 0.817304 -0.596800
O106  O     O_R   0.083048 0.582935 0.785888 -0.807872
H209  H     H_    0.098744 0.591114 0.807815 0.343810
C338  C     C_2   0.944227 0.552746 0.210340 0.920042
O107  O     O_2   0.946790 0.539319 0.182695 -0.596800
O108  O     O_R   0.916952 0.582933 0.214108 -0.807875
H210  H     H_    0.901256 0.591110 0.192181 0.343811
C339  C     C_2   0.944226 0.552749 0.789657 0.920037
O109  O     O_2   0.946787 0.539323 0.817303 -0.596800
O110  O     O_R   0.916952 0.582936 0.785887 -0.807873
H211  H     H_    0.901255 0.591114 0.807814 0.343811
C340  C     C_2   0.055774 0.552748 0.210342 0.920038
O111  O     O_2   0.053214 0.539321 0.182696 -0.596801
O112  O     O_R   0.083047 0.582935 0.214111 -0.807873
H212  H     H_    0.098745 0.591113 0.192185 0.343811
C341  C     C_2   0.555773 0.552747 0.289659 0.920041
O113  O     O_2   0.553211 0.539320 0.317305 -0.596801
O114  O     O_R   0.583048 0.582933 0.285891 -0.807875
H213  H     H_    0.598744 0.591111 0.307818 0.343811
C342  C     C_2   0.444227 0.552746 0.710340 0.920038
O115  O     O_2   0.446788 0.539319 0.682694 -0.596800
O116  O     O_R   0.416953 0.582933 0.714107 -0.807873
H214  H     H_    0.401255 0.591110 0.692180 0.343811
C343  C     C_2   0.444226 0.552748 0.289658 0.920041
O117  O     O_2   0.446786 0.539321 0.317304 -0.596801
O118  O     O_R   0.416953 0.582935 0.285889 -0.807873
H215  H     H_    0.401255 0.591113 0.307815 0.343811
C344  C     C_2   0.555773 0.552746 0.710340 0.920038
O119  O     O_2   0.553212 0.539319 0.682694 -0.596800
O120  O     O_R   0.583048 0.582933 0.714107 -0.807873
H216  H     H_    0.598744 0.591110 0.692180 0.343811
C345  C     C_2   0.555773 0.052750 0.789655 0.920039
O121  O     O_2   0.553212 0.039326 0.817302 -0.596803
O122  O     O_R   0.583048 0.082937 0.785884 -0.807872
H217  H     H_    0.598745 0.091116 0.807810 0.343810
C346  C     C_2   0.444226 0.052748 0.210342 0.920037
O123  O     O_2   0.446786 0.039322 0.182696 -0.596800
O124  O     O_R   0.416952 0.082935 0.214112 -0.807873
H218  H     H_    0.401255 0.091114 0.192185 0.343811
C347  C     C_2   0.444227 0.052750 0.789655 0.920038
O125  O     O_2   0.446788 0.039325 0.817302 -0.596802
O126  O     O_R   0.416952 0.082936 0.785885 -0.807872
H219  H     H_    0.401255 0.091116 0.807811 0.343811
C348  C     C_2   0.555773 0.052747 0.210341 0.920039
O127  O     O_2   0.553211 0.039320 0.182695 -0.596800
O128  O     O_R   0.583047 0.082934 0.214109 -0.807874
H220  H     H_    0.598744 0.091111 0.192182 0.343811
C349  C     C_2   0.055774 0.052746 0.289660 0.920037
O129  O     O_2   0.053214 0.039319 0.317305 -0.596800
O130  O     O_R   0.083047 0.082934 0.285892 -0.807873
H221  H     H_    0.098745 0.091112 0.307818 0.343811
C350  C     C_2   0.944227 0.052748 0.710343 0.920040
O131  O     O_2   0.946788 0.039323 0.682697 -0.596801
O132  O     O_R   0.916952 0.082935 0.714112 -0.807873
H222  H     H_    0.901255 0.091114 0.692186 0.343811
C351  C     C_2   0.944227 0.052745 0.289661 0.920040
O133  O     O_2   0.946789 0.039318 0.317306 -0.596799
O134  O     O_R   0.916952 0.082932 0.285894 -0.807874
H223  H     H_    0.901256 0.091109 0.307821 0.343811
C352  C     C_2   0.055773 0.052748 0.710343 0.920038
O135  O     O_2   0.053212 0.039323 0.682697 -0.596801
O136  O     O_R   0.083048 0.082935 0.714113 -0.807872
H224  H     H_    0.098745 0.091114 0.692186 0.343811

loop_
_geom_bond_atom_site_label_1
_geom_bond_atom_site_label_2
_ccdc_geom_bond_type
C40   C71   A    
C284  H4    S    
C345  O122  S    
O132  H222  S    
O54   Zn30  S    
C143  C175  A    
C117  C133  S    
C234  C250  S    
C58   C274  S    
C6    O94   A    
C77   C125  S    
C179  C195  A    
C340  O111  D    
C90   C338  S    
C3    O11   A    
C153  O25   A    
C238  C254  S    
C30   H118  S    
C34   H122  S    
C92   C340  S    
C117  C119  S    
O70   Zn9   S    
C97   C345  S    
C157  O29   A    
C102  H30   S    
C15   O103  A    
C36   H124  S    
C109  H181  S    
O57   Zn6   S    
C296  C312  A    
C162  C200  S    
C25   H113  S    
C160  O32   A    
C205  H69   S    
O7    Zn32  S    
O86   Zn14  S    
C159  O79   A    
O61   Zn2   S    
C155  C189  S    
O4    Zn23  S    
C28   H116  S    
C303  C316  A    
C37   H125  S    
C190  C206  A    
C15   C132  S    
C270  O53   A    
C201  H65   S    
O56   Zn32  S    
C12   C135  S    
C94   C342  S    
C117  H189  S    
C13   C130  S    
O102  Zn30  S    
C139  C171  A    
C227  C243  A    
C140  H36   S    
C78   H150  S    
C119  H191  S    
C169  C185  A    
C290  C326  A    
C180  C196  A    
C33   C69   A    
C292  H12   S    
C85   C87   S    
C38   C69   A    
C35   C71   A    
C74   H146  S    
C267  O43   A    
C271  C313  S    
O72   Zn11  S    
C147  H43   S    
C14   O102  A    
C203  C219  A    
C108  C124  S    
C165  C195  S    
C137  C233  A    
C24   C336  T    
C291  C307  A    
C85   H157  S    
C77   C79   S    
C300  C316  A    
C301  C314  A    
C118  H206  S    
C34   C50   A    
C86   C88   S    
C301  H101  S    
O116  H214  S    
C164  O84   A    
C143  C239  A    
C307  C319  A    
C207  H71   S    
C308  C320  A    
C25   C41   A    
C208  H72   S    
C274  O61   A    
C82   H170  S    
O91   Zn19  S    
C273  O62   A    
C175  H55   S    
C348  O127  D    
O25   Zn17  S    
C99   C131  S    
C28   C44   A    
C275  O64   A    
C221  C237  A    
C271  O56   A    
C26   C66   A    
C4    O12   A    
C16   O24   A    
C83   C131  S    
O101  Zn29  S    
C86   C134  S    
C84   H172  S    
C90   C92   S    
O126  H219  S    
C228  C244  A    
C147  C243  A    
C299  H99   S    
C311  C320  A    
C294  H14   S    
C148  H44   S    
C31   H119  S    
C312  C319  A    
C281  C321  A    
C298  H98   S    
C94   C96   S    
O82   Zn10  S    
C292  C308  A    
C278  O69   A    
O89   Zn17  S    
O22   Zn9   S    
C167  O87   A    
C76   H164  S    
C176  C192  A    
O19   Zn16  S    
C155  O27   A    
C101  C133  S    
C302  C313  A    
C139  C235  A    
O7    Zn27  S    
C98   C130  S    
C198  C214  A    
C269  O49   A    
C213  C229  A    
O1    Zn22  S    
O4    Zn20  S    
O5    Zn25  S    
C297  H97   S    
C214  C230  A    
C79   C127  S    
C18   C66   S    
C6    O14   A    
C4    C127  S    
C172  H52   S    
C20   C68   S    
C231  C247  A    
C47   H135  S    
C166  O38   A    
C8    C123  S    
C54   C61   A    
C165  O37   A    
C80   C128  S    
C177  C193  A    
C92   H20   S    
C337  O105  D    
O53   Zn29  S    
C283  H3    S    
C18   C330  T    
C223  C239  A    
C11   C136  S    
C151  C247  A    
C154  O74   A    
C2    O10   A    
C5    C122  S    
C87   H175  S    
O21   Zn10  S    
C188  C204  A    
C12   O20   A    
C110  H182  S    
O93   Zn21  S    
C118  C120  S    
C52   H140  S    
O58   Zn5   S    
C307  H107  S    
C153  O73   A    
C285  C322  A    
C274  O58   A    
C147  C179  A    
C273  O57   A    
C352  O136  S    
C339  O109  D    
C113  H201  S    
O62   Zn1   S    
C181  H61   S    
C271  O51   A    
C7    O95   A    
C289  C305  A    
C50   H138  S    
C247  C263  S    
C7    O15   A    
C248  C264  S    
O66   Zn13  S    
C288  H8    S    
O6    Zn29  S    
C224  H88   S    
C207  C223  A    
C296  C327  A    
C187  C203  A    
C326  C334  S    
C277  O65   A    
O52   Zn28  S    
C244  C260  S    
O31   Zn23  S    
C181  C197  A    
C220  H84   S    
C48   H136  S    
C283  C323  A    
C321  C329  S    
C210  H74   S    
C105  C107  S    
C219  H83   S    
O63   Zn4   S    
C74   C76   S    
C112  H184  S    
C199  C215  A    
C149  C245  A    
C28   C68   A    
O4    Zn7   S    
C44   C60   A    
O8    Zn28  S    
C109  C111  S    
O1    Zn17  S    
C341  O114  S    
C194  C210  A    
C117  H205  S    
C176  H56   S    
C139  H35   S    
C144  C240  A    
C119  H207  S    
C157  O77   A    
C342  O116  S    
C16   C131  S    
O6    Zn10  S    
C42   C58   A    
C280  O68   A    
O46   Zn22  S    
C115  H187  S    
C184  C200  A    
C116  C132  S    
O15   Zn4   S    
C118  H190  S    
C89   C91   S    
C38   H126  S    
C149  C181  A    
C85   H173  S    
C118  C134  S    
C43   C59   A    
O3    Zn8   S    
C37   C53   A    
O98   Zn26  S    
C19   C331  T    
C79   H167  S    
C294  C325  A    
C170  H50   S    
C91   C123  S    
C337  O106  S    
C35   H123  S    
C236  C252  S    
C33   H121  S    
C81   C83   S    
C3    O91   A    
C77   H165  S    
C265  O46   A    
C144  H40   S    
O68   Zn15  S    
C111  H199  S    
C39   C55   A    
C100  C348  S    
C290  C306  A    
C75   H163  S    
C267  O48   A    
C145  C241  A    
C76   C124  S    
C219  C235  A    
C105  C121  S    
C73   H161  S    
C1    C126  S    
C206  H70   S    
C303  H103  S    
C246  C262  S    
C97   C99   S    
O1    Zn1   S    
C304  H104  S    
O27   Zn19  S    
C3    C128  S    
C160  O80   A    
C40   C56   A    
C5    O13   A    
O7    Zn16  S    
C202  H66   S    
O110  H211  S    
C21   C69   S    
C232  C248  A    
C311  H111  S    
C290  H10   S    
C350  O131  D    
C283  C299  A    
C230  H94   S    
C268  C318  S    
C309  C318  A    
C106  H194  S    
O65   Zn14  S    
C144  C176  A    
O10   Zn5   S    
O30   Zn22  S    
C347  O125  D    
C88   H176  S    
C191  C207  A    
O4    Zn4   S    
C156  O76   A    
C32   C67   A    
C1    O9    A    
C215  H79   S    
C216  H80   S    
C146  H42   S    
C54   H142  S    
C286  H6    S    
O33   Zn25  S    
C138  H34   S    
C166  O86   A    
O95   Zn23  S    
C165  O85   A    
C26   C42   A    
C48   C59   A    
C107  H179  S    
O59   Zn8   S    
C153  C191  S    
C150  C246  A    
C154  C192  S    
C249  C252  T    
C60   C276  S    
O16   Zn3   S    
C77   H149  S    
C30   C46   A    
C157  C187  S    
C46   H134  S    
C158  C188  S    
C230  C246  A    
C261  C264  T    
C45   H133  S    
C229  C245  A    
C151  C183  A    
C262  C263  T    
C145  C177  A    
C310  C317  A    
C57   C273  S    
C103  C351  S    
C43   H131  S    
O67   Zn16  S    
C95   H23   S    
C257  C260  T    
C41   H129  S    
C202  C218  A    
O24   Zn11  S    
C114  H186  S    
C258  C259  T    
C105  H193  S    
C232  H96   S    
C63   C279  S    
C104  C352  S    
C106  C108  S    
C206  C222  A    
O12   Zn7   S    
C306  C318  A    
C231  H95   S    
C200  C216  A    
C285  C301  A    
O37   Zn29  S    
C30   C65   A    
C227  H91   S    
C149  H45   S    
C2    C125  S    
O35   Zn27  S    
C209  H73   S    
C61   C277  S    
C163  C197  S    
O104  Zn32  S    
C101  C103  S    
C33   C49   A    
C93   H21   S    
C164  C198  S    
C148  C244  A    
O43   Zn19  S    
O103  Zn31  S    
C196  C212  A    
C6    C121  S    
C113  C115  S    
C101  H29   S    
C22   C70   S    
C36   C72   A    
C102  C350  S    
C89   H17   S    
C184  H64   S    
C82   C130  S    
C89   C337  S    
C141  H37   S    
C112  H200  S    
C88   H160  S    
C85   C133  S    
O3    Zn3   S    
C114  C130  S    
C10   C133  S    
C107  C123  S    
O106  H209  S    
C137  H33   S    
C298  C314  A    
O64   Zn3   S    
C327  C335  S    
C233  C249  S    
C150  C182  A    
C163  O83   A    
C178  C194  A    
C24   C72   S    
O17   Zn14  S    
C204  C220  A    
C277  O70   A    
C237  C253  S    
C276  O63   A    
C143  H39   S    
C29   H117  S    
C92   C124  S    
O47   Zn23  S    
C108  H180  S    
C96   H24   S    
C183  H63   S    
C94   C126  S    
C225  C241  A    
C26   H114  S    
O83   Zn11  S    
O2    Zn21  S    
C289  C325  A    
C4    O92   A    
C167  C193  S    
O36   Zn28  S    
C185  C201  A    
C344  O120  S    
O60   Zn7   S    
O3    Zn24  S    
O8    Zn31  S    
O26   Zn18  S    
C186  C202  A    
C83   H171  S    
C8    O96   A    
O55   Zn31  S    
C189  C205  A    
C116  H188  S    
C98   C346  S    
C19   C67   S    
C235  C251  S    
C104  C136  S    
C34   C70   A    
O6    Zn13  S    
C285  H5    S    
C120  H192  S    
C163  O35   A    
C280  O71   A    
C293  C309  A    
C84   C132  S    
C97   C129  S    
O2    Zn18  S    
C245  C261  S    
O120  H216  S    
C148  C180  A    
C31   C47   A    
C37   C70   A    
C281  H1    S    
C32   C48   A    
O11   Zn8   S    
C96   C344  S    
C346  O124  S    
C209  C225  A    
C73   H145  S    
O3    Zn19  S    
C86   H158  S    
C152  H48   S    
C348  O128  S    
C31   C68   A    
C328  C336  S    
C27   H115  S    
C113  H185  S    
C45   C58   A    
C49   C61   A    
O8    Zn12  S    
C221  H85   S    
O124  H218  S    
C87   C135  S    
C51   C63   A    
C88   C136  S    
C322  C330  S    
O40   Zn32  S    
C281  C297  A    
O130  H221  S    
C106  H178  S    
C208  C224  A    
C168  O40   A    
C23   C335  T    
C250  C251  T    
C338  O107  D    
O44   Zn20  S    
O7    Zn11  S    
C119  C135  S    
C39   H127  S    
C110  H198  S    
C15   O23   A    
C269  O54   A    
C295  C328  A    
O128  H220  S    
O100  Zn28  S    
C16   O104  A    
C254  C255  T    
C23   C71   S    
C253  C256  T    
C96   C128  S    
C266  O42   A    
C114  C116  S    
O108  H210  S    
C38   C54   A    
C111  H183  S    
C29   C66   A    
C170  C186  A    
C171  H51   S    
C9    O17   A    
C272  C314  S    
C222  H86   S    
C164  O36   A    
C169  H49   S    
C212  H76   S    
C94   H22   S    
O5    Zn30  S    
C113  C129  S    
C81   H169  S    
C288  C323  A    
C74   C122  S    
C10   O98   A    
C213  H77   S    
C340  O112  S    
C177  H57   S    
C178  H58   S    
C52   C64   A    
C75   C123  S    
C138  C234  A    
C349  O130  S    
C217  C233  A    
C78   C126  S    
C268  O47   A    
C272  O52   A    
C197  C213  A    
C204  H68   S    
C304  C315  A    
O84   Zn12  S    
C99   C347  S    
C217  H81   S    
C76   H148  S    
C142  C238  A    
C27   C43   A    
O51   Zn27  S    
C284  C300  A    
C310  H110  S    
C32   H120  S    
O49   Zn25  S    
C286  C302  A    
C166  C196  S    
C305  C317  A    
C11   O99   A    
C288  C304  A    
C287  C303  A    
C269  C315  S    
C214  H78   S    
C9    O97   A    
C228  H92   S    
O48   Zn24  S    
C270  C316  S    
C106  C122  S    
C229  H93   S    
C97   H25   S    
C302  H102  S    
O38   Zn30  S    
C210  C226  A    
C343  O118  S    
C41   C57   A    
O114  H213  S    
C224  C240  A    
O96   Zn24  S    
C100  C132  S    
C17   C329  T    
O34   Zn26  S    
C159  C185  S    
C341  O113  D    
C282  C322  A    
C89   C121  S    
C158  O78   A    
O20   Zn15  S    
C91   C339  S    
C100  H28   S    
C145  H41   S    
O42   Zn18  S    
C87   H159  S    
C78   C80   S    
C291  H11   S    
C342  O115  D    
C98   C100  S    
C1    O89   A    
C152  C248  A    
C286  C321  A    
C116  H204  S    
C161  O33   A    
O118  H215  S    
C212  C228  A    
C95   C127  S    
C305  H105  S    
C22   C334  T    
C151  H47   S    
C343  O117  D    
C29   C45   A    
C140  C236  A    
C25   C65   A    
C90   H18   S    
C51   H139  S    
C75   H147  S    
C338  O108  S    
C14   O22   A    
C172  C188  A    
C49   H137  S    
C14   C129  S    
C156  C190  S    
C152  C184  A    
C154  O26   A    
O81   Zn9   S    
O122  H217  S    
C312  H112  S    
O2    Zn5   S    
C101  C349  S    
C138  C170  A    
C345  O121  D    
C325  C333  S    
C279  O72   A    
C182  C198  A    
C160  C186  S    
C7    C124  S    
O112  H212  S    
O28   Zn20  S    
C142  C174  A    
C115  C131  S    
C346  O123  D    
C146  C178  A    
C352  O135  D    
C265  O41   A    
C306  H106  S    
C215  C231  A    
C55   H143  S    
C284  C324  A    
C110  C126  S    
C83   H155  S    
O29   Zn21  S    
C268  O44   A    
C175  C191  A    
C81   H153  S    
O74   Zn2   S    
C162  O82   A    
C270  O50   A    
C44   H132  S    
O78   Zn6   S    
C226  C242  A    
C120  H208  S    
C282  H2    S    
C240  C256  S    
C173  C189  A    
C82   H154  S    
C103  C135  S    
C82   C84   S    
C105  H177  S    
C110  C112  S    
C351  O134  S    
C47   C60   A    
C161  O81   A    
C295  C311  A    
O134  H223  S    
C112  C128  S    
C179  H59   S    
C339  O110  S    
C59   C275  S    
C90   C122  S    
C109  H197  S    
C39   C72   A    
O99   Zn27  S    
C86   H174  S    
C91   H19   S    
C114  H202  S    
C242  C258  S    
C137  C169  A    
C107  H195  S    
C98   H26   S    
C299  C315  A    
C9    C134  S    
C182  H62   S    
C140  C172  A    
C168  C194  S    
C293  C326  A    
C141  C173  A    
O90   Zn18  S    
O32   Zn24  S    
C2    O90   A    
C296  H16   S    
C168  O88   A    
C156  O28   A    
O71   Zn12  S    
C13   O21   A    
C158  O30   A    
O87   Zn15  S    
C287  C324  A    
O69   Zn10  S    
C150  H46   S    
C275  O59   A    
C161  C199  S    
C293  H13   S    
C74   H162  S    
C27   C67   A    
C218  C234  A    
C56   H144  S    
C78   H166  S    
O76   Zn4   S    
C120  C136  S    
C173  H53   S    
C243  C259  S    
O50   Zn26  S    
C108  H196  S    
C349  O129  D    
C241  C257  S    
O2    Zn2   S    
C183  C199  A    
C79   H151  S    
O8    Zn15  S    
C142  H38   S    
C223  H87   S    
C279  O67   A    
C8    O16   A    
C195  C211  A    
O5    Zn14  S    
C278  O66   A    
C289  H9    S    
C276  O60   A    
C53   C62   A    
C193  C209  A    
C294  C310  A    
C159  O31   A    
C295  H15   S    
C55   C64   A    
C287  H7    S    
C351  O133  D    
C56   C63   A    
O97   Zn25  S    
C180  H60   S    
C102  C104  S    
O79   Zn7   S    
C80   H152  S    
O14   Zn1   S    
C109  C125  S    
C17   C65   S    
C84   H156  S    
C93   C125  S    
C174  C190  A    
C192  C208  A    
C146  C242  A    
C291  C327  A    
C46   C57   A    
C111  C127  S    
C81   C129  S    
C50   C62   A    
C174  H54   S    
C73   C75   S    
O41   Zn17  S    
C239  C255  S    
C10   O18   A    
O136  H224  S    
C99   H27   S    
C282  C298  A    
C103  H31   S    
C167  O39   A    
C141  C237  A    
C12   O100  A    
C5    O93   A    
C265  C319  S    
C220  C236  A    
C266  C320  S    
C267  C317  S    
C36   C52   A    
C95   C343  S    
C272  O55   A    
O77   Zn5   S    
C20   C332  T    
C21   C333  T    
O80   Zn8   S    
C155  O75   A    
O1    Zn6   S    
C324  C332  S    
C308  H108  S    
C73   C121  S    
C42   H130  S    
C171  C187  A    
C64   C280  S    
C53   H141  S    
C13   O101  A    
C162  O34   A    
C201  C217  A    
O88   Zn16  S    
C297  C313  A    
O9    Zn6   S    
C350  O132  S    
O5    Zn9   S    
C80   H168  S    
C35   C51   A    
C300  H100  S    
O18   Zn13  S    
O23   Zn12  S    
C222  C238  A    
C218  H82   S    
C205  C221  A    
O13   Zn2   S    
C347  O126  S    
C266  O45   A    
C323  C331  S    
C40   H128  S    
O75   Zn3   S    
C344  O119  D    
C211  C227  A    
C211  H75   S    
O94   Zn22  S    
O73   Zn1   S    
C102  C134  S    
O92   Zn20  S    
O6    Zn26  S    
C225  H89   S    
C93   C95   S    
O45   Zn21  S    
C104  H32   S    
C216  C232  A    
O39   Zn31  S    
C62   C278  S    
C115  H203  S    
C309  H109  S    
C203  H67   S    
C11   O19   A    
C292  C328  A    
C93   C341  S    
O85   Zn13  S    
C226  H90   S    
