data_mof_unit_34181.cif
_audit_creation_date              2012-10-26T19:15:03-0400
_audit_creation_method            fapswitch 2.2
_symmetry_space_group_name_H-M    P1
_symmetry_Int_Tables_number       1
_space_group_crystal_system       triclinic
_cell_length_a                    10.822535
_cell_length_b                    10.819422
_cell_length_c                    9.584396
_cell_angle_alpha                 89.596805
_cell_angle_beta                  89.340261
_cell_angle_gamma                 91.280984
_cell_volume                      1121.8864551

loop_
_atom_site_label
_atom_site_type_symbol
_atom_type_description
_atom_site_fract_x
_atom_site_fract_y
_atom_site_fract_z
_atom_type_partial_charge
C1    C     C_R   0.498669 0.262454 0.500301 0.543513
C2    C     C_R   0.509798 0.935717 0.623419 0.028177
C3    C     C_3   0.617152 0.930010 0.719494 -0.270756
C4    C     C_R   0.262470 0.501400 0.500670 0.541918
C5    C     C_3   0.619959 0.070105 0.717826 -0.270575
C6    C     C_R   0.560234 0.591868 0.071784 0.152877
C7    C     C_R   0.431865 0.416192 0.078017 0.009985
C8    C     C_R   0.431461 0.414467 0.929873 0.095176
C9    C     C_R   0.559913 0.592243 0.924588 0.151328
C10   C     C_3   0.694820 0.623077 0.917157 -0.277899
C11   C     C_3   0.695068 0.622054 0.075193 -0.282888
C12   C     C_R   0.934160 0.482134 0.622088 0.018793
C13   C     C_R   0.498568 0.737504 0.499707 0.546872
C14   C     C_R   0.737553 0.501738 0.499507 0.546734
C15   C     C_R   0.061473 0.483036 0.623454 0.026059
C16   C     C_R   0.129428 0.511479 0.502410 0.010617
C17   C     C_R   0.067291 0.554844 0.384321 -0.159874
C18   C     C_R   0.938346 0.555031 0.383644 -0.164584
C19   C     C_R   0.871010 0.510864 0.500452 0.006412
C20   C     C_3   0.361182 0.308217 0.865722 -0.355208
C21   C     C_3   0.923915 0.368131 0.710638 -0.266417
C22   C     C_3   0.063872 0.369672 0.713220 -0.281403
C23   C     C_R   0.510962 0.063043 0.623512 0.010945
C24   C     C_R   0.489425 0.128997 0.501086 0.006532
C25   C     C_R   0.453637 0.064342 0.380739 -0.161971
C26   C     C_R   0.453650 0.935374 0.380322 -0.163692
C27   C     C_R   0.488903 0.870555 0.500438 0.008805
Cu1   Cu    Cu3+1 0.499990 0.499980 0.640670 0.929346
Cu2   Cu    Cu3+1 0.500010 0.500020 0.359330 0.926099
H1    H     H_    0.117805 0.584681 0.291382 0.135106
H2    H     H_    0.881662 0.385359 0.814594 0.129877
H3    H     H_    0.883611 0.287757 0.653916 0.130313
H4    H     H_    0.101074 0.389696 0.818458 0.135312
H5    H     H_    0.105099 0.289515 0.659226 0.125395
H6    H     H_    0.430148 0.113019 0.285863 0.126785
H7    H     H_    0.430468 0.887072 0.285201 0.133494
H8    H     H_    0.589837 0.890383 0.822892 0.134369
H9    H     H_    0.380091 0.346743 0.137581 0.118789
H10   H     H_    0.315878 0.333378 0.768402 0.187297
H11   H     H_    0.424185 0.230774 0.847629 0.134562
H12   H     H_    0.700049 0.889011 0.670042 0.130969
H13   H     H_    0.286123 0.273451 0.936757 0.061912
H14   H     H_    0.597700 0.110055 0.821232 0.131319
H15   H     H_    0.703707 0.110917 0.665428 0.131445
H16   H     H_    0.749775 0.547826 0.871524 0.153928
H17   H     H_    0.714750 0.715923 0.871378 0.118138
H18   H     H_    0.749182 0.544987 0.118413 0.147011
H19   H     H_    0.714790 0.714396 0.121021 0.122956
H20   H     H_    0.892050 0.586132 0.290999 0.120573
N1    N     N_R   0.500790 0.500930 0.147930 -0.242972
N2    N     N_R   0.500790 0.500890 0.852020 -0.220881
O1    O     O_R   0.500000 0.319640 0.618810 -0.512502
O2    O     O_R   0.500010 0.319680 0.381230 -0.510609
O3    O     O_R   0.319650 0.499970 0.618810 -0.510175
O4    O     O_R   0.319660 0.500010 0.381230 -0.509946
O5    O     O_R   0.499990 0.680320 0.618770 -0.493840
O6    O     O_R   0.500000 0.680360 0.381190 -0.505170
O7    O     O_R   0.680340 0.499990 0.618770 -0.503380
O8    O     O_R   0.680350 0.500030 0.381190 -0.505000

loop_
_geom_bond_atom_site_label_1
_geom_bond_atom_site_label_2
_ccdc_geom_bond_type
C10   H17   S    
C20   H13   S    
C23   C24   A    
C4    C16   S    
C2    C27   A    
C14   O8    A    
Cu1   O7    S    
Cu1   O1    S    
C9    C10   S    
C11   H18   S    
C9    N2    A    
C12   C15   A    
C13   O5    A    
C6    C9    A    
C2    C3    S    
Cu1   O5    S    
C7    C8    A    
C21   C22   S    
C6    N1    A    
C17   H1    S    
C21   H2    S    
C8    N2    A    
C11   H19   S    
C8    C20   S    
Cu2   O2    S    
C10   H16   S    
C20   H11   S    
C12   C21   S    
C12   C19   A    
C26   H7    S    
Cu1   Cu2   S    
C21   H3    S    
C7    H9    S    
Cu2   O6    S    
C17   C18   A    
C3    H12   S    
Cu2   N1    S    
C4    O4    A    
C26   C27   A    
C22   H5    S    
Cu1   N2    S    
C20   H10   S    
C14   O7    A    
C10   C11   S    
C15   C16   A    
C6    C11   S    
C13   O6    A    
C24   C25   A    
C3    H8    S    
C1    C24   S    
C18   C19   A    
C2    C23   A    
C25   H6    S    
C22   H4    S    
Cu1   O3    S    
C5    H14   S    
C1    O2    A    
Cu2   O4    S    
C4    O3    A    
C25   C26   A    
C1    O1    A    
C7    N1    A    
C14   C19   S    
C5    H15   S    
C15   C22   S    
C13   C27   S    
Cu2   O8    S    
C18   H20   S    
C16   C17   A    
C3    C5    S    
C5    C23   S    
