data_mof_unit_34456.cif
_audit_creation_date              2012-12-10T20:58:05-0500
_audit_creation_method            fapswitch 2.2
_symmetry_space_group_name_H-M    P1
_symmetry_Int_Tables_number       1
_space_group_crystal_system       triclinic
_cell_length_a                    18.263954
_cell_length_b                    18.237951
_cell_length_c                    18.350539
_cell_angle_alpha                 120.025451
_cell_angle_beta                  90.017761
_cell_angle_gamma                 119.927289
_cell_volume                      4324.61172233

loop_
_atom_site_label
_atom_site_type_symbol
_atom_type_description
_atom_site_fract_x
_atom_site_fract_y
_atom_site_fract_z
_atom_type_partial_charge
C1    C     C_R   0.360835 0.220034 0.360980 0.791405
C2    C     C_3   0.353556 0.597319 0.302792 -0.366753
C3    C     C_3   0.299156 0.498181 0.301003 0.165656
C4    C     C_3   0.196185 0.496827 0.199069 0.104967
C5    C     C_3   0.163781 0.500980 0.278321 -0.368674
C6    C     C_3   0.294133 0.594117 0.239464 -0.442090
C7    C     C_3   0.675647 0.941430 0.653813 -0.130539
C8    C     C_3   0.736833 0.062116 0.714799 -0.464707
C9    C     C_3   0.682069 0.937783 0.788912 -0.437724
C10   C     C_3   0.799794 0.941389 0.718622 -0.373528
C11   C     C_3   0.698638 0.897483 0.697885 0.112980
C12   C     C_R   0.640867 0.780863 0.639875 0.751044
C13   C     C_3   0.799315 0.102529 0.802486 0.177495
C14   C     C_3   0.740814 0.057926 0.849992 -0.392988
C15   C     C_3   0.858034 0.060579 0.776992 -0.362976
C16   C     C_3   0.641379 0.396095 0.202766 0.374404
C17   C     C_3   0.705256 0.393620 0.147702 -0.455266
C18   C     C_3   0.736336 0.591955 0.298296 -0.519370
C19   C     C_3   0.774636 0.498108 0.337505 -0.473508
C20   C     C_3   0.696682 0.495831 0.300557 0.083163
C21   C     C_3   0.800030 0.497232 0.201023 0.081858
C22   C     C_3   0.790351 0.587459 0.233330 -0.539778
C23   C     C_R   0.359353 0.500641 0.640874 0.786874
C24   C     C_3   0.841464 0.510480 0.284954 0.379536
C25   C     C_R   0.478707 0.195296 0.555374 -0.141869
C26   C     C_R   0.436508 0.154498 0.468014 -0.119863
C27   C     C_R   0.342951 0.098174 0.434585 0.066888
C28   C     C_R   0.292302 0.082213 0.489239 -0.211615
C29   C     C_R   0.333735 0.123682 0.577234 0.525914
C30   C     C_R   0.427940 0.179292 0.609550 -0.198949
C31   C     C_R   0.239861 0.943553 0.285126 -0.258949
C32   C     C_R   0.194330 0.892280 0.195658 -0.054596
C33   C     C_R   0.205284 0.949203 0.160370 -0.006539
C34   C     C_R   0.640258 0.498634 0.359075 0.824219
C35   C     C_R   0.260871 0.056243 0.216226 -0.269444
C36   C     C_R   0.306507 0.107690 0.305888 -0.051638
C37   C     C_R   0.296603 0.050688 0.340912 0.027707
C38   C     C_R   0.200277 0.874045 0.001807 -0.102214
C39   C     C_R   0.157552 0.828458 0.912925 -0.128903
C40   C     C_R   0.074390 0.809598 0.888137 -0.110278
C41   C     C_R   0.033597 0.835786 0.952109 -0.125241
C42   C     C_R   0.076190 0.881505 0.041142 -0.153885
C43   C     C_R   0.159797 0.900843 0.066378 0.152157
C44   C     C_R   0.920606 0.653525 0.589145 -0.167249
C45   C     C_R   0.641812 0.503111 0.643033 0.802362
C46   C     C_R   0.871671 0.591064 0.617758 -0.158811
C47   C     C_R   0.842415 0.628198 0.690103 0.188704
C48   C     C_R   0.863855 0.728884 0.734278 -0.117196
C49   C     C_R   0.912735 0.790951 0.705317 -0.130711
C50   C     C_R   0.940892 0.753174 0.632631 -0.102305
C51   C     C_R   0.840675 0.556651 0.772356 -0.268186
C52   C     C_R   0.799668 0.503053 0.810058 -0.116886
C53   C     C_R   0.707921 0.458562 0.800816 -0.133230
C54   C     C_R   0.659232 0.469959 0.754247 0.401321
C55   C     C_R   0.698691 0.513258 0.707437 -0.181417
C56   C     C_R   0.357707 0.499604 0.359203 0.773199
C57   C     C_R   0.791851 0.563501 0.721978 -0.071090
C58   C     C_R   0.625668 0.292707 0.788189 -0.117862
C59   C     C_R   0.584024 0.236306 0.823706 -0.143913
C60   C     C_R   0.576082 0.284843 0.907902 -0.095822
C61   C     C_R   0.609717 0.389856 0.956730 -0.155442
C62   C     C_R   0.652344 0.446842 0.921902 -0.126015
C63   C     C_R   0.660420 0.398423 0.837345 0.231970
C64   C     C_R   0.430896 0.844143 0.783462 -0.162074
C65   C     C_R   0.396888 0.762805 0.792947 -0.166492
C66   C     C_R   0.321575 0.663624 0.725654 0.151977
C67   C     C_3   0.260649 0.402128 0.202843 -0.438348
C68   C     C_R   0.279905 0.647021 0.649410 -0.096574
C69   C     C_R   0.314852 0.728299 0.639711 -0.116840
C70   C     C_R   0.390302 0.826763 0.706661 -0.103550
C71   C     C_R   0.231325 0.575092 0.789917 -0.265025
C72   C     C_R   0.194729 0.497949 0.805004 -0.058245
C73   C     C_R   0.212515 0.421624 0.765631 0.050857
C74   C     C_R   0.265037 0.423756 0.711148 -0.206070
C75   C     C_R   0.302389 0.501514 0.696727 -0.062869
C76   C     C_R   0.284873 0.578104 0.736461 -0.013699
C77   C     C_R   0.219133 0.355800 0.854774 -0.217728
C78   C     C_3   0.197502 0.398575 0.143026 -0.141471
C79   C     C_R   0.184083 0.277084 0.867680 -0.080950
C80   C     C_R   0.109084 0.177764 0.801909 -0.151688
C81   C     C_R   0.067348 0.157694 0.724121 -0.281421
C82   C     C_R   0.098726 0.238008 0.712938 0.520854
C83   C     C_R   0.176553 0.336930 0.777619 0.042577
C84   C     C_R   0.857259 0.498709 0.143025 0.835208
C85   C     C_R   0.138241 0.499237 0.861246 0.782442
C86   C     C_R   0.856941 0.219083 0.862109 0.743456
C87   C     C_R   0.137617 0.779972 0.141135 0.788291
C88   C     C_R   0.855974 0.500246 0.862412 0.820239
C89   C     C_3   0.219294 0.492605 0.333365 -0.397645
C90   C     C_R   0.138974 0.498907 0.142679 0.750927
H1    H     H_    0.225476 0.330240 0.200706 0.186898
H2    H     H_    0.296261 0.665970 0.277156 0.184076
H3    H     H_    0.243679 0.556525 0.405207 0.176395
H4    H     H_    0.173084 0.576570 0.322703 0.188059
H5    H     H_    0.605360 0.916892 0.649261 0.134499
H6    H     H_    0.778350 0.094071 0.680486 0.174274
H7    H     H_    0.694087 0.091391 0.730451 0.167472
H8    H     H_    0.610307 0.908109 0.778144 0.184247
H9    H     H_    0.696877 0.085382 0.867803 0.174606
H10   H     H_    0.816524 0.914778 0.754785 0.161688
H11   H     H_    0.316514 0.405930 0.176596 0.167401
H12   H     H_    0.816361 0.911978 0.656375 0.216216
H13   H     H_    0.897794 0.088515 0.739819 0.180229
H14   H     H_    0.905941 0.090154 0.838066 0.182971
H15   H     H_    0.697581 0.908424 0.822826 0.162977
H16   H     H_    0.784525 0.086212 0.913200 0.166962
H17   H     H_    0.591916 0.401501 0.173754 0.073102
H18   H     H_    0.710561 0.328539 0.128592 0.216610
H19   H     H_    0.675894 0.378670 0.084956 0.151789
H20   H     H_    0.681729 0.595360 0.276876 0.177002
H21   H     H_    0.226203 0.401911 0.090316 0.126074
H22   H     H_    0.755647 0.576232 0.175011 0.192526
H23   H     H_    0.811867 0.563712 0.409196 0.158283
H24   H     H_    0.745927 0.425205 0.332680 0.209170
H25   H     H_    0.902939 0.591136 0.327449 0.088894
H26   H     H_    0.780827 0.664049 0.366389 0.210631
H27   H     H_    0.857490 0.662666 0.267410 0.189330
H28   H     H_    0.462212 0.209060 0.675793 0.153996
H29   H     H_    0.550871 0.238305 0.580830 0.144205
H30   H     H_    0.476458 0.166273 0.426296 0.116060
H31   H     H_    0.219886 0.036974 0.463174 0.156021
H32   H     H_    0.232685 0.899915 0.311839 0.172245
H33   H     H_    0.267189 0.099480 0.189372 0.173008
H34   H     H_    0.264517 0.887959 0.020356 0.114242
H35   H     H_    0.188926 0.807785 0.863306 0.127497
H36   H     H_    0.041515 0.774502 0.819343 0.135015
H37   H     H_    0.968999 0.820648 0.932680 0.125388
H38   H     H_    0.044150 0.901599 0.090260 0.120639
H39   H     H_    0.978705 0.801219 0.610200 0.126773
H40   H     H_    0.175938 0.418310 0.326545 0.185010
H41   H     H_    0.942860 0.624800 0.533304 0.129663
H42   H     H_    0.856376 0.513994 0.583591 0.120072
H43   H     H_    0.842503 0.758912 0.790820 0.100999
H44   H     H_    0.929041 0.868397 0.739338 0.115049
H45   H     H_    0.911603 0.593375 0.781568 0.185648
H46   H     H_    0.631893 0.254590 0.723021 0.105898
H47   H     H_    0.557779 0.154981 0.785928 0.114001
H48   H     H_    0.543438 0.240898 0.935080 0.104887
H49   H     H_    0.603023 0.427189 0.021725 0.113718
H50   H     H_    0.091319 0.439193 0.254876 0.203289
H51   H     H_    0.679739 0.528549 0.961018 0.095262
H52   H     H_    0.417131 0.889671 0.699190 0.116461
H53   H     H_    0.488812 0.920634 0.835590 0.119483
H54   H     H_    0.429061 0.776938 0.852519 0.121526
H55   H     H_    0.221229 0.571105 0.597329 0.115416
H56   H     H_    0.283444 0.715054 0.580398 0.115456
H57   H     H_    0.218589 0.634246 0.820231 0.170945
H58   H     H_    0.276831 0.363867 0.680013 0.162349
H59   H     H_    0.277968 0.432063 0.905868 0.136152
H60   H     H_    0.215527 0.292943 0.928484 0.144945
H61   H     H_    0.379167 0.667134 0.371960 0.197376
H62   H     H_    0.083198 0.116337 0.811247 0.158719
H63   H     H_    0.009852 0.080174 0.673115 0.150602
H64   H     H_    0.412653 0.604175 0.282053 0.168318
H65   H     H_    0.321620 0.592957 0.185061 0.161973
O1    O     O_3   0.500000 0.500000 0.500000 -0.482070
O2    O     O_R   0.383400 0.560740 0.616060 -0.638606
O3    O     O_R   0.555060 0.439270 0.322940 -0.644799
O4    O     O_R   0.383950 0.268380 0.445700 -0.630734
O5    O     O_R   0.677590 0.731610 0.615290 -0.643602
O6    O     O_3   0.997750 0.500010 0.002220 -0.479820
O7    O     O_R   0.942690 0.560750 0.179280 -0.648698
O8    O     O_R   0.114340 0.439270 0.886160 -0.644826
O9    O     O_R   0.820160 0.268410 0.886930 -0.642784
O10   O     O_R   0.113800 0.731630 0.056520 -0.636225
O11   O     O_R   0.819390 0.439310 0.886160 -0.642518
O12   O     O_R   0.383400 0.268380 0.323710 -0.661929
O13   O     O_R   0.115110 0.560720 0.179280 -0.650620
O14   O     O_R   0.941380 0.560750 0.885620 -0.643103
O15   O     O_R   0.115110 0.439270 0.057830 -0.622321
O16   O     O_R   0.942690 0.268390 0.886930 -0.632571
O17   O     O_R   0.114340 0.731630 0.178520 -0.652126
O18   O     O_R   0.820160 0.439310 0.057830 -0.645059
O19   O     O_R   0.113800 0.560730 0.885620 -0.647336
O20   O     O_R   0.555060 0.731630 0.615290 -0.631577
O21   O     O_R   0.383950 0.439280 0.616600 -0.650662
O22   O     O_R   0.677590 0.560710 0.444390 -0.642540
O23   O     O_R   0.556370 0.439260 0.616600 -0.597253
O24   O     O_R   0.382640 0.439290 0.322940 -0.656409
O25   O     O_R   0.678360 0.560700 0.616060 -0.644041
O26   O     O_R   0.382640 0.560750 0.444390 -0.637305
Zn1   Zn    Zn3+2 0.456040 0.586770 0.543190 0.980980
Zn2   Zn    Zn3+2 0.456820 0.413240 0.543960 0.978215
Zn3   Zn    Zn3+2 0.631110 0.586750 0.543190 0.969751
Zn4   Zn    Zn3+2 0.456040 0.413240 0.369660 0.951604
Zn5   Zn    Zn3+2 0.041710 0.413240 0.959030 0.985306
Zn6   Zn    Zn3+2 0.866640 0.413270 0.959030 0.965748
Zn7   Zn    Zn3+2 0.040930 0.586780 0.958260 0.962499
Zn8   Zn    Zn3+2 0.041710 0.586770 0.132560 0.959333
C91   C     C_2   0.679269 0.899192 0.559745 0.874874
O27   O     O_2   0.609945 0.840635 0.496683 -0.655329
O28   O     O_R   0.761272 0.927791 0.544802 -0.848126
H66   H     H_    0.754473 0.894699 0.479181 0.338744
O29   O     O_3   0.596700 0.305777 0.202194 -0.636523
C92   C     C_3   0.526574 0.218420 0.119941 0.054976
H67   H     H_    0.524250 0.149701 0.103670 0.160802
H68   H     H_    0.537200 0.224136 0.062668 0.112015
C93   C     C_3   0.436524 0.199768 0.128335 -0.303574
H69   H     H_    0.421604 0.180141 0.177228 0.240977
H70   H     H_    0.439690 0.270994 0.152797 0.235352
C94   C     C_3   0.361310 0.111329 0.038689 -0.998287
H71   H     H_    0.372441 0.132323 0.990463 0.262421
H72   H     H_    0.296126 0.095790 0.047476 0.276523
H73   H     H_    0.358615 0.039908 0.011153 0.263898
O30   O     O_3   0.863344 0.438138 0.258803 -0.648466
C95   C     C_3   0.912639 0.456071 0.332779 0.083920
H74   H     H_    0.914382 0.387506 0.306634 0.182815
H75   H     H_    0.879118 0.459728 0.383732 0.117450
C96   C     C_3   0.009525 0.552990 0.376715 -0.381098
H76   H     H_    0.038648 0.554118 0.324032 0.247053
H77   H     H_    0.011451 0.624331 0.416325 0.199344
C97   C     C_3   0.066139 0.555393 0.440278 -0.997440
H78   H     H_    0.038906 0.558319 0.495041 0.266240
H79   H     H_    0.135959 0.625357 0.469953 0.262672
H80   H     H_    0.066865 0.485604 0.404234 0.269773
C98   C     C_2   0.105389 0.296495 0.095354 0.911392
O31   O     O_2   0.061014 0.268958 0.137646 -0.660453
O32   O     O_R   0.072196 0.232520 0.002102 -0.811025
H81   H     H_    0.011010 0.165838 0.977726 0.324498
O33   O     O_3   0.278454 0.097974 0.624669 -0.660091
C99   C     C_3   0.311622 0.180493 0.715925 0.068538
H82   H     H_    0.256144 0.188020 0.731946 0.182765
H83   H     H_    0.367321 0.257548 0.732999 0.130238
C100  C     C_3   0.338719 0.154056 0.773529 -0.327471
H84   H     H_    0.280521 0.079268 0.758011 0.229918
H85   H     H_    0.393509 0.144866 0.757979 0.216946
C101  C     C_3   0.369746 0.237960 0.872766 -0.968296
H86   H     H_    0.425750 0.314438 0.889635 0.270184
H87   H     H_    0.392882 0.218883 0.912461 0.258180
H88   H     H_    0.313635 0.242365 0.891040 0.259710
O34   O     O_3   0.572255 0.436492 0.753783 -0.629455
C102  C     C_3   0.572425 0.524068 0.814189 0.117591
H89   H     H_    0.587283 0.572110 0.788523 0.125390
H90   H     H_    0.623213 0.573186 0.881208 0.104672
C103  C     C_3   0.480299 0.488023 0.824981 -0.317373
H91   H     H_    0.428092 0.432729 0.758173 0.239064
H92   H     H_    0.467902 0.447527 0.857695 0.204208
C104  C     C_3   0.473828 0.579356 0.881281 -0.987870
H93   H     H_    0.525471 0.635571 0.948596 0.260767
H94   H     H_    0.406788 0.551225 0.889050 0.265982
H95   H     H_    0.483227 0.619021 0.848269 0.260133
O35   O     O_3   0.055078 0.220774 0.638612 -0.653717
C105  C     C_3   0.970148 0.200885 0.641766 0.054384
H96   H     H_    0.972705 0.251892 0.710813 0.131999
H97   H     H_    0.921701 0.118434 0.616754 0.183713
C106  C     C_3   0.937203 0.221272 0.582047 -0.304739
H98   H     H_    0.985682 0.303509 0.606447 0.222505
H99   H     H_    0.933275 0.170825 0.512625 0.232896
C107  C     C_3   0.845054 0.199932 0.582056 -0.984787
H100  H     H_    0.794850 0.117137 0.554848 0.282326
H101  H     H_    0.823870 0.217402 0.539505 0.266075
H102  H     H_    0.847335 0.249556 0.650903 0.253671

loop_
_geom_bond_atom_site_label_1
_geom_bond_atom_site_label_2
_ccdc_geom_bond_type
O21   Zn2   S    
C66   C68   A    
C49   H44   S    
C100  C101  S    
C41   C42   A    
C91   O27   D    
C39   H35   S    
C22   H27   S    
C103  H92   S    
C73   C74   A    
C41   H37   S    
C71   H57   S    
C35   C36   A    
C8    H6    S    
C75   C76   A    
O9    Zn6   S    
C100  H84   S    
C72   C85   S    
O1    Zn3   S    
C7    C8    S    
O30   C95   S    
C106  C107  S    
C44   H41   S    
C7    C11   S    
C104  H95   S    
C107  H100  S    
C9    H8    S    
O8    Zn5   S    
C74   H58   S    
C28   C29   A    
C98   O32   S    
O6    Zn7   S    
C10   C15   S    
C46   H42   S    
C71   C76   A    
C95   H75   S    
C96   H77   S    
C56   O26   A    
C19   H23   S    
C9    H15   S    
C105  H96   S    
O12   Zn4   S    
C104  H94   S    
C24   O30   S    
C58   C63   A    
C96   C97   S    
C81   H63   S    
C82   O35   S    
C94   H71   S    
C16   H17   S    
O19   Zn7   S    
C54   C55   A    
C51   H45   S    
C29   O33   S    
O18   Zn6   S    
C101  H86   S    
C16   C17   S    
C105  H97   S    
C13   C86   S    
O25   Zn3   S    
C103  H91   S    
C21   C84   S    
C7    C91   S    
C93   H69   S    
C51   C57   A    
O28   H66   S    
C64   C70   A    
C15   H14   S    
C6    H65   S    
C45   O25   A    
C42   H38   S    
C72   C73   A    
C92   C93   S    
C20   C34   S    
O29   C92   S    
C66   C76   S    
C59   C60   A    
C2    H64   S    
C21   C22   S    
C69   H56   S    
C94   H72   S    
C90   O15   A    
C2    C6    S    
C67   C78   S    
C93   C94   S    
C38   H34   S    
C1    O12   A    
C25   H29   S    
C67   H1    S    
O33   C99   S    
O1    Zn2   S    
C44   C46   A    
C5    H4    S    
C4    C90   S    
C77   C79   A    
C69   C70   A    
C38   C39   A    
C106  H99   S    
C107  H101  S    
O10   Zn7   S    
C70   H52   S    
C74   C75   A    
C51   C52   A    
C33   C43   S    
C47   C48   A    
C48   H43   S    
C52   C88   S    
C98   O31   D    
O14   Zn7   S    
O6    Zn8   S    
C104  H93   S    
C17   H18   S    
C77   H59   S    
C39   C40   A    
C65   H54   S    
O1    Zn1   S    
C95   H74   S    
C61   H49   S    
C23   O21   A    
C30   H28   S    
C19   H24   S    
C58   H46   S    
C58   C59   A    
O26   Zn1   S    
C32   C87   S    
C102  C103  S    
C81   C82   A    
C89   H40   S    
O11   Zn6   S    
C32   C33   A    
C100  H85   S    
C60   C61   A    
O23   Zn2   S    
C8    H7    S    
C4    C78   S    
C29   C30   A    
C50   H39   S    
C47   C57   S    
C99   H82   S    
C3    C56   S    
O20   Zn1   S    
C31   C32   A    
C97   H80   S    
C1    O4    A    
C16   C20   S    
C105  C106  S    
C40   H36   S    
O15   Zn5   S    
C62   C63   A    
C102  H90   S    
C96   H76   S    
C26   C27   A    
C9    C14   S    
C46   C47   A    
C12   O5    A    
C10   H10   S    
C9    C11   S    
C78   H21   S    
C45   O23   A    
C12   O20   A    
C34   O3    A    
C4    C6    S    
C40   C41   A    
C101  H87   S    
C97   H79   S    
C49   C50   A    
C22   H22   S    
C79   H60   S    
C13   C15   S    
C85   O8    A    
C103  C104  S    
C79   C80   A    
C21   C24   S    
C86   O9    A    
C42   C43   A    
C62   H51   S    
C18   H26   S    
C84   O18   A    
O3    Zn4   S    
C78   C98   S    
C54   O34   S    
O34   C102  S    
C84   O7    A    
C52   C53   A    
C67   H11   S    
C5    H50   S    
C44   C50   A    
C25   C30   A    
C80   H62   S    
C106  H98   S    
C36   C37   A    
C107  H102  S    
C91   O28   S    
C88   O14   A    
O16   Zn5   S    
C90   O13   A    
C94   H73   S    
C18   C22   S    
C68   C69   A    
O1    Zn4   S    
C18   H20   S    
C31   H32   S    
C23   C75   S    
C80   C81   A    
C17   H19   S    
C11   C12   S    
C53   C54   A    
O24   Zn4   S    
C64   H53   S    
O17   Zn8   S    
C99   C100  S    
O22   Zn3   S    
C7    H5    S    
C88   O11   A    
C3    C89   S    
C15   H13   S    
C64   C65   A    
C19   C20   S    
C55   C57   A    
C2    C3    S    
C25   C26   A    
O35   C105  S    
C38   C43   A    
C99   H83   S    
C85   O19   A    
C92   H67   S    
C2    H61   S    
C53   C63   S    
C95   C96   S    
C14   H9    S    
O32   H81   S    
C87   O10   A    
C3    C67   S    
C27   C37   S    
C48   C49   A    
C87   O17   A    
C23   O2    A    
C10   H12   S    
C35   H33   S    
C102  H89   S    
C33   C35   A    
C73   C83   S    
C19   C24   S    
C18   C20   S    
C6    H2    S    
C65   C66   A    
C89   H3    S    
C61   C62   A    
O7    Zn8   S    
C17   C21   S    
C16   O29   S    
C10   C11   S    
O13   Zn8   S    
C86   O16   A    
C8    C13   S    
C31   C37   A    
C4    C5    S    
C101  H88   S    
C71   C72   A    
C97   H78   S    
C45   C55   S    
C24   H25   S    
O6    Zn6   S    
C82   C83   A    
O2    Zn1   S    
C14   H16   S    
C27   C28   A    
C26   H30   S    
C77   C83   A    
C34   O22   A    
C93   H70   S    
C28   H31   S    
O4    Zn2   S    
C13   C14   S    
O5    Zn3   S    
C59   H47   S    
C5    C89   S    
C68   H55   S    
C56   O24   A    
C1    C36   S    
C60   H48   S    
C92   H68   S    
O6    Zn5   S    
