data_mof_unit_18576.cif
_audit_creation_date              2013-03-05T16:03:16-0500
_audit_creation_method            fapswitch 2.2
_symmetry_space_group_name_H-M    P1
_symmetry_Int_Tables_number       1
_space_group_crystal_system       triclinic
_cell_length_a                    15.719729
_cell_length_b                    14.978755
_cell_length_c                    14.252677
_cell_angle_alpha                 91.13812
_cell_angle_beta                  89.611291
_cell_angle_gamma                 86.794586
_cell_volume                      3349.94713392

loop_
_atom_site_label
_atom_site_type_symbol
_atom_site_description
_atom_site_fract_x
_atom_site_fract_y
_atom_site_fract_z
_atom_type_partial_charge
O1    O     O_R   0.500020 0.367860 0.580280 -0.557428
O2    O     O_R   0.499980 0.632140 0.419720 -0.594472
O3    O     O_R   0.500020 0.367840 0.419730 -0.653303
O4    O     O_R   0.499980 0.632160 0.580270 -0.648568
C1    C     C_R   0.501602 0.327596 0.499169 0.914978
C2    C     C_R   0.498292 0.672384 0.500801 0.901659
O5    O     O_R   0.376770 0.500000 0.580260 -0.631695
O6    O     O_R   0.623230 0.500000 0.419740 -0.625292
O7    O     O_R   0.376780 0.499980 0.419710 -0.564897
O8    O     O_R   0.623220 0.500020 0.580290 -0.601271
C3    C     C_R   0.338328 0.500522 0.500288 0.873289
C4    C     C_R   0.661673 0.499394 0.499725 0.865154
Zn1   Zn    Zn3+2 0.499990 0.500020 0.607200 0.982235
Zn2   Zn    Zn3+2 0.500010 0.499980 0.392800 0.983826
C5    C     C_3   0.976675 0.428646 0.547865 -0.094170
C6    C     C_3   0.023337 0.570753 0.452215 -0.094203
C7    C     C_3   0.034860 0.424669 0.459976 0.068531
C8    C     C_3   0.965158 0.574731 0.540108 0.068086
C9    C     C_1   0.249632 0.501691 0.500997 -0.074360
C10   C     C_1   0.750372 0.498003 0.499062 -0.091466
C11   C     C_3   0.026041 0.506300 0.589268 -0.100610
C12   C     C_3   0.973967 0.493096 0.410821 -0.101251
C13   C     C_3   0.083664 0.502317 0.501367 0.009044
C14   C     C_3   0.916350 0.497082 0.498725 0.010780
C15   C     C_1   0.174448 0.502465 0.501405 0.124410
C16   C     C_1   0.825561 0.497050 0.498692 0.127440
C17   C     C_R   0.418340 0.817745 0.506699 0.104430
C18   C     C_R   0.581514 0.182140 0.492725 0.123799
C19   C     C_R   0.496905 0.767902 0.502673 -0.045119
C20   C     C_R   0.502969 0.232037 0.497102 -0.049242
C21   C     C_R   0.575272 0.807431 0.499512 0.102787
C22   C     C_R   0.424576 0.192499 0.499648 0.093801
C23   C     C_R   0.575858 0.900017 0.487434 0.083274
C24   C     C_R   0.423901 0.099851 0.511297 0.083322
C25   C     C_R   0.498535 0.952892 0.497705 -0.084764
C26   C     C_R   0.501246 0.046978 0.501032 -0.087037
C27   C     C_R   0.418512 0.912106 0.501268 0.075620
C28   C     C_R   0.581309 0.087735 0.497584 0.069132
C29   C     C_R   0.652353 0.941726 0.469731 0.157927
C30   C     C_R   0.347325 0.058094 0.528630 0.158929
C31   C     C_R   0.657499 0.031769 0.493738 0.181063
C32   C     C_R   0.342313 0.968003 0.504730 0.181834
C33   C     C_R   0.439916 0.552299 0.800911 0.264106
C34   C     C_R   0.553367 0.440125 0.199000 0.265906
N1    N     N_R   0.500040 0.500070 0.750030 -0.145287
N2    N     N_R   0.499960 0.499930 0.249970 -0.145582
C35   C     C_R   0.559392 0.447240 0.797260 0.011823
C36   C     C_R   0.445176 0.558073 0.202947 0.022073
C37   C     C_R   0.554572 0.438021 0.897301 -0.116280
C38   C     C_R   0.436738 0.552188 0.102646 -0.118470
C39   C     C_R   0.495642 0.494455 0.949509 0.063958
C40   C     C_R   0.495087 0.495062 0.050392 0.064537
C41   C     C_R   0.437457 0.550796 0.901066 0.021282
C42   C     C_R   0.553190 0.438578 0.098790 0.019501
C43   C     C_R   0.607196 0.375401 0.947760 -0.006997
C44   C     C_R   0.372961 0.601873 0.051916 -0.015188
C45   C     C_R   0.607992 0.378848 0.045882 -0.225702
C46   C     C_R   0.375872 0.602658 0.953811 -0.224081
H1    H     H_    0.650338 0.330604 0.080187 0.178775
H2    H     H_    0.326052 0.642097 0.919266 0.176378
C47   C     C_3   0.076021 0.339766 0.414857 -0.819428
H3    H     H_    0.025781 0.295343 0.391460 0.242213
H4    H     H_    0.115111 0.357196 0.353454 0.267941
H5    H     H_    0.117537 0.304362 0.466492 0.249013
C48   C     C_3   0.923998 0.659631 0.585234 -0.817159
H6    H     H_    0.974239 0.704037 0.608667 0.241158
H7    H     H_    0.882506 0.695056 0.533592 0.249136
H8    H     H_    0.884880 0.642195 0.646614 0.269677
C49   C     C_2   0.655160 0.297800 0.903085 0.908843
O9    O     O_2   0.618694 0.247168 0.850606 -0.593710
O10   O     O_R   0.740894 0.280042 0.925025 -0.766590
H9    H     H_    0.766476 0.224697 0.891027 0.354289
C50   C     C_2   0.295562 0.645459 0.096012 0.914240
O11   O     O_2   0.248793 0.601614 0.143511 -0.556028
O12   O     O_R   0.273729 0.735346 0.078826 -0.779579
H10   H     H_    0.218926 0.757276 0.111820 0.355187
C51   C     C_2   0.951798 0.348369 0.600736 0.978252
O13   O     O_2   0.006930 0.300107 0.637098 -0.610188
O14   O     O_R   0.866165 0.328926 0.607966 -0.811886
H11   H     H_    0.857716 0.272947 0.644964 0.342993
C52   C     C_2   0.048222 0.651003 0.399290 0.976309
O15   O     O_2   0.993084 0.699290 0.362972 -0.612754
O16   O     O_R   0.133869 0.670373 0.391927 -0.791023
H12   H     H_    0.142318 0.726308 0.354854 0.344032
C53   C     C_2   0.945835 0.485037 0.310770 0.967828
O17   O     O_2   0.998903 0.483219 0.247615 -0.572859
O18   O     O_R   0.859496 0.479600 0.290174 -0.806553
H13   H     H_    0.848715 0.474253 0.220294 0.356233
C54   C     C_2   0.054094 0.514274 0.689350 0.967510
O19   O     O_2   0.000948 0.516312 0.752435 -0.574885
O20   O     O_R   0.140444 0.519315 0.710068 -0.812269
H14   H     H_    0.151153 0.524551 0.779972 0.350470
C55   C     C_3   0.337936 0.770676 0.532171 -0.866496
H15   H     H_    0.349171 0.700020 0.550946 0.220044
H16   H     H_    0.307050 0.803717 0.594957 0.250419
H17   H     H_    0.293536 0.768638 0.472709 0.250212
C56   C     C_3   0.661944 0.229288 0.467562 -0.851058
H18   H     H_    0.650838 0.300188 0.449698 0.216853
H19   H     H_    0.706499 0.230589 0.526923 0.255474
H20   H     H_    0.692587 0.196818 0.404335 0.243991
C57   C     C_3   0.655892 0.751583 0.524489 -0.881325
H21   H     H_    0.705573 0.792839 0.554720 0.252274
H22   H     H_    0.643097 0.704337 0.581160 0.250492
H23   H     H_    0.680853 0.712566 0.462224 0.245208
C58   C     C_3   0.344092 0.248467 0.474446 -0.888208
H24   H     H_    0.294430 0.207326 0.444000 0.254098
H25   H     H_    0.319012 0.287497 0.536649 0.243434
H26   H     H_    0.357122 0.295701 0.417842 0.249650
C59   C     C_3   0.724141 0.897028 0.410870 -0.834586
H27   H     H_    0.779336 0.875761 0.454776 0.241796
H28   H     H_    0.702352 0.838969 0.369896 0.262009
H29   H     H_    0.746255 0.944696 0.358434 0.249972
C60   C     C_3   0.275262 0.102732 0.587137 -0.834699
H30   H     H_    0.296804 0.160827 0.628232 0.260655
H31   H     H_    0.220225 0.123880 0.542941 0.241834
H32   H     H_    0.252987 0.055059 0.639480 0.250534
C61   C     C_3   0.742761 0.059856 0.529559 -0.861322
H33   H     H_    0.782959 0.001404 0.553261 0.244226
H34   H     H_    0.779292 0.092109 0.474093 0.248377
H35   H     H_    0.733639 0.102922 0.593446 0.252731
C62   C     C_3   0.257206 0.939675 0.468704 -0.863560
H36   H     H_    0.217202 0.997978 0.444289 0.244864
H37   H     H_    0.266581 0.896051 0.405256 0.247587
H38   H     H_    0.220406 0.907891 0.524276 0.249806
C63   C     C_3   0.377213 0.615371 0.752451 -0.808032
H39   H     H_    0.387989 0.619459 0.677890 0.285925
H40   H     H_    0.311367 0.594077 0.763108 0.236999
H41   H     H_    0.382627 0.684610 0.780222 0.216592
C64   C     C_3   0.614902 0.375779 0.247475 -0.808671
H42   H     H_    0.613042 0.381472 0.322928 0.287125
H43   H     H_    0.600280 0.305844 0.229414 0.214917
H44   H     H_    0.681301 0.388027 0.226284 0.232422
C65   C     C_2   0.636905 0.413560 0.746487 0.991400
O21   O     O_2   0.703909 0.449122 0.760774 -0.596003
O22   O     O_R   0.635038 0.339703 0.685603 -0.747230
H45   H     H_    0.693345 0.322093 0.658372 0.343402
C66   C     C_2   0.406110 0.636107 0.254866 0.972448
O23   O     O_2   0.436709 0.708901 0.247077 -0.620675
O24   O     O_R   0.332269 0.628374 0.308164 -0.730889
H46   H     H_    0.309048 0.688043 0.334715 0.337616

loop_
_geom_bond_atom_site_label_1
_geom_bond_atom_site_label_2
_geom_bond_distance
_ccdc_geom_bond_type
C18   C56   1.526330 S    
O5    Zn1   1.977244 S    
Zn1   N1    2.035699 S    
O18   H13   1.013784 S    
C57   H21   1.106980 S    
C41   C46   1.410198 A    
C17   C19   1.407182 A    
C8    C11   1.544492 S    
C50   O11   1.222717 D    
C58   H24   1.106921 S    
C25   C26   1.412173 A    
O7    Zn2   1.972192 S    
C33   C63   1.507357 S    
C52   O15   1.221967 D    
O22   H45   1.012121 S    
C29   C31   1.391743 A    
C11   C54   1.500383 S    
C51   O13   1.221969 D    
C8    C48   1.522951 S    
O5    C3    1.293674 A    
C58   H25   1.110002 S    
C3    C9    1.393375 S    
C55   H15   1.101762 S    
C36   C66   1.473116 S    
C24   C30   1.409818 A    
C21   C57   1.527100 S    
C12   C14   1.539210 S    
C55   H17   1.102579 S    
C25   C27   1.429874 A    
C14   C16   1.427215 S    
C64   H42   1.077169 S    
C49   O9    1.222762 D    
C59   H28   1.109274 S    
C45   H1    1.081216 S    
C46   H2    1.081560 S    
O4    Zn1   2.023627 S    
C47   H4    1.109673 S    
C12   C53   1.500424 S    
C27   C32   1.422554 A    
C49   O10   1.397792 S    
C62   H38   1.108252 S    
C7    C47   1.522948 S    
C23   C29   1.409290 A    
C33   C41   1.428392 A    
C30   C60   1.518552 S    
C34   N2    1.384481 A    
C48   H7    1.109989 S    
C63   H41   1.110646 S    
C38   C40   1.416263 A    
C21   C23   1.401388 A    
C54   O20   1.396933 S    
C60   H32   1.111147 S    
C36   C38   1.438019 A    
C55   H16   1.109553 S    
C35   C65   1.472298 S    
C19   C21   1.397163 A    
C50   O12   1.397551 S    
O2    C2    1.292152 A    
N1    C35   1.377300 A    
C9    C15   1.181243 T    
C52   O16   1.396719 S    
C40   C42   1.403993 A    
C56   H18   1.101707 S    
C53   O18   1.397020 S    
C58   H26   1.109058 S    
N2    C36   1.377119 A    
C39   C40   1.437669 A    
C28   C31   1.423093 A    
Zn2   N2    2.035702 S    
C56   H19   1.102563 S    
C59   H29   1.111134 S    
O20   H14   1.013801 S    
O6    Zn2   1.977244 S    
C37   C39   1.415803 A    
C34   C64   1.507741 S    
C53   O17   1.221953 D    
C38   C44   1.424603 A    
C39   C41   1.403879 A    
C22   C24   1.401537 A    
C47   H5    1.109992 S    
O12   H10   1.013858 S    
C65   O21   1.223090 D    
C66   O24   1.394423 S    
O16   H12   1.013833 S    
C18   C28   1.417326 A    
O6    C4    1.293845 A    
C48   H8    1.109686 S    
C4    C10   1.393277 S    
C51   O14   1.396647 S    
C43   C45   1.398594 A    
C7    C13   1.538821 S    
C64   H43   1.110609 S    
O7    C3    1.293848 A    
C62   H36   1.110332 S    
C43   C49   1.480238 S    
O3    Zn2   2.023625 S    
O8    C4    1.293641 A    
O4    C2    1.293189 A    
C5    C14   1.539284 S    
C6    C13   1.539397 S    
C22   C58   1.527094 S    
C11   C13   1.539227 S    
C63   H39   1.078453 S    
C8    C14   1.538829 S    
C61   H35   1.109227 S    
O1    Zn1   2.008910 S    
O1    C1    1.292678 A    
C56   H20   1.109572 S    
C65   O22   1.394122 S    
C60   H30   1.109225 S    
C57   H22   1.109093 S    
C5    C7    1.544229 S    
C6    C12   1.543811 S    
C44   C50   1.478539 S    
C30   C32   1.391854 A    
O3    C1    1.292958 A    
O8    Zn1   1.972192 S    
O24   H46   1.011678 S    
C35   C37   1.437146 A    
C66   O23   1.222834 D    
C7    C12   1.544511 S    
C64   H44   1.110713 S    
C61   H34   1.108224 S    
C18   C20   1.407434 A    
C33   N1    1.384449 A    
C37   C43   1.424565 A    
C61   H33   1.110292 S    
C20   C22   1.397340 A    
C5    C51   1.500407 S    
C5    C11   1.543787 S    
C10   C16   1.181212 T    
C17   C27   1.417215 A    
C26   C28   1.430174 A    
C6    C52   1.500513 S    
C23   C25   1.418251 A    
C44   C46   1.399013 A    
C24   C26   1.418512 A    
C13   C15   1.427230 S    
C47   H3    1.109590 S    
O2    Zn2   2.008909 S    
C62   H37   1.109227 S    
C17   C55   1.526438 S    
O14   H11   1.013834 S    
C34   C42   1.428014 A    
C29   C59   1.518522 S    
C2    C19   1.429403 S    
O10   H9    1.013844 S    
C6    C8    1.544225 S    
C48   H6    1.109590 S    
C1    C20   1.430030 S    
C63   H40   1.110369 S    
C57   H23   1.109995 S    
C31   C61   1.515867 S    
C54   O19   1.221952 D    
C59   H27   1.109173 S    
C32   C62   1.515816 S    
C60   H31   1.109199 S    
C42   C45   1.410469 A    
