data_mof_unit_18845.cif
_audit_creation_date              2012-12-11T17:39:35-0500
_audit_creation_method            fapswitch 2.2
_symmetry_space_group_name_H-M    P1
_symmetry_Int_Tables_number       1
_space_group_crystal_system       triclinic
_cell_length_a                    15.134168
_cell_length_b                    15.14843
_cell_length_c                    15.149707
_cell_angle_alpha                 108.342027
_cell_angle_beta                  110.569834
_cell_angle_gamma                 109.925003
_cell_volume                      2658.8241992

loop_
_atom_site_label
_atom_site_type_symbol
_atom_type_description
_atom_site_fract_x
_atom_site_fract_y
_atom_site_fract_z
_atom_type_partial_charge
C1    C     C_R   0.907855 0.922089 0.715019 -0.128091
C2    C     C_R   0.912535 0.702229 0.506347 0.156185
C3    C     C_R   0.699250 0.793964 0.200771 -0.095154
C4    C     C_R   0.089979 0.313615 0.550692 -0.129500
C5    C     C_R   0.292543 0.985772 0.579821 -0.152358
C6    C     C_R   0.635677 0.702241 0.198342 0.136274
C7    C     C_R   0.348696 0.035204 0.539736 0.063538
C8    C     C_R   0.007449 0.699203 0.557975 0.007859
C9    C     C_R   0.000298 0.956255 0.179397 0.121309
C10   C     C_R   0.390365 0.594586 0.281643 -0.125896
C11   C     C_R   0.420952 0.702769 0.317851 -0.137555
C12   C     C_R   0.996946 0.320575 0.531417 0.047871
C13   C     C_R   0.451146 0.769870 0.424026 0.067392
C14   C     C_R   0.453321 0.727422 0.496068 0.160750
C15   C     C_R   0.424815 0.618540 0.458132 -0.155252
C16   C     C_R   0.267351 0.221038 0.813176 -0.152350
C17   C     C_R   0.392479 0.552534 0.351451 -0.126449
C18   C     C_R   0.403486 0.908798 0.480596 -0.215500
C19   C     C_R   0.428183 0.015927 0.523317 0.056921
C20   C     C_R   0.519255 0.097588 0.536692 -0.005869
C21   C     C_R   0.581646 0.067797 0.500585 -0.182117
C22   C     C_R   0.558372 0.960705 0.459593 0.101178
C23   C     C_R   0.307837 0.322973 0.823868 0.148350
C24   C     C_R   0.472135 0.881169 0.454910 0.024713
C25   C     C_R   0.593517 0.282792 0.556509 -0.162671
C26   C     C_R   0.637813 0.393807 0.617486 -0.130630
C27   C     C_R   0.644070 0.436928 0.717015 -0.059984
C28   C     C_R   0.698041 0.997375 0.407806 0.675765
C29   C     C_R   0.606483 0.369053 0.756110 -0.098017
C30   C     C_R   0.563661 0.258346 0.696367 -0.147898
C31   C     C_R   0.556493 0.213998 0.595769 0.122413
C32   C     C_R   0.885944 0.198377 0.198045 0.666706
C33   C     C_R   0.938495 0.293219 0.296151 -0.403435
C34   C     C_R   0.639486 0.943235 0.443917 -0.093530
C35   C     C_R   0.876938 0.324484 0.336152 0.059011
C36   C     C_R   0.762194 0.262196 0.274921 -0.246680
C37   C     C_R   0.710011 0.166921 0.177196 -0.321844
C38   C     C_R   0.771738 0.134587 0.139211 0.646347
C39   C     C_R   0.939141 0.511874 0.457883 -0.266680
C40   C     C_R   0.272612 0.312421 0.721970 -0.125029
C41   C     C_R   0.010000 0.606095 0.558616 0.078502
C42   C     C_R   0.084063 0.607213 0.648647 0.040360
C43   C     C_R   0.062900 0.507765 0.641101 -0.253569
C44   C     C_R   0.992166 0.414658 0.540687 0.054304
C45   C     C_R   0.697322 0.701921 0.290081 -0.158470
C46   C     C_R   0.933591 0.416649 0.446707 0.087302
C47   C     C_R   0.285048 0.679402 0.740099 -0.172366
C48   C     C_R   0.393553 0.759555 0.816319 -0.172751
C49   C     C_R   0.418334 0.862166 0.882790 -0.124833
C50   C     C_R   0.334496 0.885248 0.874289 0.202709
C51   C     C_R   0.223774 0.802266 0.801955 -0.218867
C52   C     C_R   0.700551 0.910876 0.502288 -0.264398
C53   C     C_R   0.198229 0.698778 0.732023 0.118146
C54   C     C_2   0.380416 0.514701 0.931565 -0.131681
C55   C     C_2   0.379452 0.423620 0.924500 -0.232843
C56   C     C_R   0.297127 0.081087 0.492688 -0.109245
C57   C     C_2   0.468244 0.619378 0.026712 -0.096575
C58   C     C_2   0.520274 0.625479 0.122040 -0.208735
C59   C     C_R   0.384062 0.259966 0.142024 -0.110295
C60   C     C_R   0.295209 0.159810 0.102071 -0.191912
C61   C     C_R   0.187618 0.135375 0.038594 0.108808
C62   C     C_R   0.170434 0.212897 0.015560 -0.078435
C63   C     C_R   0.260031 0.312925 0.054822 -0.133705
C64   C     C_R   0.906730 0.219201 0.467997 -0.128817
C65   C     C_R   0.366613 0.336540 0.118787 -0.137281
C66   C     C_R   0.093841 0.024667 0.096433 -0.195375
C67   C     C_R   0.095227 0.789332 0.583358 -0.174379
C68   C     C_R   0.005933 0.939761 0.082756 0.119488
C69   C     C_R   0.919767 0.855014 0.978519 0.192421
C70   C     C_R   0.920564 0.863188 0.889606 -0.155279
C71   C     C_R   0.005579 0.954205 0.905360 0.023709
C72   C     C_R   0.094752 0.034388 0.010250 0.022734
C73   C     C_R   0.849897 0.703300 0.015705 0.719713
C74   C     C_R   0.765098 0.625032 0.013041 -0.258847
C75   C     C_R   0.657978 0.602758 0.956355 -0.312187
C76   C     C_R   0.090913 0.009814 0.803944 -0.157564
C77   C     C_R   0.634697 0.657081 0.900351 -0.291623
C78   C     C_R   0.908650 0.941462 0.188063 -0.050348
C79   C     C_R   0.719111 0.735996 0.903021 0.725557
C80   C     C_R   0.828029 0.761325 0.962566 -0.355123
C81   C     C_R   0.000979 0.964505 0.812853 0.065603
C82   C     C_3   0.812052 0.655204 0.514394 -0.432996
C83   C     C_3   0.728975 0.536027 0.429279 -0.270313
C84   C     C_3   0.616348 0.504317 0.417102 -0.958169
C85   C     C_3   0.480911 0.793292 0.611073 -0.454149
C86   C     C_3   0.600544 0.885756 0.685221 -0.313631
C87   C     C_3   0.622919 0.954541 0.797226 -0.631275
C88   C     C_3   0.366283 0.000956 0.935347 -0.451888
C89   C     C_R   0.091764 0.024905 0.282076 -0.093625
C90   C     C_3   0.397701 0.060796 0.875947 -0.236352
C91   C     C_3   0.478217 0.181439 0.952501 -0.933844
F1    F     F_    0.720962 0.040494 0.046326 -0.709596
F2    F     F_    0.945967 0.167035 0.161462 -0.682952
F3    F     F_    0.658149 0.023826 0.331139 -0.735221
F4    F     F_    0.953569 0.723931 0.071727 -0.699407
F5    F     F_    0.695236 0.790613 0.851493 -0.722980
H1    H     H_    0.823690 0.870539 0.689470 0.096338
H2    H     H_    0.417614 0.733503 0.261831 0.143228
H3    H     H_    0.171572 0.379337 0.586460 0.088524
H4    H     H_    0.425606 0.583708 0.510640 0.119155
H5    H     H_    0.330143 0.846065 0.467222 0.138087
H6    H     H_    0.654398 0.130323 0.512961 0.131405
H7    H     H_    0.589552 0.250810 0.479544 0.123491
H8    H     H_    0.668889 0.446598 0.588412 0.128330
H9    H     H_    0.679297 0.522986 0.764059 0.112587
H10   H     H_    0.612185 0.401708 0.833597 0.122904
H11   H     H_    0.538667 0.207759 0.729991 0.113864
H12   H     H_    0.326509 0.133455 0.462441 0.098461
H13   H     H_    0.282601 0.201036 0.877142 0.134536
H14   H     H_    0.027179 0.340562 0.342850 0.182892
H15   H     H_    0.713721 0.284871 0.305091 0.156371
H16   H     H_    0.621882 0.116986 0.132170 0.175996
H17   H     H_    0.893042 0.514023 0.385952 0.141861
H18   H     H_    0.114054 0.504136 0.709635 0.138989
H19   H     H_    0.268844 0.601370 0.686622 0.112441
H20   H     H_    0.458710 0.742772 0.821856 0.147625
H21   H     H_    0.503331 0.925082 0.938774 0.178314
H22   H     H_    0.158772 0.819460 0.796540 0.123890
H23   H     H_    0.180816 0.814258 0.625327 0.121905
H24   H     H_    0.325759 0.514087 0.861598 0.129832
H25   H     H_    0.436116 0.422463 0.991409 0.140077
H26   H     H_    0.501236 0.685621 0.012330 0.138055
H27   H     H_    0.483240 0.561487 0.136924 0.121938
H28   H     H_    0.436235 0.413943 0.151026 0.100947
H29   H     H_    0.466538 0.277811 0.190330 0.119453
H30   H     H_    0.309960 0.101693 0.122252 0.124040
H31   H     H_    0.088115 0.196497 0.968972 0.130951
H32   H     H_    0.246639 0.372170 0.036157 0.127637
H33   H     H_    0.299921 0.375756 0.702950 0.088584
H34   H     H_    0.824103 0.897969 0.123903 0.122054
H35   H     H_    0.158773 0.092205 0.175917 0.132826
H36   H     H_    0.854693 0.799128 0.808532 0.134956
H37   H     H_    0.782360 0.581599 0.055115 0.168833
H38   H     H_    0.592778 0.541774 0.954294 0.193402
H39   H     H_    0.551193 0.638348 0.855417 0.152318
H40   H     H_    0.677106 0.860672 0.536401 0.140933
H41   H     H_    0.821988 0.197686 0.433605 0.170697
H42   H     H_    0.174362 0.036354 0.858084 0.106690
H43   H     H_    0.666156 0.649572 0.319225 0.119505
H44   H     H_    0.564839 0.415170 0.374984 0.250327
H45   H     H_    0.175978 0.054056 0.304082 0.090654
H46   H     H_    0.623488 0.538197 0.497430 0.268120
H47   H     H_    0.575084 0.534847 0.368860 0.263560
H48   H     H_    0.721201 0.519465 0.349225 0.195955
H49   H     H_    0.756773 0.484905 0.455408 0.206818
H50   H     H_    0.837928 0.664273 0.596629 0.177491
H51   H     H_    0.771945 0.703936 0.506909 0.196222
H52   H     H_    0.572517 0.993625 0.791201 0.202847
H53   H     H_    0.603478 0.904048 0.834582 0.308045
H54   H     H_    0.710786 0.018436 0.850101 0.267242
H55   H     H_    0.655554 0.851745 0.693414 0.235324
H56   H     H_    0.671490 0.826942 0.150296 0.124451
H57   H     H_    0.620302 0.939701 0.651390 0.199147
H58   H     H_    0.424757 0.825048 0.610008 0.186521
H59   H     H_    0.466628 0.740615 0.647714 0.203829
H60   H     H_    0.444295 0.218444 0.996258 0.267932
H61   H     H_    0.556929 0.195433 0.012179 0.267961
H62   H     H_    0.494437 0.221294 0.905179 0.247344
H63   H     H_    0.436975 0.028336 0.835484 0.195297
H64   H     H_    0.322375 0.047953 0.811761 0.189533
H65   H     H_    0.298251 0.005486 0.943906 0.174732
H66   H     H_    0.435585 0.038921 0.018927 0.198659
H67   H     H_    0.315299 0.948260 0.626973 0.086752
H68   H     H_    0.368636 0.468374 0.322742 0.144588
H69   H     H_    0.363137 0.542914 0.198628 0.118861
N1    N     N_R   0.941940 0.944580 0.650780 -0.040279
N2    N     N_R   0.204460 0.150250 0.707090 -0.046078
N3    N     N_R   0.794270 0.003240 0.446420 -0.107784
N4    N     N_R   0.204920 0.207570 0.650770 -0.044335
N5    N     N_R   0.793810 0.945920 0.502740 -0.068421
N6    N     N_R   0.943620 0.152590 0.446420 -0.042548
N7    N     N_R   0.055110 0.000900 0.707100 -0.039385
N8    N     N_R   0.795080 0.792430 0.349230 -0.043578
N9    N     N_R   0.206190 0.054080 0.497260 -0.042467
N10   N     N_R   0.056380 0.847410 0.553580 -0.047353
N11   N     N_R   0.944890 0.999100 0.292900 -0.051238
N12   N     N_R   0.058060 0.055420 0.349220 -0.048618
N13   N     N_R   0.943200 0.791100 0.497260 -0.057891
N14   N     N_R   0.795540 0.849750 0.292910 -0.055142
N15   N     N_R   0.205730 0.996760 0.553580 -0.035412
N16   N     N_R   0.056800 0.208900 0.502740 -0.040909
Ni1   Ni    Ni4+2 0.869690 0.869690 0.500000 0.198424
Ni2   Ni    Ni4+2 0.130310 0.130310 0.500000 0.223622
Ni3   Ni    Ni4+2 0.129250 0.998840 0.629170 0.200332
Ni4   Ni    Ni4+2 0.870750 0.001160 0.370830 0.268374

loop_
_geom_bond_atom_site_label_1
_geom_bond_atom_site_label_2
_ccdc_geom_bond_type
C25   C31   A    
C66   C68   A    
C40   H33   S    
C63   C65   A    
N1    N7    A    
C6    C45   A    
C54   H24   S    
C30   H11   S    
C27   C29   A    
C41   C42   A    
C6    C58   S    
C35   C36   A    
N1    Ni1   S    
C15   H4    S    
C3    C6    A    
C55   H25   S    
C82   H51   S    
C90   C91   S    
C75   H38   S    
N11   Ni4   S    
C39   C41   A    
C85   C86   S    
C47   H19   S    
C66   C72   A    
C3    H56   S    
C37   C38   A    
C11   H2    S    
C18   C24   A    
C5    H67   S    
C36   C37   A    
C86   H57   S    
C88   H65   S    
C42   C53   S    
C83   H48   S    
C12   C64   A    
C89   H45   S    
N8    N14   A    
C16   N2    A    
C1    C81   A    
C23   C40   A    
C74   H37   S    
C38   F1    S    
C45   H43   S    
C51   H22   S    
C28   F3    S    
C18   C19   A    
C85   H59   S    
C65   H28   S    
C90   H63   S    
C76   N7    A    
C3    N14   A    
C56   H12   S    
C91   H62   S    
C26   H8    S    
C57   H26   S    
C83   H49   S    
N4    Ni2   S    
C47   C48   A    
C67   N10   A    
C68   C69   A    
C39   H17   S    
C87   H54   S    
C70   C71   A    
C32   C38   A    
C4    N16   A    
C4    C12   A    
C29   C30   A    
C63   H32   S    
C50   C88   S    
C47   C53   A    
C85   H58   S    
N16   Ni2   S    
C32   F2    S    
C28   C34   A    
C59   C60   A    
C13   C14   A    
N5    Ni1   S    
C78   N11   A    
C61   C62   A    
C7    C56   A    
C40   N4    A    
C82   H50   S    
C44   C46   A    
C16   H13   S    
N10   N13   A    
C64   H41   S    
C77   C79   A    
C73   C74   A    
C22   C34   S    
C49   H21   S    
C87   H52   S    
N6    Ni4   S    
C8    C41   S    
N2    N4    A    
C74   C75   A    
C52   N5    A    
C5    C7    A    
C86   C87   S    
C25   H7    S    
C84   H47   S    
C25   C26   A    
N12   Ni2   S    
C13   C24   S    
C56   N9    A    
C60   C61   A    
C51   C53   A    
C18   H5    S    
C76   C81   A    
C43   C44   A    
C5    N15   A    
C62   C63   A    
C17   H68   S    
C45   N8    A    
N7    Ni3   S    
C83   C84   S    
C84   H46   S    
C1    H1    S    
C36   H15   S    
C70   H36   S    
C50   C51   A    
C58   H27   S    
C75   C77   A    
N13   Ni1   S    
C39   C46   A    
C21   H6    S    
C61   C72   S    
C48   C49   A    
C88   C90   S    
N8    Ni1   S    
C82   C83   S    
C16   C23   A    
C7    C19   S    
C89   N12   A    
C26   C27   A    
C52   H40   S    
C22   C24   A    
C29   H10   S    
C2    C82   S    
C42   C43   A    
C73   F4    S    
C9    C89   A    
N9    N15   A    
C37   H16   S    
C66   H35   S    
C15   C17   A    
C54   C55   D    
N11   N12   A    
N3    Ni4   S    
N6    N16   A    
C2    C8    A    
C14   C85   S    
N9    Ni2   S    
C23   C55   S    
N14   Ni4   S    
C76   H42   S    
C59   H29   S    
C2    N13   A    
C34   C52   A    
C48   H20   S    
C32   C33   A    
C19   C20   A    
C60   H30   S    
C78   H34   S    
C9    C68   S    
C71   C72   A    
C43   H18   S    
C86   H55   S    
C59   C65   A    
C11   C13   A    
C57   C58   D    
C30   C31   A    
C1    N1    A    
C64   N6    A    
C10   H69   S    
C88   H66   S    
N3    N5    A    
C33   C35   A    
C73   C80   A    
C9    C78   A    
C90   H64   S    
C69   C70   A    
C91   H61   S    
C10   C11   A    
C28   N3    A    
C77   H39   S    
C79   C80   A    
C62   H31   S    
C79   F5    S    
C91   H60   S    
C20   C21   A    
C84   H44   S    
C8    C67   A    
C12   C44   S    
C49   C50   A    
C87   H53   S    
C4    H3    S    
C27   H9    S    
C14   C15   A    
C69   C80   S    
C33   H14   S    
C10   C17   A    
C21   C22   A    
C35   C46   S    
C67   H23   S    
C54   C57   S    
N2    Ni3   S    
N15   Ni3   S    
N10   Ni3   S    
C71   C81   S    
C20   C31   S    
