data_mof_unit_15215.cif
_audit_creation_date              2012-12-10T18:29:36-0500
_audit_creation_method            fapswitch 2.2
_symmetry_space_group_name_H-M    P1
_symmetry_Int_Tables_number       1
_space_group_crystal_system       triclinic
_cell_length_a                    11.558472
_cell_length_b                    15.04927
_cell_length_c                    15.363228
_cell_angle_alpha                 82.866155
_cell_angle_beta                  90.546044
_cell_angle_gamma                 104.870964
_cell_volume                      2562.1825209

loop_
_atom_site_label
_atom_site_type_symbol
_atom_type_description
_atom_site_fract_x
_atom_site_fract_y
_atom_site_fract_z
_atom_type_partial_charge
C1    C     C_R   0.480781 0.442379 0.662791 0.967823
C2    C     C_R   0.512680 0.557570 0.337083 0.974746
C3    C     C_R   0.332419 0.357928 0.923002 -0.206009
C4    C     C_R   0.451167 0.653150 0.068669 -0.211255
C5    C     C_R   0.398219 0.519790 0.951095 0.101789
C6    C     C_R   0.379440 0.491289 0.040848 0.112594
C7    C     C_R   0.311885 0.399954 0.068221 -0.126965
C8    C     C_R   0.416125 0.614482 0.920444 -0.127909
C9    C     C_R   0.276746 0.335610 0.007692 0.181071
C10   C     C_R   0.432273 0.681408 0.978836 0.155415
C11   C     C_R   0.638028 0.832246 0.663933 0.039893
C12   C     C_R   0.362198 0.167061 0.336916 0.056877
C13   C     C_R   0.639301 0.753413 0.622514 0.286383
C14   C     C_R   0.359400 0.245418 0.378619 0.306512
C15   C     C_R   0.512108 0.794196 0.511099 -0.028865
C16   C     C_R   0.489624 0.206711 0.488660 -0.021868
C17   C     C_R   0.532543 0.884430 0.536399 -0.073042
C18   C     C_R   0.471084 0.116660 0.463291 -0.074693
C19   C     C_R   0.588542 0.901172 0.617832 -0.061788
C20   C     C_R   0.414943 0.099522 0.382002 -0.065705
C21   C     C_R   0.496722 0.957353 0.483945 -0.007013
C22   C     C_R   0.508426 0.044194 0.515471 -0.000059
C23   C     C_R   0.718254 0.501374 0.500300 0.893410
C24   C     C_R   0.281743 0.498619 0.499725 0.873550
C25   C     C_R   0.553376 0.055123 0.599599 -0.238874
C26   C     C_R   0.453617 0.946812 0.399335 -0.237103
C27   C     C_R   0.595280 0.987141 0.648792 0.618328
C28   C     C_R   0.411323 0.014453 0.350154 0.627986
C29   C     C_1   0.839582 0.503493 0.500843 -0.164816
C30   C     C_1   0.160425 0.496488 0.499235 -0.169751
C31   C     C_1   0.941241 0.501803 0.500478 0.006942
C32   C     C_1   0.058768 0.498171 0.499633 0.003783
C33   C     C_R   0.444307 0.409130 0.755098 -0.410192
C34   C     C_R   0.498339 0.591335 0.244106 -0.419198
C35   C     C_R   0.332880 0.290276 0.866611 0.534925
C36   C     C_R   0.497816 0.717214 0.128454 0.541730
C37   C     C_R   0.384560 0.316357 0.782562 0.506495
C38   C     C_R   0.518677 0.686434 0.215122 0.504681
C39   C     C_R   0.456255 0.474407 0.814117 0.503072
C40   C     C_R   0.455137 0.527218 0.185017 0.486526
C41   C     C_R   0.393682 0.451718 0.894853 -0.131139
C42   C     C_R   0.425062 0.556573 0.099339 -0.124626
H1    H     H_    0.557795 0.116637 0.630023 0.195274
H2    H     H_    0.451448 0.885954 0.368394 0.209029
H3    H     H_    0.278941 0.381105 0.135223 0.181053
H4    H     H_    0.410484 0.635014 0.851089 0.201030
H5    H     H_    0.547812 0.229801 0.541014 0.155871
H6    H     H_    0.453851 0.771736 0.458560 0.162436
N1    N     N_R   0.566020 0.731700 0.552730 -0.125506
N2    N     N_R   0.433980 0.268300 0.447270 -0.123766
O1    O     O_R   0.466720 0.383110 0.605620 -0.562009
O2    O     O_R   0.533280 0.616890 0.394380 -0.560985
O3    O     O_R   0.509090 0.531900 0.639510 -0.587170
O4    O     O_R   0.490910 0.468100 0.360490 -0.570957
O5    O     O_R   0.644370 0.425610 0.483050 -0.610070
O6    O     O_R   0.355630 0.574390 0.516950 -0.616471
O7    O     O_R   0.686740 0.574390 0.516930 -0.630495
O8    O     O_R   0.313260 0.425610 0.483070 -0.631630
Zn1   Zn    Zn3+2 0.471710 0.400660 0.477370 0.987801
Zn2   Zn    Zn3+2 0.528290 0.599340 0.522630 0.976343
C43   C     C_3   0.181319 0.245674 0.033783 -0.320418
C44   C     C_3   0.079665 0.256159 0.091674 -0.920983
H7    H     H_    0.110040 0.267410 0.158935 0.249026
H8    H     H_    0.043972 0.314736 0.062403 0.278462
H9    H     H_    0.005924 0.191597 0.097090 0.279859
H10   H     H_    0.136359 0.219563 0.974488 0.270387
H11   H     H_    0.223960 0.192857 0.066688 0.237572
C45   C     C_3   0.432638 0.781312 0.945371 -0.290796
C46   C     C_3   0.369870 0.795324 0.858284 -0.911829
H12   H     H_    0.421462 0.783108 0.802478 0.251676
H13   H     H_    0.278100 0.748430 0.861098 0.267417
H14   H     H_    0.362784 0.868011 0.845863 0.294093
H15   H     H_    0.383321 0.807386 0.994070 0.268389
H16   H     H_    0.526361 0.824731 0.939339 0.252330
F1    F     F_    0.453309 0.436696 0.208280 -0.674316
F2    F     F_    0.536694 0.558233 0.795355 -0.685624
F3    F     F_    0.562485 0.750814 0.269876 -0.604951
F4    F     F_    0.376898 0.250124 0.728692 -0.601519
F5    F     F_    0.289769 0.198228 0.892988 -0.629638
F6    F     F_    0.529606 0.810101 0.103768 -0.623461
F7    F     F_    0.644643 0.009912 0.725923 -0.670774
F8    F     F_    0.365399 0.992360 0.271877 -0.658832
C47   C     C_3   0.261491 0.294885 0.356985 -0.341065
C48   C     C_3   0.159434 0.260334 0.425436 -0.823744
H17   H     H_    0.193298 0.262339 0.493208 0.290866
H18   H     H_    0.094963 0.303919 0.415257 0.250115
H19   H     H_    0.111352 0.187559 0.418768 0.246118
H20   H     H_    0.296618 0.370397 0.349888 0.260546
H21   H     H_    0.219999 0.283726 0.293189 0.172874
C49   C     C_3   0.735207 0.702371 0.646199 -0.314515
C50   C     C_3   0.841137 0.737773 0.581068 -0.840742
H22   H     H_    0.905130 0.693967 0.593104 0.250858
H23   H     H_    0.811213 0.736672 0.512251 0.288745
H24   H     H_    0.888421 0.810292 0.589335 0.248405
H25   H     H_    0.771982 0.710847 0.711961 0.195059
H26   H     H_    0.700071 0.627156 0.650919 0.267824
C51   C     C_3   0.684612 0.839007 0.756918 -0.361100
C52   C     C_3   0.815391 0.895128 0.758141 -0.695071
H27   H     H_    0.876639 0.856207 0.736027 0.224300
H28   H     H_    0.830843 0.961999 0.714882 0.291480
H29   H     H_    0.838835 0.909562 0.826134 0.259140
H30   H     H_    0.627344 0.868040 0.796437 0.263597
H31   H     H_    0.673857 0.769355 0.794419 0.202755
C53   C     C_3   0.309858 0.157317 0.246088 -0.329842
C54   C     C_3   0.181752 0.094887 0.251104 -0.738681
H32   H     H_    0.174048 0.030675 0.297220 0.289478
H33   H     H_    0.118120 0.131603 0.273716 0.228734
H34   H     H_    0.154624 0.074881 0.185367 0.262898
H35   H     H_    0.312223 0.225651 0.208886 0.187896
H36   H     H_    0.368622 0.132616 0.203550 0.273561

loop_
_geom_bond_atom_site_label_1
_geom_bond_atom_site_label_2
_ccdc_geom_bond_type
C53   H36   S    
C21   C26   A    
C4    C36   A    
O5    Zn1   S    
C13   C49   S    
C48   H19   S    
C24   O6    A    
C25   H1    S    
C51   C52   S    
C26   H2    S    
C49   H25   S    
C39   C41   A    
C5    C6    A    
C54   H33   S    
C11   C19   A    
C33   C39   A    
N1    Zn2   S    
C34   C40   A    
N2    Zn1   S    
C7    H3    S    
C35   C37   A    
C48   H18   S    
C12   C53   S    
C53   H35   S    
C45   H16   S    
C15   C17   A    
C46   H13   S    
C1    O3    A    
C44   H8    S    
O2    Zn2   S    
C43   H10   S    
C47   C48   S    
C45   C46   S    
C22   C25   A    
C19   C27   A    
C51   H30   S    
C2    C34   S    
C40   C42   A    
C47   H20   S    
C34   C38   A    
C21   C22   A    
C46   H12   S    
C15   H6    S    
C16   H5    S    
C53   C54   S    
O3    Zn2   S    
C24   C30   S    
O4    Zn1   S    
C47   H21   S    
C54   H34   S    
C1    C33   S    
C27   F7    S    
C48   H17   S    
C2    O4    A    
C50   H22   S    
O7    Zn2   S    
C20   C28   A    
C45   H15   S    
C28   F8    S    
C33   C37   A    
O6    Zn2   S    
C46   H14   S    
C44   H7    S    
C3    C9    A    
C50   H23   S    
C43   H11   S    
C31   C32   S    
C3    C35   A    
C12   C20   A    
C16   C18   A    
C39   F2    S    
C49   H26   S    
C1    O1    A    
C51   H31   S    
C2    O2    A    
C13   N1    A    
C8    C10   A    
C12   C14   A    
C52   H28   S    
C36   F6    S    
C9    C43   S    
O1    Zn1   S    
C4    C10   A    
C23   C29   S    
C54   H32   S    
C23   O7    A    
C5    C41   A    
C3    C41   A    
C44   H9    S    
C18   C22   A    
C16   N2    A    
C5    C8    A    
C23   O5    A    
C6    C7    A    
C38   F3    S    
C10   C45   S    
C25   C27   A    
C52   H29   S    
C37   F4    S    
C26   C28   A    
C40   F1    S    
C11   C51   S    
C36   C38   A    
O8    Zn1   S    
C14   C47   S    
C29   C31   T    
C50   H24   S    
C30   C32   T    
C11   C13   A    
C49   C50   S    
C14   N2    A    
C4    C42   A    
C35   F5    S    
C17   C19   A    
C18   C20   A    
C15   N1    A    
C43   C44   S    
C8    H4    S    
C7    C9    A    
C24   O8    A    
C52   H27   S    
C6    C42   A    
C17   C21   A    
