data_mof_unit_52467.cif
_audit_creation_date              2013-03-05T16:41:03-0500
_audit_creation_method            fapswitch 2.2
_symmetry_space_group_name_H-M    P1
_symmetry_Int_Tables_number       1
_space_group_crystal_system       triclinic
_cell_length_a                    18.592094
_cell_length_b                    18.572836
_cell_length_c                    19.077067
_cell_angle_alpha                 109.809635
_cell_angle_beta                  109.723601
_cell_angle_gamma                 108.701993
_cell_volume                      5081.72712841

loop_
_atom_site_label
_atom_site_type_symbol
_atom_site_description
_atom_site_fract_x
_atom_site_fract_y
_atom_site_fract_z
_atom_type_partial_charge
O1    O     O_R   0.408360 0.551710 0.460090 -0.616337
O2    O     O_R   0.408400 0.448280 0.356670 -0.614251
C1    C     C_R   0.380755 0.502497 0.380853 0.869973
O3    O     O_R   0.591600 0.643340 0.551710 -0.600218
O4    O     O_R   0.591630 0.539900 0.448290 -0.603809
C2    C     C_R   0.622018 0.621018 0.502352 0.887402
Zn1   Zn    Zn3+2 0.499980 0.569060 0.569060 1.049633
Zn2   Zn    Zn3+2 0.500020 0.430940 0.430940 1.019365
O5    O     O_R   0.591600 0.551720 0.643330 -0.612459
O6    O     O_R   0.591640 0.448290 0.539910 -0.622086
O7    O     O_R   0.408370 0.460100 0.551710 -0.599968
O8    O     O_R   0.408400 0.356660 0.448290 -0.628900
C3    C     C_R   0.616344 0.495770 0.619331 0.874660
C4    C     C_R   0.378364 0.379794 0.498155 0.862609
H1    H     H_    0.865221 0.945638 0.911860 0.147651
C5    C     C_R   0.758963 0.885504 0.783309 -0.122414
H2    H     H_    0.724072 0.916324 0.804593 0.175663
C6    C     C_R   0.727403 0.834555 0.695321 0.209643
C7    C     C_R   0.773186 0.794702 0.667319 0.056779
C8    C     C_R   0.852359 0.810408 0.730003 -0.145670
H3    H     H_    0.891861 0.785731 0.710565 0.182047
C9    C     C_R   0.886555 0.866896 0.817223 -0.102377
H4    H     H_    0.950574 0.883964 0.864039 0.145931
C10   C     C_R   0.839070 0.902875 0.844065 -0.143808
C11   C     C_R   0.822988 0.821457 0.572200 -0.246154
H5    H     H_    0.879660 0.879812 0.630403 0.159693
C12   C     C_R   0.812960 0.807702 0.492605 -0.080603
C13   C     C_R   0.738109 0.735069 0.415668 0.037277
C14   C     C_R   0.676072 0.675322 0.421577 -0.178080
H6    H     H_    0.618881 0.618104 0.362956 0.182109
C15   C     C_R   0.686597 0.688937 0.502070 -0.071779
C16   C     C_R   0.758906 0.765541 0.578680 0.019744
C17   C     C_R   0.696011 0.769395 0.297894 -0.152306
H7    H     H_    0.684004 0.817671 0.335719 0.155379
C18   C     C_R   0.684729 0.758713 0.218422 -0.156849
H8    H     H_    0.664346 0.798856 0.195904 0.166596
C19   C     C_R   0.700136 0.697397 0.168320 0.200532
C20   C     C_R   0.724920 0.643923 0.197032 0.166368
C21   C     C_R   0.734282 0.653272 0.276895 0.111029
C22   C     C_R   0.723621 0.719280 0.329180 0.005869
H9    H     H_    0.450459 0.898582 0.598890 0.215242
C23   C     C_R   0.384544 0.759099 0.549842 0.305494
C24   C     C_R   0.350555 0.675939 0.479911 -0.179078
H10   H     H_    0.313699 0.617765 0.480076 0.185875
C25   C     C_R   0.360226 0.667409 0.408073 0.018320
C26   C     C_R   0.402601 0.743873 0.406034 -0.232759
H11   H     H_    0.408003 0.737783 0.349747 0.189615
C27   C     C_R   0.433508 0.827437 0.473592 0.350010
C28   C     C_R   0.424764 0.834359 0.545533 -0.268607
C29   C     C_R   0.245974 0.575679 0.257060 -0.222410
H12   H     H_    0.241455 0.634066 0.262639 0.172193
C30   C     C_R   0.185375 0.495647 0.181927 -0.068295
C31   C     C_R   0.183157 0.416800 0.174716 0.000217
C32   C     C_R   0.249253 0.422409 0.241800 -0.224942
H13   H     H_    0.250933 0.362848 0.235905 0.163196
C33   C     C_R   0.312105 0.503214 0.316936 -0.076229
C34   C     C_R   0.307718 0.580802 0.327111 0.044556
C35   C     C_R   0.070362 0.260746 0.112586 -0.150096
H14   H     H_    0.085272 0.273155 0.176804 0.118202
C36   C     C_R   0.007311 0.176495 0.042725 -0.133926
H15   H     H_    0.974148 0.125092 0.053381 0.136495
C37   C     C_R   0.987745 0.158359 0.959278 -0.086499
H16   H     H_    0.939577 0.092996 0.905182 0.145118
C38   C     C_R   0.030965 0.224487 0.945660 -0.069022
H17   H     H_    0.016988 0.209396 0.881122 0.149908
C39   C     C_R   0.093069 0.309328 0.015246 -0.095295
H18   H     H_    0.126260 0.359759 0.003617 0.117238
C40   C     C_R   0.113763 0.328264 0.099549 0.119268
H19   H     H_    0.126054 0.527817 0.410050 0.159299
C41   C     C_R   0.193988 0.508046 0.511934 -0.097723
H20   H     H_    0.202591 0.565614 0.561713 0.198435
C42   C     C_R   0.226007 0.455358 0.533459 0.256180
C43   C     C_R   0.211789 0.378762 0.467896 0.046814
C44   C     C_R   0.168804 0.358377 0.381918 -0.210457
H21   H     H_    0.157290 0.299733 0.330788 0.137419
C45   C     C_R   0.138626 0.412412 0.361336 -0.120308
H22   H     H_    0.105061 0.396312 0.295047 0.151646
C46   C     C_R   0.150285 0.486557 0.426159 -0.155701
C47   C     C_R   0.172041 0.250202 0.487824 -0.191212
H23   H     H_    0.111499 0.250490 0.479652 0.188437
C48   C     C_R   0.187575 0.184999 0.499187 -0.099070
C49   C     C_R   0.265403 0.183235 0.508514 0.007901
C50   C     C_R   0.327060 0.248054 0.507246 -0.224421
H24   H     H_    0.387632 0.248016 0.514976 0.160420
C51   C     C_R   0.311619 0.313426 0.496869 -0.063339
C52   C     C_R   0.233806 0.315057 0.486640 0.026193
C53   C     C_R   0.328020 0.125155 0.599018 -0.104087
H25   H     H_    0.345367 0.182276 0.655633 0.131289
C54   C     C_R   0.349504 0.062098 0.607944 -0.161884
H26   H     H_    0.383461 0.070764 0.671246 0.166320
C55   C     C_R   0.327041 0.987787 0.535152 -0.113554
H27   H     H_    0.342824 0.938683 0.542262 0.155863
C56   C     C_R   0.282168 0.975735 0.453167 0.217122
C57   C     C_R   0.260343 0.038737 0.443979 -0.196210
H28   H     H_    0.226029 0.029453 0.380406 0.148477
C58   C     C_R   0.283547 0.113960 0.517112 0.091190
H29   H     H_    0.403696 0.444892 0.814850 0.166847
C59   C     C_R   0.504972 0.530926 0.805261 -0.086167
H30   H     H_    0.492678 0.585238 0.827238 0.172801
C60   C     C_R   0.572127 0.540711 0.785553 -0.053475
H31   H     H_    0.611219 0.603299 0.793800 0.186027
C61   C     C_R   0.589962 0.471307 0.758580 0.073000
C62   C     C_R   0.538869 0.391850 0.751482 -0.178318
H32   H     H_    0.552804 0.338188 0.733059 0.159359
C63   C     C_R   0.471901 0.382519 0.771583 -0.101404
H33   H     H_    0.434641 0.322420 0.768703 0.142763
C64   C     C_R   0.454977 0.451960 0.798481 -0.028428
C65   C     C_R   0.737312 0.487287 0.814496 -0.186077
H34   H     H_    0.731475 0.484081 0.868232 0.179871
C66   C     C_R   0.812070 0.494037 0.809160 -0.073318
C67   C     C_R   0.819785 0.495947 0.738739 0.056383
C68   C     C_R   0.753945 0.496628 0.677414 -0.173337
H35   H     H_    0.758917 0.498039 0.622755 0.175193
C69   C     C_R   0.680466 0.492582 0.684159 -0.069902
C70   C     C_R   0.670019 0.485128 0.751772 0.021139
C71   C     C_R   0.949037 0.542070 0.714502 0.182725
C72   C     C_R   0.998536 0.517760 0.679763 -0.180151
H36   H     H_    0.047044 0.565225 0.676041 0.190146
C73   C     C_R   0.983458 0.431463 0.647222 0.213049
C74   C     C_R   0.921573 0.370254 0.652163 -0.180767
H37   H     H_    0.910672 0.303908 0.627203 0.163079
C75   C     C_R   0.871678 0.393652 0.686042 -0.229252
H38   H     H_    0.819161 0.343648 0.682934 0.203558
C76   C     C_R   0.884623 0.479417 0.717585 0.059952
O9    O     O_R   0.051730 0.908360 0.460060 -0.628416
O10   O     O_R   0.948280 0.908380 0.356650 -0.618459
C77   C     C_R   0.999474 0.877782 0.380980 0.866131
O11   O     O_R   0.960110 0.908350 0.551690 -0.613242
O12   O     O_R   0.856660 0.908370 0.448270 -0.631385
C78   C     C_R   0.879855 0.874766 0.494276 0.870056
Zn3   Zn    Zn3+2 0.069070 0.999960 0.569030 0.989688
Zn4   Zn    Zn3+2 0.930930 0.999990 0.430930 0.979221
O13   O     O_R   0.051720 0.091580 0.643310 -0.610193
O14   O     O_R   0.948270 0.091600 0.539890 -0.612895
O15   O     O_R   0.143340 0.091590 0.551680 -0.616333
O16   O     O_R   0.039890 0.091610 0.448270 -0.618059
C79   C     C_R   0.996882 0.117660 0.618656 0.901236
C80   C     C_R   0.120630 0.119120 0.499244 0.881716
O17   O     O_R   0.051730 0.460050 0.908360 -0.635452
O18   O     O_R   0.948290 0.356630 0.908390 -0.563399
C81   C     C_R   0.999960 0.379459 0.879498 0.893437
O19   O     O_R   0.143340 0.551690 0.091580 -0.611118
O20   O     O_R   0.039900 0.448270 0.091610 -0.621175
C82   C     C_R   0.119909 0.496762 0.116741 0.843707
Zn5   Zn    Zn3+2 0.069070 0.569030 0.999960 1.001543
Zn6   Zn    Zn3+2 0.930930 0.430930 0.000000 1.070327
O21   O     O_R   0.051710 0.643320 0.091560 -0.610136
O22   O     O_R   0.948270 0.539900 0.091590 -0.607479
O23   O     O_R   0.960100 0.551680 0.908340 -0.609342
O24   O     O_R   0.856660 0.448270 0.908370 -0.591992
C83   C     C_R   0.999764 0.620492 0.119334 0.878402
C84   C     C_R   0.879576 0.497162 0.877352 0.892822
H39   H     H_    0.130687 0.715306 0.610777 0.173440
C85   C     C_R   0.156838 0.797591 0.555820 -0.170625
H40   H     H_    0.219426 0.848574 0.612621 0.178195
C86   C     C_R   0.127033 0.806249 0.482983 -0.091522
H41   H     H_    0.167968 0.863097 0.483717 0.159617
C87   C     C_R   0.045558 0.741222 0.408995 0.076854
C88   C     C_R   0.997358 0.664451 0.407587 -0.194105
H42   H     H_    0.938167 0.610557 0.349021 0.190048
C89   C     C_R   0.027448 0.655346 0.480271 0.218261
C90   C     C_R   0.106871 0.722336 0.554641 -0.130142
C91   C     C_R   0.013285 0.680934 0.259622 -0.192280
H43   H     H_    0.022057 0.627466 0.264584 0.149206
C92   C     C_R   0.002433 0.687608 0.186768 -0.042694
C93   C     C_R   0.998101 0.759506 0.181111 0.025529
C94   C     C_R   0.995182 0.819610 0.245150 -0.211128
H44   H     H_    0.988602 0.873645 0.239411 0.165353
C95   C     C_R   0.004431 0.812821 0.317989 -0.081495
C96   C     C_R   0.019235 0.745604 0.328361 0.034502
C97   C     C_R   0.076613 0.818134 0.113479 -0.093615
H45   H     H_    0.138676 0.842354 0.168697 0.171877
C98   C     C_R   0.075891 0.830163 0.044984 -0.169997
H46   H     H_    0.137007 0.863425 0.047321 0.158312
C99   C     C_R   0.996177 0.799423 0.973568 -0.119828
H47   H     H_    0.996172 0.808874 0.920908 0.165025
C100  C     C_R   0.917196 0.756949 0.970720 0.226021
C101  C     C_R   0.917593 0.743318 0.038318 -0.197092
H48   H     H_    0.856260 0.709508 0.035412 0.185966
C102  C     C_R   0.997299 0.773722 0.109766 0.062760
H49   H     H_    0.383539 0.628149 0.985899 0.190852
C103  C     C_R   0.246377 0.561101 0.895258 -0.188327
H50   H     H_    0.249304 0.616532 0.886788 0.174494
C104  C     C_R   0.167037 0.483177 0.848997 -0.072146
H51   H     H_    0.109419 0.479298 0.804626 0.168740
C105  C     C_R   0.161122 0.411115 0.860532 0.035997
C106  C     C_R   0.239033 0.416027 0.914888 0.047862
C107  C     C_R   0.319925 0.495095 0.960619 0.324412
C108  C     C_R   0.322144 0.567410 0.951387 -0.213557
C109  C     C_R   0.072014 0.260326 0.741460 -0.168469
H52   H     H_    0.130573 0.269514 0.736698 0.172903
C110  C     C_R   0.993841 0.182862 0.681665 -0.126715
C111  C     C_R   0.914951 0.170274 0.680890 -0.138409
C112  C     C_R   0.917933 0.233097 0.749079 0.231527
C113  C     C_R   0.997933 0.313140 0.810418 -0.236929
C114  C     C_R   0.075505 0.327502 0.804892 0.011641
C115  C     C_R   0.770203 0.111716 0.553126 -0.096240
H53   H     H_    0.786224 0.177861 0.566494 0.125064
C116  C     C_R   0.690541 0.042015 0.480985 -0.055944
H54   H     H_    0.646429 0.054736 0.439339 0.162910
C117  C     C_R   0.667988 0.955951 0.462518 -0.066745
H55   H     H_    0.606944 0.901624 0.406134 0.168718
C118  C     C_R   0.724048 0.939784 0.517144 -0.122973
H56   H     H_    0.704550 0.873060 0.503147 0.158832
C119  C     C_R   0.804372 0.009228 0.589093 -0.066858
H57   H     H_    0.847608 0.996095 0.630994 0.109216
C120  C     C_R   0.828648 0.095697 0.606748 0.167975
I1    I     I_    0.682309 0.688509 0.049164 -0.334874
I2    I     I_    0.748978 0.550763 0.120230 -0.252609
I3    I     I_    0.758439 0.564996 0.316796 -0.279087
N1    N     N_R   0.377326 0.767150 0.624541 0.212510
O25   O     O_R   0.392500 0.841546 0.681459 -0.395994
O26   O     O_R   0.360030 0.701471 0.638604 -0.404534
N2    N     N_R   0.472677 0.904848 0.468743 0.219861
O27   O     O_R   0.515074 0.982631 0.536431 -0.356255
O28   O     O_R   0.462653 0.898413 0.395596 -0.406022
I4    I     I_    0.295237 0.494867 0.665358 -0.335440
I5    I     I_    0.621375 0.836743 0.611237 -0.329144
I6    I     I_    0.247001 0.861865 0.344154 -0.403402
I7    I     I_    0.971557 0.672035 0.756637 -0.425310
I8    I     I_    0.049274 0.389947 0.586164 -0.381793
I9    I     I_    0.955468 0.538852 0.476419 -0.312824
I10   I     I_    0.797451 0.715656 0.866866 -0.406433
I11   I     I_    0.235331 0.305802 0.929222 -0.304657
N3    N     N_R   0.400543 0.502790 0.015329 0.223051
O29   O     O_R   0.458847 0.575839 0.087446 -0.385485
O30   O     O_R   0.423049 0.444576 0.986242 -0.340927
N4    N     N_R   0.840626 0.212659 0.757206 0.227308
O31   O     O_R   0.804250 0.141856 0.760088 -0.361036
O32   O     O_R   0.802120 0.259777 0.754332 -0.402394

loop_
_geom_bond_atom_site_label_1
_geom_bond_atom_site_label_2
_geom_bond_distance
_ccdc_geom_bond_type
O15   C80   1.280775 A    
C39   C40   1.403721 A    
C97   H45   1.081203 S    
O13   C79   1.281697 A    
O10   C77   1.292979 A    
C111  C120  1.486177 S    
O20   Zn6   2.018125 S    
C95   C96   1.422839 A    
C32   H13   1.085162 S    
C7    C8    1.407821 A    
O22   C83   1.280315 A    
C77   C95   1.439293 S    
C118  H56   1.077384 S    
O14   C79   1.272355 A    
N4    O32   1.299674 A    
C89   C90   1.397386 A    
C94   C95   1.395592 A    
C92   C93   1.400730 A    
C31   C32   1.387369 A    
C104  H51   1.079996 S    
Zn1   O7    2.015182 S    
C42   I4    2.117413 S    
C63   C64   1.395130 A    
C25   C34   1.489057 S    
C30   C82   1.428396 S    
C44   C45   1.398438 A    
C65   C70   1.386924 A    
C105  C114  1.493045 S    
C13   C14   1.387861 A    
C18   C19   1.395987 A    
C19   C20   1.410857 A    
C45   C46   1.394991 A    
C66   C84   1.439111 S    
C72   C73   1.397447 A    
C88   H42   1.080261 S    
C81   C113  1.446302 S    
C20   C21   1.415614 A    
Zn2   O6    2.032437 S    
O7    C4    1.276121 A    
N2    O28   1.301310 A    
Zn4   O16   2.016030 S    
C118  C119  1.399660 A    
C41   C46   1.396073 A    
C106  I11   2.138272 S    
C13   C22   1.484014 S    
C35   C36   1.398055 A    
O20   C82   1.273025 A    
C73   I8    2.099282 S    
C65   H34   1.085573 S    
C36   C37   1.395386 A    
C6    C7    1.414477 A    
C117  H55   1.081290 S    
C112  N4    1.440276 S    
C31   C40   1.489055 S    
C91   C96   1.387011 A    
O5    C3    1.275685 A    
C66   C67   1.409169 A    
N4    O31   1.301321 A    
C37   C38   1.394964 A    
C61   C70   1.485337 S    
C17   C18   1.391642 A    
Zn6   O24   2.025733 S    
H49   C108  1.082844 S    
O17   Zn5   2.014535 S    
C50   H24   1.085577 S    
C104  C105  1.404768 A    
C5    H2    1.082448 S    
C29   C30   1.387530 A    
C88   C89   1.400082 A    
C41   H20   1.081765 S    
C103  C108  1.391277 A    
C54   C55   1.395533 A    
C85   C86   1.397332 A    
C3    C69   1.433172 S    
C111  C112  1.392030 A    
C109  C114  1.377289 A    
O12   Zn4   2.023541 S    
C11   C16   1.380666 A    
C119  C120  1.400803 A    
C112  C113  1.421181 A    
C116  H54   1.082283 S    
C5    C10   1.392443 A    
C98   H46   1.082451 S    
C89   I9    2.108702 S    
C117  C118  1.393607 A    
O19   Zn5   2.025604 S    
H29   C64   1.082699 S    
H19   C46   1.082690 S    
C57   H28   1.083098 S    
O3    Zn1   2.024208 S    
C7    C16   1.485682 S    
H9    C28   1.081911 S    
C68   H35   1.085600 S    
Zn5   O21   2.023270 S    
C74   C75   1.392824 A    
C48   C49   1.409648 A    
Zn6   O22   2.014321 S    
C75   H38   1.077712 S    
C98   C99   1.394959 A    
C43   C44   1.404504 A    
C48   C80   1.439249 S    
C27   N2    1.438800 S    
C17   C22   1.400795 A    
C49   C58   1.476528 S    
C44   H21   1.083061 S    
C61   C62   1.406138 A    
C101  H48   1.082704 S    
N3    O29   1.301405 A    
C39   H18   1.081617 S    
C45   H22   1.081406 S    
C99   C100  1.398493 A    
C107  N3    1.435954 S    
O23   C84   1.280954 A    
O18   Zn6   2.023483 S    
C94   H44   1.085493 S    
C47   C48   1.398886 A    
N2    O27   1.301567 A    
C87   C96   1.488177 S    
C29   H12   1.086529 S    
C11   H5    1.086306 S    
C51   C52   1.404824 A    
C100  I10   2.089955 S    
C59   C64   1.395610 A    
C47   H23   1.085025 S    
C21   I3    2.134623 S    
C36   H15   1.082398 S    
O1    C1    1.273915 A    
C18   H8    1.082786 S    
C38   C39   1.399734 A    
O21   C83   1.276048 A    
C24   H10   1.079779 S    
C109  H52   1.086667 S    
C14   H6    1.085270 S    
C55   C56   1.398062 A    
C79   C110  1.420453 S    
C97   C98   1.394807 A    
C1    C33   1.444827 S    
O9    Zn3   2.029428 S    
N1    O25   1.301584 A    
O10   Zn4   2.008317 S    
Zn2   O8    2.024211 S    
C53   C58   1.402100 A    
C37   H16   1.081943 S    
C60   C61   1.405717 A    
C17   H7    1.083057 S    
C62   C63   1.398656 A    
C56   C57   1.400014 A    
O18   C81   1.288803 A    
C57   C58   1.403779 A    
C24   C25   1.404624 A    
C85   H40   1.082467 S    
C100  C101  1.393971 A    
C68   C69   1.395672 A    
C5    C6    1.399940 A    
H1    C10   1.082403 S    
C50   C51   1.394208 A    
C8    C9    1.395878 A    
C49   C50   1.384716 A    
C59   C60   1.396753 A    
C53   C54   1.396204 A    
C87   C88   1.405429 A    
C19   I1    2.122821 S    
C9    C10   1.392740 A    
C97   C102  1.403476 A    
C115  C120  1.406773 A    
O3    C2    1.274177 A    
C93   C102  1.467925 S    
C33   C34   1.420327 A    
C75   C76   1.401439 A    
C6    I5    2.102836 S    
O11   Zn3   2.015941 S    
C55   H27   1.079289 S    
O19   C82   1.284114 A    
C30   C31   1.409252 A    
O16   C80   1.283036 A    
C116  C117  1.394186 A    
O12   C78   1.278352 A    
C35   C40   1.408342 A    
Zn1   O5    2.011185 S    
C119  H57   1.081119 S    
C26   H11   1.083350 S    
C86   H41   1.077802 S    
C109  C110  1.382448 A    
C71   C76   1.411386 A    
C67   C68   1.385860 A    
N1    O26   1.300742 A    
C67   C76   1.480538 S    
O1    Zn1   2.032434 S    
C29   C34   1.386025 A    
C85   C90   1.396075 A    
C15   C16   1.416109 A    
O2    Zn2   2.011184 S    
C4    C51   1.427555 S    
O8    C4    1.279371 A    
C42   C43   1.409854 A    
Zn3   O13   2.008442 S    
O6    C3    1.284190 A    
O11   C78   1.285343 A    
O4    Zn2   2.015179 S    
C101  C102  1.396806 A    
C73   C74   1.389996 A    
C32   C33   1.399695 A    
C69   C70   1.411933 A    
C11   C12   1.386042 A    
C63   H33   1.079676 S    
Zn3   O15   2.023797 S    
H39   C90   1.082470 S    
C56   I6    2.107029 S    
C38   H17   1.079529 S    
C115  C116  1.396616 A    
O2    C1    1.291540 A    
C35   H14   1.081325 S    
C71   I7    2.111297 S    
C106  C107  1.417464 A    
C14   C15   1.400887 A    
C99   H47   1.076791 S    
C83   C92   1.428853 S    
C72   H36   1.082293 S    
C110  C111  1.403322 A    
O17   C81   1.276630 A    
C9    H4    1.078635 S    
O4    C2    1.288554 A    
C93   C94   1.378720 A    
C27   C28   1.403884 A    
C86   C87   1.404890 A    
C60   H31   1.077629 S    
N3    O30   1.300844 A    
C65   C66   1.396541 A    
C71   C72   1.401895 A    
C2    C15   1.438933 S    
O24   C84   1.281602 A    
C20   I2    2.135625 S    
C115  H53   1.079210 S    
C103  C104  1.391371 A    
C43   C52   1.481192 S    
C91   H43   1.085759 S    
C23   C28   1.403152 A    
C113  C114  1.427319 A    
C21   C22   1.413357 A    
C26   C27   1.404447 A    
C25   C26   1.407014 A    
C8    H3    1.082315 S    
C53   H25   1.079284 S    
Zn4   O14   2.029383 S    
C59   H30   1.082324 S    
C23   C24   1.404667 A    
C62   H32   1.083322 S    
O9    C77   1.272206 A    
C12   C78   1.432552 S    
C74   H37   1.078529 S    
C107  C108  1.402265 A    
C91   C92   1.389701 A    
C41   C42   1.400551 A    
C105  C106  1.420975 A    
C54   H26   1.082277 S    
C47   C52   1.385280 A    
Zn5   O23   2.018129 S    
C23   N1    1.438280 S    
C103  H50   1.082448 S    
C12   C13   1.409291 A    
