data_mof_unit_46002.cif
_audit_creation_date              2012-12-11T15:22:51-0500
_audit_creation_method            fapswitch 2.2
_symmetry_space_group_name_H-M    P1
_symmetry_Int_Tables_number       1
_space_group_crystal_system       triclinic
_cell_length_a                    22.421054
_cell_length_b                    12.978637
_cell_length_c                    26.975614
_cell_angle_alpha                 90.148621
_cell_angle_beta                  90.282454
_cell_angle_gamma                 90.06152
_cell_volume                      7849.63484484

loop_
_atom_site_label
_atom_site_type_symbol
_atom_type_description
_atom_site_fract_x
_atom_site_fract_y
_atom_site_fract_z
_atom_type_partial_charge
C1    C     C_R   0.721112 0.345420 0.178398 0.592455
C2    C     C_R   0.278828 0.345892 0.821568 0.590179
C3    C     C_R   0.221110 0.845417 0.178396 0.592696
C4    C     C_R   0.778828 0.845892 0.821569 0.590198
C5    C     C_R   0.477187 0.166041 0.870303 -0.012420
C6    C     C_R   0.532462 0.161034 0.125620 -0.008996
C7    C     C_R   0.977186 0.666036 0.870304 -0.012411
C8    C     C_R   0.032445 0.661033 0.125627 -0.008964
C9    C     C_R   0.520396 0.255352 0.102326 -0.120785
C10   C     C_R   0.476683 0.259540 0.896710 -0.126060
C11   C     C_R   0.020379 0.755351 0.102332 -0.120734
C12   C     C_R   0.976693 0.759538 0.896709 -0.125949
C13   C     C_R   0.512912 0.260102 0.050523 -0.031232
C14   C     C_R   0.493062 0.262731 0.947021 -0.035548
C15   C     C_R   0.012888 0.760095 0.050529 -0.031198
C16   C     C_R   0.993051 0.762722 0.947025 -0.035521
C17   C     C_R   0.516680 0.168015 0.022528 0.005141
C18   C     C_R   0.508112 0.169691 0.970933 0.006179
C19   C     C_R   0.016651 0.668005 0.022535 0.005140
C20   C     C_R   0.008088 0.669679 0.970940 0.006160
C21   C     C_R   0.502323 0.354578 0.026015 0.277304
C22   C     C_R   0.491543 0.355773 0.974467 0.274512
C23   C     C_R   0.002300 0.854570 0.026020 0.277282
C24   C     C_R   0.991527 0.855763 0.974470 0.274535
C25   C     C_R   0.741221 0.954216 0.130619 0.025712
C26   C     C_R   0.258114 0.955366 0.869438 0.030985
C27   C     C_R   0.241219 0.454223 0.130617 0.025656
C28   C     C_R   0.758123 0.455387 0.869444 0.030978
C29   C     C_R   0.794882 0.971827 0.105364 -0.125947
C30   C     C_R   0.205756 0.979124 0.895511 -0.132415
C31   C     C_R   0.294878 0.471844 0.105360 -0.125986
C32   C     C_R   0.705779 0.479184 0.895528 -0.132423
C33   C     C_R   0.798683 0.951725 0.054788 -0.117092
C34   C     C_R   0.202123 0.959563 0.946054 -0.124618
C35   C     C_R   0.298677 0.451747 0.054784 -0.117099
C36   C     C_R   0.702160 0.459643 0.946074 -0.124602
C37   C     C_R   0.748923 0.913774 0.028789 0.034267
C38   C     C_R   0.250395 0.914971 0.971219 0.042529
C39   C     C_R   0.248916 0.413790 0.028786 0.034270
C40   C     C_R   0.750431 0.415029 0.971230 0.042530
C41   C     C_R   0.696900 0.888382 0.054766 -0.125318
C42   C     C_R   0.300810 0.883613 0.944504 -0.120606
C43   C     C_R   0.196896 0.388390 0.054764 -0.125306
C44   C     C_R   0.800832 0.383637 0.944507 -0.120594
C45   C     C_R   0.554943 0.156849 0.176842 0.547584
C46   C     C_R   0.446555 0.157686 0.822249 0.550101
C47   C     C_R   0.054939 0.656849 0.176844 0.548236
C48   C     C_R   0.946556 0.657686 0.822249 0.550089
C49   C     C_R   0.693158 0.908005 0.105365 -0.125991
C50   C     C_R   0.304649 0.903606 0.893923 -0.119931
C51   C     C_R   0.193156 0.408010 0.105364 -0.125994
C52   C     C_R   0.804657 0.403611 0.893922 -0.119921
C53   C     C_R   0.725669 0.817768 0.951311 -0.127807
C54   C     C_R   0.267894 0.811943 0.047188 -0.127741
C55   C     C_R   0.225674 0.317765 0.951312 -0.127804
C56   C     C_R   0.767926 0.311986 0.047195 -0.127731
C57   C     C_R   0.730285 0.805554 0.900434 -0.153364
C58   C     C_R   0.263169 0.798483 0.097944 -0.149268
C59   C     C_R   0.230294 0.305544 0.900436 -0.153366
C60   C     C_R   0.763186 0.298509 0.097949 -0.149260
C61   C     C_R   0.781445 0.970927 0.894051 0.020363
C62   C     C_R   0.223550 0.972495 0.107051 0.001390
C63   C     C_R   0.281431 0.470938 0.894047 0.020327
C64   C     C_R   0.723573 0.472525 0.107063 0.001345
C65   C     C_R   0.776944 0.981581 0.945606 -0.125676
C66   C     C_R   0.227791 0.984325 0.055508 -0.151300
C67   C     C_R   0.276928 0.481598 0.945601 -0.125685
C68   C     C_R   0.727831 0.484374 0.055523 -0.151289
C69   C     C_R   0.750646 0.904074 0.974474 0.028373
C70   C     C_R   0.248644 0.903589 0.025417 0.023158
C71   C     C_R   0.250639 0.404085 0.974472 0.028373
C72   C     C_R   0.748686 0.403643 0.025429 0.023164
C73   C     C_R   0.760446 0.878920 0.871454 0.039566
C74   C     C_R   0.238970 0.876246 0.128218 0.041437
C75   C     C_R   0.260444 0.378919 0.871453 0.039535
C76   C     C_R   0.738981 0.376265 0.128224 0.041385
C77   C     C_R   0.525224 0.166679 0.370300 0.036974
C78   C     C_R   0.462403 0.164935 0.625878 0.038687
C79   C     C_R   0.026232 0.666333 0.370616 0.037240
C80   C     C_R   0.963026 0.665153 0.626042 0.038305
C81   C     C_R   0.507312 0.262234 0.390840 0.259669
C82   C     C_R   0.492821 0.250630 0.606312 0.254132
C83   C     C_R   0.006284 0.761065 0.390572 0.259025
C84   C     C_R   0.992281 0.752171 0.606540 0.254861
C85   C     C_R   0.490030 0.265139 0.441227 -0.112831
C86   C     C_R   0.502697 0.254888 0.554762 -0.113272
C87   C     C_R   0.989483 0.764612 0.441014 -0.112533
C88   C     C_R   0.002442 0.756793 0.555037 -0.112616
C89   C     C_R   0.731533 0.001369 0.179461 0.546461
C90   C     C_R   0.268383 0.001687 0.820563 0.548997
C91   C     C_R   0.231532 0.501370 0.179460 0.546427
C92   C     C_R   0.768385 0.501690 0.820564 0.549094
C93   C     C_R   0.492972 0.176107 0.470372 -0.004544
C94   C     C_R   0.478960 0.178486 0.523379 -0.009094
C95   C     C_R   0.994858 0.676801 0.470810 -0.005734
C96   C     C_R   0.980241 0.679110 0.523657 -0.008913
C97   C     C_R   0.509715 0.082473 0.449021 -0.145393
C98   C     C_R   0.445705 0.097703 0.543303 -0.150657
C99   C     C_R   0.014155 0.583966 0.450173 -0.145619
C100  C     C_R   0.948205 0.596754 0.543476 -0.150170
C101  C     C_R   0.524621 0.077463 0.399611 -0.179663
C102  C     C_R   0.438635 0.089871 0.593858 -0.182618
C103  C     C_R   0.028671 0.578359 0.400715 -0.179692
C104  C     C_R   0.940806 0.588772 0.593982 -0.182825
C105  C     C_R   0.743122 0.948574 0.369689 -0.017064
C106  C     C_R   0.256373 0.948345 0.630390 -0.016594
C107  C     C_R   0.243215 0.448715 0.369734 -0.016894
C108  C     C_R   0.756514 0.448412 0.630250 -0.014411
C109  C     C_R   0.696656 0.896216 0.393582 -0.145237
C110  C     C_R   0.301961 0.893315 0.606726 -0.151239
C111  C     C_R   0.197198 0.394299 0.393163 -0.145473
C112  C     C_R   0.801962 0.392162 0.607046 -0.150597
C113  C     C_R   0.702960 0.866944 0.442815 -0.174072
C114  C     C_R   0.295901 0.865894 0.557137 -0.177680
C115  C     C_R   0.203431 0.364536 0.442348 -0.175717
C116  C     C_R   0.795927 0.363095 0.557673 -0.180007
C117  C     C_R   0.755582 0.889919 0.468742 0.032912
C118  C     C_R   0.244345 0.893324 0.530821 0.032263
C119  C     C_R   0.255520 0.389115 0.468685 0.032228
C120  C     C_R   0.744555 0.390188 0.531058 0.038151
C121  C     C_R   0.803617 0.937614 0.444097 0.267753
C122  C     C_R   0.197085 0.943689 0.555226 0.268865
C123  C     C_R   0.303100 0.439212 0.444530 0.267076
C124  C     C_R   0.697480 0.442290 0.554793 0.272459
C125  C     C_R   0.797551 0.963899 0.394326 -0.096908
C126  C     C_R   0.202708 0.967447 0.605309 -0.092651
C127  C     C_R   0.297167 0.465980 0.394831 -0.097407
C128  C     C_R   0.703074 0.467805 0.604834 -0.099099
C129  C     C_R   0.809076 0.825278 0.542649 -0.089789
C130  C     C_R   0.190341 0.829717 0.457077 -0.092516
C131  C     C_R   0.309542 0.326107 0.542636 -0.089438
C132  C     C_R   0.690797 0.326504 0.457123 -0.087815
C133  C     C_R   0.720155 0.345292 0.322521 0.548586
C134  C     C_R   0.279921 0.344936 0.677386 0.547823
C135  C     C_R   0.220168 0.845392 0.322472 0.549362
C136  C     C_R   0.779882 0.845063 0.677433 0.547682
C137  C     C_R   0.815807 0.820677 0.593525 -0.130582
C138  C     C_R   0.183822 0.823709 0.406248 -0.130556
C139  C     C_R   0.316392 0.322320 0.593512 -0.130790
C140  C     C_R   0.683927 0.322254 0.406272 -0.130217
C141  C     C_R   0.719046 0.901037 0.604791 -0.137743
C142  C     C_R   0.281379 0.901636 0.394985 -0.137149
C143  C     C_R   0.218368 0.398037 0.604634 -0.136837
C144  C     C_R   0.781537 0.400057 0.395226 -0.136378
C145  C     C_R   0.712938 0.908417 0.553410 -0.139100
C146  C     C_R   0.287437 0.909902 0.446349 -0.138151
C147  C     C_R   0.212163 0.404876 0.553237 -0.139097
C148  C     C_R   0.787815 0.407029 0.446630 -0.133139
C149  C     C_R   0.758523 0.871972 0.522239 0.034349
C150  C     C_R   0.241354 0.875330 0.477415 0.037006
C151  C     C_R   0.258335 0.370481 0.522138 0.033886
C152  C     C_R   0.741848 0.371763 0.477626 0.045876
C153  C     C_R   0.771416 0.859878 0.624719 0.038095
C154  C     C_R   0.228679 0.861200 0.375086 0.038974
C155  C     C_R   0.271417 0.359666 0.624652 0.037596
C156  C     C_R   0.728662 0.360496 0.375204 0.037376
C157  C     C_R   0.553795 0.158841 0.321436 0.564573
C158  C     C_R   0.444733 0.158495 0.677907 0.572882
C159  C     C_R   0.053901 0.658780 0.321460 0.566478
C160  C     C_R   0.944777 0.658518 0.677932 0.572197
C161  C     C_R   0.731874 0.001376 0.322769 0.551309
C162  C     C_R   0.267989 0.001026 0.677356 0.548966
C163  C     C_R   0.231875 0.501439 0.322796 0.551200
C164  C     C_R   0.768043 0.501188 0.677260 0.549688
C165  C     C_R   0.534211 0.070170 0.097355 -0.121648
C166  C     C_R   0.497890 0.076339 0.893292 -0.124559
C167  C     C_R   0.034181 0.570165 0.097364 -0.121665
C168  C     C_R   0.997872 0.576328 0.893299 -0.124566
C169  C     C_R   0.527605 0.073089 0.046257 0.027402
C170  C     C_R   0.511703 0.076753 0.943590 0.029680
C171  C     C_R   0.027570 0.573080 0.046267 0.027410
C172  C     C_R   0.011676 0.576740 0.943598 0.029672
C173  C     C_R   0.525421 0.984095 0.967455 -0.124401
C174  C     C_R   0.532864 0.982135 0.018576 -0.126136
C175  C     C_R   0.025383 0.484079 0.967466 -0.124397
C176  C     C_R   0.032823 0.482122 0.018586 -0.126123
Cr1   Cr    Cr6+3 0.756570 0.170940 0.251190 1.023882
Cr2   Cr    Cr6+3 0.243430 0.170940 0.748810 1.014312
Cr3   Cr    Cr6+3 0.256570 0.670940 0.251190 1.024066
Cr4   Cr    Cr6+3 0.743430 0.670940 0.748810 1.013423
Cr5   Cr    Cr6+3 0.623740 0.299110 0.249580 1.055608
Cr6   Cr    Cr6+3 0.376260 0.299110 0.750420 1.045793
Cr7   Cr    Cr6+3 0.123740 0.799110 0.249580 1.051491
Cr8   Cr    Cr6+3 0.876260 0.799110 0.750420 1.045578
Cr9   Cr    Cr6+3 0.625990 0.036240 0.250480 1.016507
Cr10  Cr    Cr6+3 0.374010 0.036240 0.749520 1.018286
Cr11  Cr    Cr6+3 0.125990 0.536240 0.250480 1.016661
Cr12  Cr    Cr6+3 0.874010 0.536240 0.749520 1.018123
H1    H     H_    0.498745 0.004081 0.873014 0.127906
H2    H     H_    0.544040 0.996817 0.114722 0.129049
H3    H     H_    0.998722 0.504067 0.873022 0.127910
H4    H     H_    0.044007 0.496812 0.114731 0.129026
H5    H     H_    0.657982 0.858683 0.035539 0.097819
H6    H     H_    0.338536 0.848646 0.963185 0.105668
H7    H     H_    0.157978 0.358688 0.035539 0.097820
H8    H     H_    0.838556 0.348652 0.963181 0.105668
H9    H     H_    0.651201 0.893536 0.123834 0.124664
H10   H     H_    0.345546 0.884422 0.874806 0.129992
H11   H     H_    0.151200 0.393535 0.123834 0.124641
H12   H     H_    0.845544 0.384397 0.874797 0.129974
H13   H     H_    0.425764 0.039303 0.519673 0.116073
H14   H     H_    0.512946 0.012904 0.470986 0.115385
H15   H     H_    0.929551 0.537209 0.519781 0.116788
H16   H     H_    0.019375 0.515522 0.472699 0.116235
H17   H     H_    0.412393 0.026239 0.607786 0.139978
H18   H     H_    0.538969 0.003606 0.385194 0.138682
H19   H     H_    0.915486 0.523901 0.607798 0.139912
H20   H     H_    0.044942 0.505276 0.386811 0.138792
H21   H     H_    0.474077 0.335618 0.458016 0.123491
H22   H     H_    0.530167 0.315411 0.539357 0.128077
H23   H     H_    0.971813 0.834530 0.457155 0.130453
H24   H     H_    0.028983 0.818592 0.539671 0.129631
H25   H     H_    0.654264 0.882966 0.375206 0.136811
H26   H     H_    0.343512 0.876424 0.625639 0.134112
H27   H     H_    0.155186 0.379614 0.374437 0.136350
H28   H     H_    0.843379 0.375300 0.626172 0.134447
H29   H     H_    0.843822 0.794026 0.519242 0.156190
H30   H     H_    0.155172 0.800182 0.480532 0.148262
H31   H     H_    0.344784 0.296375 0.519284 0.156117
H32   H     H_    0.655693 0.296446 0.480494 0.146728
H33   H     H_    0.855406 0.784725 0.608704 0.118681
H34   H     H_    0.143995 0.787975 0.391095 0.122501
H35   H     H_    0.356552 0.288343 0.608726 0.119470
H36   H     H_    0.643942 0.287221 0.391026 0.125138
H37   H     H_    0.528488 0.912574 0.946786 0.099275
H38   H     H_    0.542166 0.909248 0.036548 0.093600
H39   H     H_    0.028448 0.412557 0.946798 0.099304
H40   H     H_    0.042121 0.409235 0.036560 0.093606
H41   H     H_    0.665926 0.829974 0.461289 0.107151
H42   H     H_    0.332255 0.826588 0.538781 0.105827
H43   H     H_    0.166740 0.325830 0.460457 0.105553
H44   H     H_    0.832194 0.322802 0.539672 0.105234
H45   H     H_    0.673526 0.944722 0.538034 0.112026
H46   H     H_    0.327196 0.945275 0.461801 0.106784
H47   H     H_    0.172231 0.439341 0.537801 0.111757
H48   H     H_    0.827603 0.442130 0.462175 0.106513
H49   H     H_    0.683896 0.928776 0.628752 0.115969
H50   H     H_    0.316854 0.927962 0.371020 0.115853
H51   H     H_    0.182747 0.424118 0.628543 0.116250
H52   H     H_    0.816974 0.426787 0.371325 0.115876
H53   H     H_    0.834257 0.002634 0.376170 0.144759
H54   H     H_    0.166523 0.008037 0.623294 0.141835
H55   H     H_    0.333516 0.506562 0.377115 0.144282
H56   H     H_    0.666979 0.508618 0.622765 0.131624
H57   H     H_    0.460266 0.328500 0.878731 0.168207
H58   H     H_    0.518358 0.324608 0.124648 0.155634
H59   H     H_    0.960300 0.828507 0.878723 0.168220
H60   H     H_    0.018351 0.824611 0.124651 0.155590
H61   H     H_    0.832793 0.006667 0.123988 0.142376
H62   H     H_    0.168954 0.018510 0.877616 0.119032
H63   H     H_    0.332788 0.506687 0.123983 0.142417
H64   H     H_    0.668978 0.518587 0.877640 0.118988
H65   H     H_    0.705072 0.757065 0.972790 0.103597
H66   H     H_    0.284069 0.748702 0.024679 0.110412
H67   H     H_    0.205085 0.257058 0.972794 0.103594
H68   H     H_    0.784099 0.248747 0.024684 0.110406
H69   H     H_    0.713816 0.734323 0.884383 0.137223
H70   H     H_    0.274977 0.723882 0.113021 0.139714
H71   H     H_    0.213835 0.234304 0.884387 0.137216
H72   H     H_    0.774986 0.223901 0.113022 0.139701
H73   H     H_    0.839887 0.968931 0.035679 0.149712
H74   H     H_    0.162312 0.982080 0.965777 0.079946
H75   H     H_    0.339878 0.468959 0.035673 0.149703
H76   H     H_    0.662362 0.482190 0.965806 0.079948
H77   H     H_    0.793616 0.050994 0.963361 0.091928
H78   H     H_    0.215278 0.057035 0.038709 0.090327
H79   H     H_    0.293590 0.551020 0.963355 0.091925
H80   H     H_    0.715327 0.557091 0.038727 0.090347
O1    O     O_R   0.769900 0.064540 0.196060 -0.523664
O2    O     O_R   0.230100 0.064540 0.803940 -0.527040
O3    O     O_R   0.269900 0.564540 0.196060 -0.523557
O4    O     O_R   0.730100 0.564540 0.803940 -0.527088
O5    O     O_R   0.574760 0.239320 0.300850 -0.457159
O6    O     O_R   0.425240 0.239320 0.699150 -0.478938
O7    O     O_R   0.074760 0.739320 0.300850 -0.461176
O8    O     O_R   0.925240 0.739320 0.699150 -0.477659
O9    O     O_R   0.566290 0.069580 0.305400 -0.534804
O10   O     O_R   0.433710 0.069580 0.694600 -0.531082
O11   O     O_R   0.066290 0.569580 0.305400 -0.534039
O12   O     O_R   0.933710 0.569580 0.694600 -0.531446
O13   O     O_R   0.680760 0.993330 0.302620 -0.501877
O14   O     O_R   0.319240 0.993330 0.697380 -0.504338
O15   O     O_R   0.180760 0.493330 0.302620 -0.502140
O16   O     O_R   0.819240 0.493330 0.697380 -0.504380
O17   O     O_3   0.668770 0.168760 0.250420 -0.258538
O18   O     O_3   0.331230 0.168760 0.749580 -0.255444
O19   O     O_3   0.168770 0.668760 0.250420 -0.258242
O20   O     O_3   0.831230 0.668760 0.749580 -0.255366
O21   O     O_R   0.750800 0.274080 0.199250 -0.513834
O22   O     O_R   0.249200 0.274080 0.800750 -0.516888
O23   O     O_R   0.250800 0.774080 0.199250 -0.513725
O24   O     O_R   0.749200 0.774080 0.800750 -0.516878
O25   O     O_R   0.669990 0.371670 0.194150 -0.478395
O26   O     O_R   0.330010 0.371670 0.805850 -0.470835
O27   O     O_R   0.169990 0.871670 0.194150 -0.478810
O28   O     O_R   0.830010 0.871670 0.805850 -0.471047
O29   O     O_R   0.574600 0.238480 0.197800 -0.505406
O30   O     O_R   0.425400 0.238480 0.802200 -0.508172
O31   O     O_R   0.074600 0.738480 0.197800 -0.505492
O32   O     O_R   0.925400 0.738480 0.802200 -0.508217
O33   O     O_R   0.566130 0.068680 0.194240 -0.521393
O34   O     O_R   0.433870 0.068680 0.805760 -0.518472
O35   O     O_R   0.066130 0.568680 0.194240 -0.521170
O36   O     O_R   0.933870 0.568680 0.805760 -0.518483
O37   O     O_R   0.680610 0.992490 0.199570 -0.501384
O38   O     O_R   0.319390 0.992490 0.800430 -0.497997
O39   O     O_R   0.180610 0.492490 0.199570 -0.501393
O40   O     O_R   0.819390 0.492490 0.800430 -0.497931
O41   O     O_R   0.770060 0.065440 0.307230 -0.519157
O42   O     O_R   0.229940 0.065440 0.692770 -0.522683
O43   O     O_R   0.270060 0.565440 0.307230 -0.519008
O44   O     O_R   0.729940 0.565440 0.692770 -0.522764
O45   O     O_R   0.750960 0.274920 0.302300 -0.497894
O46   O     O_R   0.249040 0.274920 0.697700 -0.498966
O47   O     O_R   0.250960 0.774920 0.302300 -0.497905
O48   O     O_R   0.749040 0.774920 0.697700 -0.499310
O49   O     O_R   0.670160 0.372580 0.305320 -0.513874
O50   O     O_R   0.329840 0.372580 0.694680 -0.511299
O51   O     O_R   0.170160 0.872580 0.305320 -0.514904
O52   O     O_R   0.829840 0.872580 0.694680 -0.511355
C177  C     C_2   0.807472 0.057951 0.865878 0.234037
H81   H     H_    0.834420 0.115275 0.885029 0.092219
O53   O     O_2   0.797063 0.069562 0.821785 -0.492974
C178  C     C_2   0.204497 0.062926 0.136801 0.223822
H82   H     H_    0.184903 0.129128 0.118444 0.090622
O54   O     O_2   0.212740 0.067037 0.181523 -0.487635
C179  C     C_2   0.307443 0.557969 0.865871 0.234079
H83   H     H_    0.334377 0.615316 0.885020 0.092207
O55   O     O_2   0.297037 0.569562 0.821775 -0.492805
C180  C     C_2   0.704511 0.562946 0.136817 0.223961
H84   H     H_    0.684928 0.629158 0.118459 0.090633
O56   O     O_2   0.712732 0.567036 0.181543 -0.487419
O57   O     O_3   0.503816 0.347959 0.359945 -0.540221
C181  C     C_3   0.521023 0.439894 0.384386 -0.017627
H85   H     H_    0.560840 0.428039 0.408616 0.128596
H86   H     H_    0.483292 0.470396 0.406613 0.146060
C182  C     C_3   0.536819 0.520696 0.345898 -0.354060
H87   H     H_    0.497687 0.536030 0.321622 0.158004
H88   H     H_    0.550111 0.593487 0.364675 0.085167
H89   H     H_    0.574450 0.493346 0.322787 0.191397
O58   O     O_3   0.516792 0.323670 0.638312 -0.546077
C183  C     C_3   0.495449 0.422786 0.625908 -0.004187
H90   H     H_    0.446186 0.422539 0.619911 0.130796
H91   H     H_    0.518038 0.452259 0.592181 0.136197
C184  C     C_3   0.509248 0.496557 0.668315 -0.351865
H92   H     H_    0.558158 0.500148 0.674862 0.158351
H93   H     H_    0.492863 0.574877 0.658950 0.088927
H94   H     H_    0.486894 0.470061 0.702662 0.166981
O59   O     O_3   0.999902 0.845317 0.359184 -0.540541
C185  C     C_3   0.020754 0.937212 0.381593 -0.014518
H95   H     H_    0.062823 0.924569 0.402914 0.126825
H96   H     H_    0.986000 0.969826 0.406324 0.141172
C186  C     C_3   0.033437 0.016201 0.341470 -0.350129
H97   H     H_    0.991972 0.033194 0.320342 0.155428
H98   H     H_    0.050183 0.088592 0.358643 0.087437
H99   H     H_    0.067659 0.986169 0.315601 0.190785
O60   O     O_3   0.014860 0.826404 0.638604 -0.545421
C187  C     C_3   0.992209 0.924500 0.625939 -0.003830
H100  H     H_    0.943094 0.922018 0.619242 0.131648
H101  H     H_    0.015037 0.955035 0.592556 0.136298
C188  C     C_3   0.003974 0.998782 0.668545 -0.349597
H102  H     H_    0.052667 0.004630 0.675793 0.158916
H103  H     H_    0.986566 0.076330 0.658967 0.089599
H104  H     H_    0.981330 0.971175 0.702552 0.167545
O61   O     O_3   0.856372 0.959963 0.468638 -0.582329
C189  C     C_3   0.855139 0.063888 0.484187 -0.011312
H105  H     H_    0.816257 0.078938 0.508765 0.145099
H106  H     H_    0.853199 0.116791 0.451765 0.128736
C190  C     C_3   0.911800 0.087258 0.513279 -0.382558
H107  H     H_    0.951364 0.073236 0.489621 0.139894
H108  H     H_    0.911839 0.169065 0.525429 0.091233
H109  H     H_    0.914400 0.037016 0.546454 0.147899
O62   O     O_3   0.145524 0.971300 0.530251 -0.581331
C191  C     C_3   0.149791 0.075920 0.516346 -0.010922
H110  H     H_    0.184128 0.085667 0.487033 0.148548
H111  H     H_    0.161166 0.126583 0.548492 0.129085
C192  C     C_3   0.089904 0.111015 0.495884 -0.383210
H112  H     H_    0.092432 0.193167 0.484781 0.090122
H113  H     H_    0.077476 0.064010 0.463033 0.142807
H114  H     H_    0.055065 0.102457 0.524704 0.143281
O63   O     O_3   0.355236 0.463635 0.469533 -0.583398
C193  C     C_3   0.351802 0.566696 0.486151 -0.011527
H115  H     H_    0.311224 0.579643 0.509082 0.145078
H116  H     H_    0.351406 0.620839 0.454185 0.129728
C194  C     C_3   0.406183 0.590377 0.518094 -0.378846
H117  H     H_    0.447450 0.578877 0.496219 0.137718
H118  H     H_    0.404498 0.671507 0.531142 0.091864
H119  H     H_    0.407108 0.538547 0.550767 0.150781
O64   O     O_3   0.646444 0.468525 0.528556 -0.581095
C195  C     C_3   0.642523 0.576808 0.524179 -0.011258
H120  H     H_    0.686626 0.613021 0.516130 0.137848
H121  H     H_    0.624097 0.610514 0.558804 0.128087
C196  C     C_3   0.600491 0.602694 0.481627 -0.382858
H122  H     H_    0.556774 0.564315 0.487189 0.139257
H123  H     H_    0.593498 0.687252 0.479824 0.088407
H124  H     H_    0.619954 0.575990 0.446069 0.157973
O65   O     O_3   0.473169 0.446700 0.952426 -0.539926
C197  C     C_3   0.521808 0.492251 0.927521 -0.017530
H125  H     H_    0.545657 0.436586 0.903146 0.116282
H126  H     H_    0.554114 0.524898 0.954561 0.128579
C198  C     C_3   0.498844 0.579804 0.895328 -0.377114
H127  H     H_    0.476187 0.638363 0.918691 0.152598
H128  H     H_    0.536687 0.616924 0.875830 0.093808
H129  H     H_    0.466704 0.549544 0.867380 0.161797
O66   O     O_3   0.498004 0.445924 0.052384 -0.542405
C199  C     C_3   0.555716 0.487818 0.059992 -0.003977
H130  H     H_    0.588072 0.467113 0.030349 0.098656
H131  H     H_    0.574344 0.460352 0.095807 0.140987
C200  C     C_3   0.551195 0.604741 0.062176 -0.367216
H132  H     H_    0.523604 0.628399 0.094324 0.161251
H133  H     H_    0.596328 0.639032 0.066137 0.069892
H134  H     H_    0.530388 0.634483 0.027630 0.160052
O67   O     O_3   0.973158 0.946686 0.952423 -0.539948
C201  C     C_3   0.021794 0.992236 0.927509 -0.017818
H135  H     H_    0.045924 0.936438 0.903404 0.116209
H136  H     H_    0.053868 0.025539 0.954545 0.128875
C202  C     C_3   0.998753 0.079110 0.894942 -0.377162
H137  H     H_    0.975777 0.137778 0.918016 0.152738
H138  H     H_    0.036597 0.116299 0.875474 0.093932
H139  H     H_    0.966872 0.048160 0.866971 0.161698
O68   O     O_3   0.997976 0.945913 0.052389 -0.542451
C203  C     C_3   0.055684 0.987842 0.059963 -0.004065
H140  H     H_    0.087970 0.967350 0.030238 0.098725
H141  H     H_    0.074410 0.960205 0.095709 0.140861
C204  C     C_3   0.051117 0.104740 0.062301 -0.367304
H142  H     H_    0.023589 0.128185 0.094519 0.161172
H143  H     H_    0.096241 0.139072 0.066233 0.069907
H144  H     H_    0.030219 0.134636 0.027825 0.160083

loop_
_geom_bond_atom_site_label_1
_geom_bond_atom_site_label_2
_ccdc_geom_bond_type
C99   C103  A    
C7    C168  A    
C146  H46   S    
O60   C187  S    
C37   C69   S    
C99   H16   S    
C204  H142  S    
C142  C146  A    
C77   C101  A    
C19   C20   A    
C97   H14   S    
C53   C69   A    
C38   C70   S    
C182  H87   S    
C50   H10   S    
O57   C181  S    
C108  C164  S    
C193  H115  S    
Cr9   O33   S    
C111  H27   S    
C55   C59   A    
C26   C50   A    
C95   C99   A    
C78   C102  A    
C29   C33   A    
C100  C104  A    
C187  C188  S    
C3    C74   S    
C9    C13   A    
C192  H114  S    
C41   H5    S    
C201  C202  S    
C146  C150  A    
C196  H122  S    
C131  C151  A    
C12   C16   A    
C178  H82   S    
C56   C72   A    
C169  C174  A    
C133  O45   A    
C134  O46   A    
C172  C175  A    
C141  C145  A    
C190  H109  S    
C107  C111  A    
C138  C154  A    
C6    C165  A    
C21   C22   A    
C201  H136  S    
C90   O2    A    
C41   C49   A    
C186  H98   S    
C18   C170  A    
C165  C169  A    
C188  H104  S    
C44   H8    S    
C180  H84   S    
C27   C31   A    
C143  H51   S    
C28   C32   A    
Cr10  O18   S    
C62   C66   A    
C183  H90   S    
C167  C171  A    
Cr4   O48   S    
C98   C102  A    
Cr5   O49   S    
C60   C76   A    
C85   H21   S    
Cr7   O51   S    
C78   C82   A    
C134  C155  S    
C54   C70   A    
C16   C20   A    
C165  H2    S    
C127  H55   S    
C184  H94   S    
C9    H58   S    
C140  C156  A    
C135  O47   A    
C20   C172  A    
Cr11  O11   S    
O63   C193  S    
C132  C152  A    
C204  H144  S    
C199  H131  S    
C123  O63   S    
C130  C138  A    
C182  H89   S    
Cr12  O12   S    
C139  H35   S    
C137  C153  A    
Cr1   O21   S    
C46   O30   A    
C183  C184  S    
Cr9   O9    S    
C119  C123  A    
C26   C90   S    
C12   H59   S    
C5    C46   S    
Cr11  O35   S    
C105  C125  A    
C7    C48   S    
C60   H72   S    
C8    C47   S    
C107  C127  A    
C173  H37   S    
O66   C199  S    
C79   C159  S    
C136  C153  S    
C181  C182  S    
Cr1   O17   S    
C66   C70   A    
C57   H69   S    
C55   H67   S    
C162  O42   A    
C161  O13   A    
C185  H95   S    
C80   C160  S    
C157  O9    A    
C61   C65   A    
C129  C137  A    
C177  H81   S    
C88   H24   S    
C39   C71   S    
C89   O1    A    
C117  C149  S    
C200  H132  S    
C48   O32   A    
C55   C71   A    
C2    C75   S    
C29   H61   S    
C194  H118  S    
C91   O39   A    
Cr12  O16   S    
C122  C126  A    
O59   C185  S    
C84   O60   S    
C137  H33   S    
C159  O11   A    
C160  O12   A    
C6    C9    A    
Cr5   O5    S    
C198  H127  S    
C49   H9    S    
C129  C149  A    
C58   H70   S    
Cr1   O41   S    
C64   C68   A    
Cr5   O25   S    
C110  H26   S    
Cr3   O43   S    
C100  H15   S    
C138  H34   S    
C144  H52   S    
C43   H7    S    
C118  C122  A    
C104  H19   S    
Cr3   O19   S    
C130  H30   S    
C191  H110  S    
C133  O49   A    
C85   C93   A    
C78   C158  S    
C87   C95   A    
C126  H54   S    
C23   C24   A    
C27   C91   S    
C2    O22   A    
C52   H12   S    
C45   O33   A    
Cr12  O40   S    
C110  C114  A    
C44   C52   A    
C116  H44   S    
Cr9   O37   S    
C54   H66   S    
C79   C103  A    
Cr10  O34   S    
C11   C15   A    
C202  H138  S    
C27   C51   A    
C25   C49   A    
C7    C12   A    
C176  H40   S    
C196  H124  S    
C30   C34   A    
C195  H121  S    
C13   C21   A    
Cr1   O45   S    
C10   C14   A    
C179  O55   D    
C64   C180  S    
C181  H85   S    
C140  H36   S    
C108  C128  A    
C116  C120  A    
C132  H32   S    
C191  C192  S    
C84   C88   A    
C144  C156  A    
C147  C151  A    
Cr8   O52   S    
C121  C125  A    
C123  C127  A    
C139  C155  A    
C17   C18   A    
C5    C166  A    
C142  C154  A    
C200  H134  S    
C187  H101  S    
C189  C190  S    
C4    C73   S    
C42   C50   A    
C113  C117  A    
C107  C163  S    
C166  C170  A    
C115  C119  A    
C56   H68   S    
C203  H140  S    
C197  H126  S    
C93   C97   A    
C112  C116  A    
C198  H129  S    
C58   C74   A    
C105  C109  A    
C40   C72   S    
C24   O67   S    
C1    C76   S    
C87   H23   S    
C148  C152  A    
Cr1   O1    S    
C26   C30   A    
C164  O44   A    
Cr3   O3    S    
C171  C176  A    
C124  C128  A    
C166  H1    S    
C14   C22   A    
C3    O27   A    
O65   C197  S    
Cr8   O32   S    
C141  C153  A    
C63   C75   A    
C136  O52   A    
C122  O62   S    
C96   C100  A    
C105  C161  S    
C112  H28   S    
C37   C41   A    
C192  H113  S    
C131  C139  A    
C101  H18   S    
C40   C44   A    
C203  C204  S    
C178  O54   D    
Cr9   O13   S    
C81   C85   A    
Cr10  O10   S    
C190  H108  S    
C83   C87   A    
C88   C96   A    
O67   C201  S    
C6    C45   S    
C145  H45   S    
Cr2   O22   S    
C133  C156  S    
Cr6   O30   S    
C98   H13   S    
Cr7   O27   S    
C80   C84   A    
C65   H77   S    
C186  H97   S    
Cr2   O18   S    
C15   C19   A    
C188  H103  S    
O68   C203  S    
C135  C154  S    
C180  O56   D    
C80   C104  A    
C11   H60   S    
C17   C169  A    
C157  O5    A    
C92   O4    A    
C183  H91   S    
C158  O10   A    
C94   C98   A    
C33   H73   S    
C175  H39   S    
C35   H75   S    
C118  C150  S    
C14   C18   A    
C189  H105  S    
C129  H29   S    
Cr12  O20   S    
C141  H49   S    
C160  O8    A    
C184  H93   S    
Cr6   O50   S    
Cr5   O17   S    
Cr6   O6    S    
Cr7   O19   S    
C23   O68   S    
C25   C29   A    
C204  H143  S    
C59   H71   S    
Cr2   O42   S    
C53   H65   S    
Cr6   O26   S    
C22   O65   S    
Cr7   O31   S    
C182  H88   S    
C91   O3    A    
C61   C177  S    
C53   C57   A    
C92   O40   A    
C185  C186  S    
C61   C73   A    
C82   C86   A    
C33   C37   A    
C56   C60   A    
C45   O29   A    
C47   O31   A    
C4    O24   A    
C8    C167  A    
C89   O37   A    
C31   H63   S    
C77   C81   A    
Cr10  O38   S    
C10   H57   S    
C113  H41   S    
Cr4   O4    S    
C124  O64   S    
Cr4   O24   S    
Cr5   O29   S    
C201  H135  S    
C31   C35   A    
C163  O43   A    
Cr2   O46   S    
C32   C36   A    
C186  H99   S    
C194  H117  S    
C142  H50   S    
Cr11  O15   S    
C86   H22   S    
C63   C179  S    
O61   C189  S    
C195  H120  S    
C1    O25   A    
C132  C140  A    
C106  C126  A    
C25   C89   S    
C193  C194  S    
C143  C155  A    
C174  H38   S    
C179  H83   S    
C79   C83   A    
C43   C51   A    
C65   C69   A    
C67   C71   A    
C106  C162  S    
C191  H111  S    
C68   H80   S    
C13   C17   A    
C108  C112  A    
C168  C172  A    
C81   O57   S    
C199  H130  S    
C62   C74   A    
C145  C149  A    
Cr2   O2    S    
C170  C173  A    
C147  H47   S    
Cr8   O8    S    
C93   C94   S    
C2    O26   A    
C35   C39   A    
C95   C96   S    
C3    O23   A    
C144  C148  A    
C135  O51   A    
Cr8   O28   S    
C195  C196  S    
C202  H137  S    
C173  C174  A    
C136  O48   A    
C143  C147  A    
C167  H4    S    
C196  H123  S    
C164  O16   A    
C168  H3    S    
C121  O61   S    
C36   H76   S    
C19   C171  A    
C38   C42   A    
C109  H25   S    
Cr12  O36   S    
C181  H86   S    
C57   C73   A    
C131  H31   S    
C42   H6    S    
C117  C121  A    
Cr9   O17   S    
Cr10  O14   S    
C106  C110  A    
Cr11  O19   S    
C175  C176  A    
C177  O53   D    
C199  C200  S    
Cr3   O23   S    
C200  H133  S    
C82   O58   S    
C86   C94   A    
C115  H43   S    
C66   H78   S    
C68   C72   A    
C194  H119  S    
C15   C23   A    
Cr8   O20   S    
C203  H141  S    
C62   C178  S    
C197  C198  S    
C198  H128  S    
C158  O6    A    
C162  O14   A    
C119  C151  S    
C63   C67   A    
C120  C152  S    
C34   H74   S    
C1    O21   A    
Cr4   O44   S    
C36   C40   A    
C103  H20   S    
C39   C43   A    
C30   H62   S    
C148  H48   S    
Cr4   O20   S    
C185  H96   S    
C46   O34   A    
C130  C150  A    
Cr6   O18   S    
C67   H79   S    
Cr7   O7    S    
C64   C76   A    
C28   C92   S    
C125  H53   S    
C109  C113  A    
C192  H112  S    
C114  C118  A    
C51   H11   S    
C163  O15   A    
C161  O41   A    
C59   C75   A    
C202  H139  S    
C190  H107  S    
C54   C58   A    
C193  H116  S    
C34   C38   A    
C47   O35   A    
C4    O28   A    
C48   O36   A    
C114  H42   S    
C90   O38   A    
C21   O66   S    
C188  H102  S    
C32   H64   S    
C159  O7    A    
Cr11  O39   S    
C5    C10   A    
O62   C191  S    
C28   C52   A    
O64   C195  S    
C8    C11   A    
C128  H56   S    
C187  H100  S    
C102  H17   S    
C189  H106  S    
Cr3   O47   S    
C134  O50   A    
C16   C24   A    
O58   C183  S    
C197  H125  S    
C111  C115  A    
C184  H92   S    
C97   C101  A    
C120  C124  A    
C77   C157  S    
C83   O59   S    
