data_mof_unit_17957.cif
_audit_creation_date              2012-12-10T17:34:58-0500
_audit_creation_method            fapswitch 2.2
_symmetry_space_group_name_H-M    P1
_symmetry_Int_Tables_number       1
_space_group_crystal_system       triclinic
_cell_length_a                    12.335193
_cell_length_b                    13.125936
_cell_length_c                    13.858208
_cell_angle_alpha                 105.294155
_cell_angle_beta                  73.959757
_cell_angle_gamma                 116.604438
_cell_volume                      1902.3409677

loop_
_atom_site_label
_atom_site_type_symbol
_atom_type_description
_atom_site_fract_x
_atom_site_fract_y
_atom_site_fract_z
_atom_type_partial_charge
C1    C     C_R   0.144344 0.714340 0.509619 0.805473
C2    C     C_1   0.974921 0.506034 0.791547 -0.172858
C3    C     C_R   0.735395 0.975909 0.357748 -0.176303
C4    C     C_R   0.775529 0.163888 0.461762 -0.045994
C5    C     C_R   0.179232 0.921512 0.574849 0.445847
C6    C     C_R   0.259826 0.037061 0.593894 -0.227114
C7    C     C_R   0.385200 0.071809 0.556511 -0.244627
C8    C     C_R   0.434536 0.991763 0.496268 0.079861
C9    C     C_R   0.351999 0.876770 0.467472 -0.051333
C10   C     C_R   0.563367 0.022917 0.462824 0.032907
C11   C     C_R   0.607557 0.944297 0.390728 0.047525
C12   C     C_R   0.984305 0.504170 0.686382 0.819871
C13   C     C_R   0.523194 0.836628 0.351247 0.417799
C14   C     C_R   0.397695 0.803510 0.390384 -0.252014
C15   C     C_R   0.649827 0.130058 0.500388 -0.213977
C16   C     C_R   0.818788 0.085767 0.391893 -0.228352
C17   C     C_R   0.225520 0.838932 0.515156 -0.180753
C18   C     C_R   0.639294 0.674557 0.662332 -0.311897
C19   C     C_R   0.251494 0.350828 0.363949 0.078229
C20   C     C_R   0.350252 0.318082 0.333832 -0.258540
C21   C     C_R   0.449689 0.374534 0.384810 -0.181816
C22   C     C_R   0.451391 0.464894 0.467253 0.003128
C23   C     C_R   0.856289 0.285954 0.484622 0.789783
C24   C     C_R   0.347602 0.495135 0.495662 0.297756
C25   C     C_R   0.551233 0.525710 0.522886 -0.033225
C26   C     C_R   0.544515 0.614517 0.605636 0.178935
C27   C     C_R   0.442907 0.642570 0.632000 -0.280193
C28   C     C_R   0.346662 0.584098 0.578500 -0.175526
C29   C     C_R   0.658079 0.502524 0.500714 0.022241
C30   C     C_R   0.741065 0.647051 0.637043 0.066893
C31   C     C_R   0.016131 0.496420 0.313657 0.802373
C32   C     C_1   0.027145 0.496577 0.208642 -0.178548
C33   C     C_2   0.046397 0.497739 0.015029 -0.165175
C34   C     C_2   0.958401 0.508195 0.985404 -0.161062
C35   C     C_1   0.966862 0.507310 0.880099 0.002150
C36   C     C_1   0.036769 0.497050 0.120198 0.001189
Cu1   Cu    Cu3+1 0.899780 0.525060 0.522890 0.946146
Cu2   Cu    Cu3+1 0.100220 0.474940 0.477110 0.923832
H1    H     H_    0.879272 0.516698 0.039900 0.158056
H2    H     H_    0.336765 0.720790 0.356109 0.184351
H3    H     H_    0.814407 0.692754 0.680721 0.153969
H4    H     H_    0.437257 0.710369 0.695309 0.154363
H5    H     H_    0.634358 0.742040 0.726093 0.140259
H6    H     H_    0.671232 0.436903 0.439016 0.124219
H7    H     H_    0.174712 0.306485 0.323924 0.123086
H8    H     H_    0.523483 0.345448 0.358346 0.134168
H9    H     H_    0.349709 0.248665 0.270758 0.142117
H10   H     H_    0.272733 0.611385 0.605585 0.205623
H11   H     H_    0.125505 0.489114 0.960583 0.154486
H12   H     H_    0.916323 0.110846 0.361185 0.145922
H13   H     H_    0.771173 0.917259 0.303129 0.165872
H14   H     H_    0.622014 0.190198 0.559638 0.144372
H15   H     H_    0.440466 0.162872 0.573979 0.149758
H16   H     H_    0.224958 0.100171 0.640733 0.153657
N1    N     N_R   0.748810 0.563010 0.557590 -0.183046
N2    N     N_R   0.250540 0.437620 0.443020 -0.204120
O1    O     O_R   0.025040 0.682470 0.528790 -0.542509
O2    O     O_R   0.194310 0.640150 0.490130 -0.605711
O3    O     O_R   0.903380 0.524130 0.659910 -0.570445
O4    O     O_R   0.072660 0.481800 0.621240 -0.593627
O5    O     O_R   0.805690 0.359850 0.509870 -0.586501
O6    O     O_R   0.974960 0.317530 0.471210 -0.588940
O7    O     O_R   0.927340 0.518200 0.378760 -0.578362
O8    O     O_R   0.096620 0.475870 0.340090 -0.585765
O9    O     O_3   0.562754 0.758758 0.279334 -0.612329
C37   C     C_3   0.576924 0.779323 0.180313 0.033737
H17   H     H_    0.655759 0.759475 0.132265 0.169473
H18   H     H_    0.600749 0.871265 0.176994 0.122392
C38   C     C_3   0.460853 0.699306 0.134912 -0.334031
H19   H     H_    0.435468 0.608645 0.142124 0.235942
H20   H     H_    0.383030 0.723736 0.177081 0.203201
C39   C     C_3   0.481019 0.706938 0.022849 -0.921686
H21   H     H_    0.505373 0.796737 0.013927 0.253366
H22   H     H_    0.394994 0.648991 0.992701 0.257103
H23   H     H_    0.556119 0.679727 0.977862 0.255512
O10   O     O_3   0.057131 0.888509 0.623160 -0.608822
C40   C     C_3   0.993604 0.924377 0.577049 0.053768
H24   H     H_    0.936565 0.847918 0.528029 0.174726
H25   H     H_    0.054792 0.991903 0.528126 0.121514
C41   C     C_3   0.909236 0.971772 0.660196 -0.351855
H26   H     H_    0.847709 0.906396 0.710211 0.217615
H27   H     H_    0.966433 0.050083 0.707555 0.218362
C42   C     C_3   0.830730 0.003126 0.614981 -0.890771
H28   H     H_    0.890996 0.071922 0.568045 0.262683
H29   H     H_    0.769422 0.035680 0.677197 0.253332
H30   H     H_    0.772596 0.926118 0.567178 0.268882

loop_
_geom_bond_atom_site_label_1
_geom_bond_atom_site_label_2
_ccdc_geom_bond_type
C19   N2    A    
C2    C35   T    
C37   H18   S    
C19   C20   A    
C18   C26   A    
C2    C12   S    
C7    C8    A    
C13   O9    S    
C40   H24   S    
C26   C27   A    
C32   C36   T    
C16   H12   S    
C10   C15   A    
C41   C42   S    
C5    C6    A    
C37   C38   S    
C5    C17   A    
C33   H11   S    
C33   C36   S    
C34   C35   S    
C38   H20   S    
Cu2   O2    S    
C12   O3    A    
C23   O6    A    
C31   C32   S    
C8    C9    A    
C22   C25   A    
C30   H3    S    
C18   C30   A    
C37   H17   S    
C13   C14   A    
C6    H16   S    
C39   H23   S    
Cu1   O7    S    
Cu2   O8    S    
C40   H25   S    
C25   C29   A    
C34   H1    S    
C31   O7    A    
O10   C40   S    
C41   H27   S    
C4    C23   S    
C3    H13   S    
C41   H26   S    
C29   N1    A    
C25   C26   A    
C12   O4    A    
C4    C16   A    
C38   C39   S    
C9    C14   A    
Cu1   Cu2   S    
C1    O1    A    
C42   H28   S    
C33   C34   D    
C15   H14   S    
Cu1   O3    S    
Cu2   O4    S    
C39   H22   S    
C42   H29   S    
C29   H6    S    
C22   C24   A    
C7    H15   S    
C21   H8    S    
C40   C41   S    
C9    C17   A    
C28   H10   S    
C31   O8    A    
C24   C28   A    
C39   H21   S    
Cu1   O5    S    
C19   H7    S    
C6    C7    A    
C24   N2    A    
C30   N1    A    
C1    C17   S    
C4    C15   A    
C1    O2    A    
C11   C13   A    
C27   H4    S    
C5    O10   S    
C38   H19   S    
C20   H9    S    
C3    C11   A    
C10   C11   A    
C14   H2    S    
Cu1   N1    S    
C23   O5    A    
C42   H30   S    
Cu2   N2    S    
C20   C21   A    
C8    C10   A    
O9    C37   S    
C18   H5    S    
C27   C28   A    
C21   C22   A    
Cu1   O1    S    
C3    C16   A    
Cu2   O6    S    
