data_mof_unit_59201.cif
_audit_creation_date              2012-12-10T17:58:58-0500
_audit_creation_method            fapswitch 2.2
_symmetry_space_group_name_H-M    P1
_symmetry_Int_Tables_number       1
_space_group_crystal_system       triclinic
_cell_length_a                    9.639568
_cell_length_b                    10.854163
_cell_length_c                    13.839131
_cell_angle_alpha                 92.109763
_cell_angle_beta                  83.401733
_cell_angle_gamma                 88.5685
_cell_volume                      1436.79196613

loop_
_atom_site_label
_atom_site_type_symbol
_atom_type_description
_atom_site_fract_x
_atom_site_fract_y
_atom_site_fract_z
_atom_type_partial_charge
C1    C     C_R   0.498493 0.737499 0.497320 0.855784
C2    C     C_R   0.501329 0.262843 0.500508 0.862421
C3    C     C_R   0.503096 0.128776 0.500858 -0.157003
C4    C     C_R   0.494838 0.872001 0.491482 -0.171188
C5    C     C_R   0.475758 0.500552 0.683036 0.859138
C6    C     C_R   0.524272 0.498883 0.317032 0.856798
C7    C     C_R   0.913291 0.572983 0.565865 0.004470
C8    C     C_R   0.086527 0.426535 0.434538 0.007868
C9    C     C_R   0.061245 0.567987 0.568949 0.267611
C10   C     C_R   0.938340 0.429730 0.432679 0.282111
C11   C     C_1   0.541391 0.497374 0.213296 -0.147020
C12   C     C_1   0.458717 0.503934 0.786960 -0.122890
C13   C     C_2   0.560029 0.498382 0.021015 0.208392
C14   C     C_2   0.440145 0.514250 0.979624 0.216498
C15   C     C_1   0.447354 0.508213 0.874436 -0.006577
C16   C     C_1   0.552828 0.496810 0.125957 -0.019789
C17   C     C_R   0.605165 0.931076 0.437116 -0.080442
C18   C     C_R   0.394444 0.069616 0.556373 -0.085741
C19   C     C_R   0.603645 0.060506 0.437198 0.178147
C20   C     C_R   0.382405 0.942125 0.542526 0.140834
Cu1   Cu    Cu3+1 0.359340 0.499980 0.500000 1.014987
Cu2   Cu    Cu3+1 0.640660 0.500020 0.500000 1.025010
N1    N     N_R   0.147930 0.499970 0.499980 -0.222100
N2    N     N_R   0.852070 0.500030 0.500020 -0.220233
O1    O     O_R   0.381260 0.680340 0.500000 -0.549217
O2    O     O_R   0.618740 0.319660 0.500000 -0.542387
O3    O     O_R   0.618830 0.680370 0.500010 -0.563717
O4    O     O_R   0.381170 0.319630 0.499990 -0.572057
O5    O     O_R   0.364420 0.499960 0.637840 -0.547489
O6    O     O_R   0.635580 0.500040 0.362160 -0.547875
O7    O     O_R   0.601990 0.499990 0.637850 -0.559013
O8    O     O_R   0.398010 0.500010 0.362150 -0.562069
C21   C     C_2   0.828508 0.664554 0.630590 0.879875
O9    O     O_2   0.780503 0.637825 0.712442 -0.630744
O10   O     O_R   0.812496 0.784906 0.600281 -0.762376
H1    H     H_    0.754650 0.840207 0.651096 0.328477
C22   C     C_2   0.170732 0.333659 0.370916 0.885786
O11   O     O_2   0.221714 0.359566 0.289522 -0.612655
O12   O     O_R   0.181456 0.212848 0.401404 -0.758617
H2    H     H_    0.239510 0.156463 0.351477 0.319441
N3    N     N_2   0.119073 0.628929 0.647120 -0.370498
H3    H     H_    0.087344 0.719952 0.658703 0.241568
C23   C     C_3   0.103096 0.564812 0.737641 -0.643607
H4    H     H_    0.996403 0.578760 0.776053 0.232420
H5    H     H_    0.177112 0.602705 0.785768 0.219031
H6    H     H_    0.125447 0.464150 0.724903 0.249993
N4    N     N_2   0.879183 0.361589 0.358824 -0.362598
H7    H     H_    0.908398 0.269557 0.354926 0.251709
C24   C     C_3   0.896188 0.415392 0.263891 -0.645917
H8    H     H_    0.888950 0.517862 0.270290 0.233117
H9    H     H_    0.812598 0.383127 0.221574 0.218087
H10   H     H_    0.997419 0.385990 0.222409 0.237988
N5    N     N_2   0.307762 0.531240 0.038705 -0.408456
H11   H     H_    0.309114 0.577919 0.104839 0.267752
C25   C     C_3   0.185122 0.559696 0.991694 -0.677593
H12   H     H_    0.091937 0.565719 0.046959 0.226346
H13   H     H_    0.168838 0.485460 0.937132 0.240542
H14   H     H_    0.196230 0.649881 0.956628 0.222617
N6    N     N_2   0.691804 0.481135 0.961578 -0.420937
H15   H     H_    0.708407 0.539540 0.904511 0.282142
C26   C     C_3   0.815006 0.452887 0.008122 -0.668679
H16   H     H_    0.906154 0.437600 0.951824 0.228951
H17   H     H_    0.800399 0.366979 0.048747 0.236610
H18   H     H_    0.836483 0.530669 0.058171 0.219775
C27   C     C_2   0.711942 0.858225 0.371194 0.887543
O13   O     O_2   0.836027 0.867840 0.379993 -0.594911
O14   O     O_R   0.669607 0.776900 0.300334 -0.788366
H19   H     H_    0.751326 0.731654 0.260401 0.322765
C28   C     C_2   0.294971 0.140806 0.629365 0.875878
O15   O     O_2   0.340193 0.203677 0.693219 -0.622213
O16   O     O_R   0.151176 0.138927 0.623800 -0.741181
H20   H     H_    0.095675 0.192962 0.676642 0.329738
N7    N     N_2   0.692499 0.122512 0.366384 -0.415176
H21   H     H_    0.792883 0.086417 0.352972 0.277571
C29   C     C_3   0.630652 0.144008 0.277782 -0.660606
H22   H     H_    0.533953 0.202590 0.293676 0.228396
H23   H     H_    0.605484 0.054993 0.242462 0.232445
H24   H     H_    0.705304 0.192069 0.226163 0.223619
N8    N     N_2   0.254619 0.885177 0.574035 -0.424029
H25   H     H_    0.209229 0.913363 0.642592 0.259454
C30   C     C_3   0.157665 0.885417 0.501177 -0.486918
H26   H     H_    0.204613 0.835744 0.433159 0.223737
H27   H     H_    0.060945 0.838807 0.528038 0.239016
H28   H     H_    0.128945 0.981136 0.483978 0.270429

loop_
_geom_bond_atom_site_label_1
_geom_bond_atom_site_label_2
_ccdc_geom_bond_type
C6    O8    A    
C25   H12   S    
N7    C29   S    
N7    H21   S    
O10   H1    S    
C23   H4    S    
C30   H26   S    
N4    C24   S    
N5    H11   S    
C27   O14   S    
C7    N2    A    
C8    N1    A    
C3    C18   A    
C26   H17   S    
N3    H3    S    
C28   O16   S    
C17   C19   A    
C24   H9    S    
C3    C19   A    
C18   C28   S    
N6    H15   S    
C13   C14   D    
C1    O1    A    
N3    C23   S    
C26   H16   S    
C30   H27   S    
C5    O5    A    
N5    C25   S    
Cu1   O8    S    
N6    C26   S    
Cu2   O7    S    
C7    C21   S    
O14   H19   S    
C19   N7    S    
C5    C12   S    
C6    C11   S    
N8    C30   S    
C9    N1    A    
C10   N2    A    
C29   H24   S    
Cu1   O5    S    
C26   H18   S    
C29   H22   S    
C22   O11   D    
C29   H23   S    
C11   C16   T    
N4    H7    S    
C12   C15   T    
C24   H10   S    
C21   O9    D    
C2    O2    A    
C23   H5    S    
C4    C17   A    
C6    O6    A    
Cu1   O4    S    
C27   O13   D    
Cu2   O3    S    
C25   H13   S    
Cu2   N2    S    
C25   H14   S    
C8    C22   S    
O12   H2    S    
C30   H28   S    
C7    C9    A    
Cu1   O1    S    
Cu2   O6    S    
C20   N8    S    
C17   C27   S    
C13   N6    S    
C9    N3    S    
C1    C4    S    
Cu1   N1    S    
C2    C3    S    
O16   H20   S    
C22   O12   S    
C21   O10   S    
C18   C20   A    
C28   O15   D    
C23   H6    S    
N8    H25   S    
C4    C20   A    
C14   N5    S    
C8    C10   A    
C24   H8    S    
Cu2   O2    S    
C13   C16   S    
C10   N4    S    
C1    O3    A    
C14   C15   S    
C2    O4    A    
Cu1   Cu2   S    
C5    O7    A    
