data_mof_unit_49851.cif
_audit_creation_date              2013-03-05T15:43:29-0500
_audit_creation_method            fapswitch 2.2
_symmetry_space_group_name_H-M    P1
_symmetry_Int_Tables_number       1
_space_group_crystal_system       triclinic
_cell_length_a                    14.577086
_cell_length_b                    16.206811
_cell_length_c                    7.037901
_cell_angle_alpha                 90.00486
_cell_angle_beta                  81.043867
_cell_angle_gamma                 89.999588
_cell_volume                      1642.41875509

loop_
_atom_site_label
_atom_site_type_symbol
_atom_site_description
_atom_site_fract_x
_atom_site_fract_y
_atom_site_fract_z
_atom_type_partial_charge
O1    O     O_R   0.337460 0.413110 0.524760 -0.559165
O2    O     O_R   0.662540 0.913110 0.475240 -0.559141
O3    O     O_R   0.348690 0.587910 0.191230 -0.542022
O4    O     O_R   0.651310 0.087910 0.808770 -0.542211
O5    O     O_R   0.166530 0.586890 0.082470 -0.559947
O6    O     O_R   0.833470 0.086890 0.917530 -0.560292
C1    C     C_R   0.371480 0.614665 0.353694 0.844815
C2    C     C_R   0.628525 0.114673 0.646312 0.844676
O7    O     O_R   0.348700 0.413830 0.191250 -0.560353
O8    O     O_R   0.651300 0.913830 0.808750 -0.560352
O9    O     O_R   0.166530 0.411570 0.082490 -0.560620
O10   O     O_R   0.833470 0.911570 0.917510 -0.560637
C3    C     C_R   0.372819 0.387194 0.353720 0.926782
C4    C     C_R   0.627177 0.887200 0.646273 0.926730
O11   O     O_R   0.337460 0.588430 0.524740 -0.593539
O12   O     O_R   0.662540 0.088430 0.475260 -0.593487
O13   O     O_3   0.192230 0.499460 0.407330 -0.287067
O14   O     O_3   0.807770 0.999460 0.592670 -0.287119
V1    V     V_3+5 0.263080 0.500100 0.108540 1.172068
V2    V     V_3+5 0.736920 0.000100 0.891460 1.171855
O15   O     O_R   0.155290 0.412090 0.756570 -0.537002
O16   O     O_R   0.844710 0.912090 0.243430 -0.536941
C5    C     C_R   0.132056 0.384012 0.933672 0.941524
C6    C     C_R   0.867940 0.884010 0.066316 0.941686
O17   O     O_R   0.155290 0.586170 0.756550 -0.567193
O18   O     O_R   0.844710 0.086170 0.243450 -0.567127
C7    C     C_R   0.137402 0.618613 0.929582 0.821219
C8    C     C_R   0.862607 0.118607 0.070417 0.820949
V3    V     V_3+5 0.240910 0.499900 0.616030 1.159061
V4    V     V_3+5 0.759090 0.999900 0.383970 1.159005
O19   O     O_3   0.311760 0.500540 0.867100 -0.312887
O20   O     O_3   0.688240 0.000540 0.132900 -0.312866
C9    C     C_3   0.107539 0.769579 0.061464 -0.205173
C10   C     C_3   0.892488 0.269527 0.938327 -0.205286
H1    H     H_    0.161626 0.802766 0.965433 0.178202
H2    H     H_    0.838390 0.302729 0.034292 0.178138
C11   C     C_3   0.029283 0.835546 0.120030 0.287976
C12   C     C_3   0.970735 0.335503 0.879798 0.288255
H3    H     H_    0.008895 0.835867 0.279650 0.104206
H4    H     H_    0.991150 0.335808 0.720185 0.104317
H5    H     H_    0.997020 0.649098 0.232523 0.160124
H6    H     H_    0.003054 0.149036 0.767574 0.159947
C13   C     C_3   0.978156 0.664542 0.090264 -0.337453
C14   C     C_3   0.021880 0.164517 0.909842 -0.337349
C15   C     C_3   0.051161 0.734186 0.758352 0.745173
C16   C     C_3   0.948784 0.234256 0.241611 0.745221
C17   C     C_3   0.069974 0.693721 0.957093 -0.230723
C18   C     C_3   0.930030 0.193718 0.042884 -0.230945
C19   C     C_3   0.939627 0.813260 0.029041 -0.125812
C20   C     C_3   0.060369 0.313260 0.970921 -0.125797
C21   C     C_3   0.897897 0.730348 0.121247 0.283855
C22   C     C_3   0.102133 0.230326 0.878865 0.283885
C23   C     C_3   0.969405 0.797651 0.806189 -0.190618
C24   C     C_3   0.030535 0.297719 0.193779 -0.190651
H7    H     H_    0.989928 0.858205 0.737336 0.149379
H8    H     H_    0.009988 0.358293 0.262534 0.149331
H9    H     H_    0.910084 0.778791 0.735472 0.129500
H10   H     H_    0.089834 0.278893 0.264604 0.129616
H11   H     H_    0.952899 0.604643 0.044053 0.061066
H12   H     H_    0.047131 0.104633 0.956128 0.061117
H13   H     H_    0.414110 0.707855 0.635018 0.051411
H14   H     H_    0.585833 0.207790 0.364943 0.051405
C25   C     C_2   0.445071 0.677100 0.344294 -0.133522
C26   C     C_2   0.554941 0.177120 0.655719 -0.133517
C27   C     C_2   0.460699 0.718757 0.502398 -0.136196
C28   C     C_2   0.539279 0.218736 0.497591 -0.136165
C29   C     C_2   0.548021 0.827838 0.655305 -0.222399
C30   C     C_2   0.451968 0.327820 0.344681 -0.222368
C31   C     C_2   0.540507 0.776498 0.503211 0.330143
C32   C     C_2   0.459475 0.276485 0.496774 0.330185
H15   H     H_    0.488024 0.685573 0.206624 0.076923
H16   H     H_    0.512027 0.185643 0.793416 0.076823
C33   C     C_2   0.158313 0.745354 0.219086 0.423311
H17   H     H_    0.123701 0.707496 0.330522 0.118507
O21   O     O_2   0.240806 0.761322 0.210743 -0.627718
C34   C     C_2   0.841696 0.245240 0.780713 0.423941
H18   H     H_    0.876086 0.206940 0.669903 0.118448
O22   O     O_2   0.759319 0.261572 0.788632 -0.627987
C35   C     C_2   0.815142 0.700019 0.028035 0.429802
H19   H     H_    0.795607 0.635404 0.039336 -0.011299
O23   O     O_2   0.767452 0.746561 0.948483 -0.632622
C36   C     C_2   0.184858 0.200039 0.972221 0.429767
H20   H     H_    0.204410 0.135427 0.960995 -0.011419
O24   O     O_2   0.232508 0.246608 0.051813 -0.632592
O25   O     O_3   0.613587 0.771073 0.352185 -0.663563
C37   C     C_3   0.594716 0.817810 0.193559 0.331548
H21   H     H_    0.534809 0.861190 0.225221 0.034452
H22   H     H_    0.585204 0.776321 0.073445 0.035775
H23   H     H_    0.657347 0.854101 0.140653 0.152642
O26   O     O_3   0.386378 0.271055 0.647762 -0.663579
C38   C     C_3   0.405219 0.317788 0.806435 0.331407
H24   H     H_    0.465127 0.361166 0.774837 0.034534
H25   H     H_    0.414708 0.276297 0.926545 0.035826
H26   H     H_    0.342581 0.354080 0.859317 0.152623
C39   C     C_2   0.473154 0.833749 0.824943 0.362812
H27   H     H_    0.432120 0.780660 0.878842 0.040702
O27   O     O_2   0.456947 0.899406 0.908573 -0.569780
C40   C     C_2   0.526838 0.333717 0.175048 0.362834
H28   H     H_    0.567876 0.280624 0.121162 0.040542
O28   O     O_2   0.543044 0.399365 0.091407 -0.569771
O29   O     O_3   0.061083 0.915246 0.055375 -0.662964
C41   C     C_3   0.127855 0.945539 0.164004 0.150512
H29   H     H_    0.193641 0.910330 0.138036 0.114080
H30   H     H_    0.100461 0.947234 0.320510 0.028227
H31   H     H_    0.147294 0.008753 0.114659 0.037635
O30   O     O_3   0.938910 0.415207 0.944430 -0.663092
C42   C     C_3   0.872098 0.445465 0.835869 0.150609
H32   H     H_    0.806303 0.410284 0.862015 0.114483
H33   H     H_    0.899437 0.447104 0.679335 0.028417
H34   H     H_    0.852677 0.508691 0.885172 0.037524
O31   O     O_3   0.869272 0.744821 0.322562 -0.639526
C43   C     C_3   0.811975 0.681775 0.417069 0.208462
H35   H     H_    0.800803 0.694120 0.573317 0.097990
H36   H     H_    0.842212 0.619465 0.387934 -0.018790
H37   H     H_    0.742103 0.682320 0.375431 0.107374
O32   O     O_3   0.130816 0.244741 0.677551 -0.639501
C44   C     C_3   0.188100 0.181651 0.583159 0.208511
H38   H     H_    0.199360 0.193985 0.426906 0.098049
H39   H     H_    0.157800 0.119363 0.612220 -0.018854
H40   H     H_    0.257941 0.182140 0.624958 0.107302
O33   O     O_3   0.034010 0.678199 0.611251 -0.660565
C45   C     C_3   0.970957 0.613814 0.664243 0.171423
H41   H     H_    0.903145 0.636273 0.732825 -0.027339
H42   H     H_    0.998764 0.566564 0.751510 0.082502
H43   H     H_    0.961068 0.580425 0.532065 0.063618
O34   O     O_3   0.965912 0.178329 0.388820 -0.660622
C46   C     C_3   0.028983 0.113937 0.335971 0.171272
H44   H     H_    0.096814 0.136388 0.267493 -0.027133
H45   H     H_    0.001224 0.066667 0.248676 0.082412
H46   H     H_    0.038813 0.080569 0.468194 0.063634
O35   O     O_3   0.126835 0.785610 0.672164 -0.668402
C47   C     C_3   0.214831 0.746993 0.629811 0.239880
H47   H     H_    0.263718 0.791568 0.548901 0.093618
H48   H     H_    0.212784 0.691600 0.540972 0.114892
H49   H     H_    0.246138 0.731100 0.758355 -0.018905
O36   O     O_3   0.873086 0.285691 0.327657 -0.668221
C48   C     C_3   0.785096 0.247064 0.369932 0.240778
H50   H     H_    0.736172 0.291654 0.450708 0.093731
H51   H     H_    0.787132 0.191699 0.458832 0.114709
H52   H     H_    0.753835 0.231121 0.241356 -0.019497

loop_
_geom_bond_atom_site_label_1
_geom_bond_atom_site_label_2
_geom_bond_distance
_ccdc_geom_bond_type
C12   H4    1.116415 S    
C25   C27   1.350794 D    
O34   C46   1.402199 S    
C42   H33   1.111985 S    
C33   H17   1.059711 S    
C39   H27   1.082305 S    
O4    C2    1.313033 A    
V1    O19   1.736535 S    
C43   H36   1.108116 S    
O25   C37   1.411207 S    
C48   H51   1.096971 S    
O9    V1    2.037983 S    
O29   C41   1.415829 S    
C34   O22   1.222412 D    
O3    C1    1.312996 A    
C44   H39   1.108108 S    
C24   H10   1.105859 S    
C37   H22   1.105605 S    
O30   C42   1.415817 S    
O12   V4    2.042182 S    
C40   H28   1.082309 S    
O13   V3    1.727868 S    
O32   C44   1.418183 S    
C41   H31   1.104496 S    
C15   C17   1.606640 S    
O7    C3    1.320110 A    
O13   V1    2.193754 S    
O5    C7    1.320892 A    
O7    V1    2.019343 S    
O6    C8    1.320837 A    
O31   C43   1.418158 S    
O8    V2    2.019288 S    
C47   H47   1.108034 S    
C19   C21   1.572915 S    
C20   C22   1.572899 S    
C42   H32   1.106305 S    
O3    V1    2.036499 S    
O14   V4    1.727868 S    
V4    O20   2.181118 S    
C10   H2    1.096207 S    
C13   H11   1.104977 S    
C14   C22   1.572983 S    
C22   O32   1.432624 S    
C15   C23   1.570540 S    
C2    O12   1.300018 A    
C29   C39   1.489932 S    
H5    C13   1.107445 S    
C16   C24   1.570519 S    
C32   O26   1.385566 S    
H6    C14   1.107385 S    
C43   H35   1.104535 S    
O11   V3    2.042271 S    
C16   C18   1.606670 S    
C23   H7    1.114632 S    
O17   V3    2.026344 S    
C48   H52   1.105275 S    
C24   H8    1.114626 S    
H14   C28   1.079932 S    
C34   H18   1.059710 S    
O8    C4    1.320084 A    
C44   H40   1.102870 S    
C38   H24   1.116200 S    
C35   O23   1.219415 D    
C23   H9    1.105830 S    
C37   H21   1.116200 S    
C5    C20   1.546073 S    
C1    O11   1.300028 A    
C15   O33   1.427618 S    
O15   V3    2.043827 S    
C9    C11   1.570889 S    
C29   C31   1.373490 D    
C26   C28   1.350837 D    
C12   O30   1.422988 S    
C41   H30   1.111982 S    
C46   H45   1.097911 S    
C38   H25   1.105613 S    
C11   C19   1.584021 S    
C4    C29   1.496064 S    
O10   V2    2.037990 S    
O1    V3    2.022440 S    
C20   C24   1.581230 S    
C22   C36   1.540633 S    
C1    C25   1.468662 S    
O33   C45   1.402162 S    
C2    C26   1.468712 S    
C47   H48   1.097024 S    
C12   C20   1.584110 S    
C9    C33   1.479284 S    
C25   H15   1.077410 S    
C15   O35   1.439137 S    
C36   O24   1.219419 D    
O15   C5    1.320615 A    
C9    C17   1.573521 S    
C42   H34   1.104482 S    
O16   C6    1.320616 A    
O1    C3    1.303015 A    
C33   O21   1.222485 D    
C45   H42   1.097952 S    
O35   C47   1.416627 S    
C31   O25   1.385565 S    
V2    O20   1.736534 S    
C7    C17   1.557572 S    
C6    C19   1.546017 S    
C27   C31   1.493740 S    
C8    C18   1.557608 S    
C21   O31   1.432624 S    
O16   V4    2.043698 S    
C10   C12   1.570934 S    
O18   C8    1.314766 A    
C16   O34   1.427577 S    
O36   C48   1.416611 S    
C37   H23   1.101056 S    
C39   O27   1.221118 D    
O18   V4    2.026470 S    
O5    V1    2.018266 S    
O17   C7    1.314708 A    
O6    V2    2.018259 S    
C48   H50   1.108019 S    
O10   C6    1.308701 A    
C40   O28   1.221105 D    
O2    V4    2.022530 S    
C45   H43   1.104832 S    
C46   H46   1.104785 S    
C11   H3    1.116424 S    
C14   C18   1.582070 S    
C44   H38   1.104569 S    
C38   H26   1.101062 S    
C11   O29   1.422968 S    
C13   C21   1.572969 S    
O26   C38   1.411201 S    
C28   C32   1.493779 S    
C14   H12   1.104949 S    
C47   H49   1.105284 S    
C19   C23   1.581231 S    
O9    C5    1.308730 A    
C9    H1    1.096294 S    
O14   V2    2.193751 S    
C26   H16   1.077396 S    
C41   H29   1.106367 S    
O2    C4    1.303026 A    
C21   C35   1.540631 S    
C16   O36   1.439115 S    
C35   H19   1.084890 S    
O4    V2    2.036555 S    
H13   C27   1.079935 S    
C10   C18   1.573536 S    
V3    O19   2.181115 S    
C36   H20   1.084878 S    
C30   C32   1.373516 D    
C30   C40   1.489931 S    
C45   H41   1.092711 S    
C13   C17   1.582083 S    
C43   H37   1.102859 S    
C46   H44   1.092702 S    
C10   C34   1.479607 S    
C3    C30   1.496102 S    
