data_mof_unit_7908.cif
_audit_creation_date              2012-12-10T18:22:33-0500
_audit_creation_method            fapswitch 2.2
_symmetry_space_group_name_H-M    P1
_symmetry_Int_Tables_number       1
_space_group_crystal_system       triclinic
_cell_length_a                    23.539677
_cell_length_b                    10.620003
_cell_length_c                    9.403302
_cell_angle_alpha                 89.880494
_cell_angle_beta                  90.086723
_cell_angle_gamma                 89.907725
_cell_volume                      2350.73414439

loop_
_atom_site_label
_atom_site_type_symbol
_atom_type_description
_atom_site_fract_x
_atom_site_fract_y
_atom_site_fract_z
_atom_type_partial_charge
C1    C     C_R   0.499968 0.259361 0.500234 0.804680
C2    C     C_R   0.704648 0.557263 0.613491 -0.109342
C3    C     C_R   0.234718 0.461786 0.608520 -0.045427
C4    C     C_R   0.764858 0.552070 0.606573 -0.044815
C5    C     C_R   0.208499 0.506092 0.482464 0.267542
C6    C     C_R   0.791339 0.503573 0.483239 0.265853
C7    C     C_3   0.499997 0.040402 0.635367 -0.129797
C8    C     C_3   0.499862 0.959666 0.364713 -0.147576
C9    C     C_3   0.546654 0.957747 0.567204 -0.149645
C10   C     C_3   0.453205 0.042336 0.432882 -0.143166
C11   C     C_3   0.499955 0.877610 0.499149 0.001095
C12   C     C_R   0.499979 0.740655 0.499783 0.807349
C13   C     C_3   0.499916 0.122436 0.500929 0.011449
C14   C     C_3   0.453293 0.957995 0.567171 -0.151381
C15   C     C_3   0.546566 0.042060 0.432914 -0.176343
C16   C     C_R   0.390878 0.497297 0.499949 0.819570
C17   C     C_R   0.609060 0.503808 0.500094 0.824225
C18   C     C_3   0.534493 0.584170 0.050597 -0.029224
C19   C     C_3   0.465608 0.415770 0.949485 -0.040955
C20   C     C_3   0.484326 0.608364 0.949158 -0.017385
C21   C     C_3   0.515706 0.391680 0.050882 -0.056163
C22   C     C_3   0.550175 0.475738 0.949863 -0.032131
C23   C     C_R   0.241571 0.544775 0.367461 -0.089582
C24   C     C_3   0.449815 0.524149 0.050132 -0.036005
C25   C     C_R   0.880237 0.616086 0.456013 0.558306
C26   C     C_R   0.119555 0.393059 0.461494 0.557287
C27   C     C_R   0.880824 0.391324 0.470031 0.589564
C28   C     C_R   0.119070 0.618133 0.461715 0.591484
C29   C     C_R   0.940323 0.389263 0.462316 -0.014996
C30   C     C_R   0.059529 0.619931 0.454495 -0.015068
C31   C     C_R   0.969942 0.504301 0.456172 -0.009493
C32   C     C_R   0.029883 0.504802 0.455753 -0.009478
C33   C     C_R   0.939776 0.618869 0.452208 -0.007945
C34   C     C_R   0.758524 0.458969 0.370538 -0.088227
C35   C     C_R   0.060028 0.390187 0.458384 -0.008383
C36   C     C_R   0.970817 0.275443 0.463213 -0.148220
C37   C     C_R   0.029017 0.733645 0.448889 -0.147267
C38   C     C_R   0.030066 0.275890 0.460390 -0.145961
C39   C     C_R   0.969745 0.733093 0.446893 -0.145887
C40   C     C_2   0.322201 0.397426 0.742407 0.918740
C41   C     C_2   0.676808 0.615095 0.739171 0.903827
C42   C     C_2   0.198790 0.422294 0.730856 0.913045
C43   C     C_2   0.800637 0.599772 0.725315 0.923293
C44   C     C_R   0.300370 0.540511 0.375303 -0.213026
C45   C     C_R   0.699744 0.460869 0.378198 -0.215227
C46   C     C_R   0.327900 0.495665 0.497930 -0.130070
C47   C     C_R   0.671935 0.508563 0.498558 -0.128910
C48   C     C_R   0.294811 0.453278 0.615100 -0.103675
Cu1   Cu    Cu3+1 0.500010 0.499990 0.643150 0.981579
Cu2   Cu    Cu3+1 0.499990 0.500010 0.356850 0.942186
H1    H     H_    0.949048 0.185726 0.467057 0.191189
H2    H     H_    0.947530 0.822448 0.443565 0.191569
H3    H     H_    0.221398 0.577892 0.270741 0.166677
H4    H     H_    0.778899 0.422729 0.275842 0.165951
H5    H     H_    0.324447 0.573357 0.284480 0.165887
H6    H     H_    0.675867 0.423519 0.289220 0.170364
H7    H     H_    0.584886 0.920205 0.622073 0.187046
H8    H     H_    0.415007 0.080204 0.378064 0.149860
H9    H     H_    0.500027 0.076084 0.746276 0.146340
H10   H     H_    0.499820 0.924006 0.253796 0.142705
H11   H     H_    0.415173 0.920398 0.622038 0.150008
H12   H     H_    0.050795 0.823398 0.447028 0.191033
H13   H     H_    0.584687 0.079684 0.378065 0.144834
H14   H     H_    0.332474 0.401962 0.955325 0.319712
H15   H     H_    0.670280 0.622453 0.952916 0.325164
H16   H     H_    0.182532 0.292816 0.882687 0.346922
H17   H     H_    0.816423 0.739048 0.865423 0.347808
H18   H     H_    0.470978 0.699574 0.901788 0.124704
H19   H     H_    0.529057 0.300469 0.098255 0.126402
H20   H     H_    0.563492 0.654874 0.098251 0.121935
H21   H     H_    0.437499 0.343364 0.902369 0.157944
H22   H     H_    0.592117 0.452805 0.903097 0.150082
H23   H     H_    0.407549 0.544945 0.096669 0.129048
H24   H     H_    0.052273 0.186494 0.462214 0.192213
N1    N     N_R   0.852147 0.503673 0.468886 -0.458934
N2    N     N_R   0.147704 0.505831 0.467378 -0.458792
N3    N     N_3   0.500040 0.499970 0.858290 -0.158431
N4    N     N_3   0.499960 0.500030 0.141710 -0.160618
O1    O     O_R   0.500030 0.316850 0.620870 -0.575884
O2    O     O_2   0.149172 0.284152 0.460188 -0.517075
O3    O     O_2   0.851854 0.282181 0.480738 -0.515694
O4    O     O_2   0.148106 0.727529 0.465387 -0.514443
O5    O     O_2   0.352037 0.303733 0.730068 -0.598108
O6    O     O_R   0.312764 0.450329 0.876342 -0.761630
O7    O     O_2   0.642044 0.699622 0.722940 -0.601391
O8    O     O_R   0.691343 0.574588 0.876095 -0.764947
O9    O     O_2   0.158841 0.488104 0.768158 -0.578515
O10   O     O_R   0.210040 0.309146 0.801897 -0.717760
O11   O     O_2   0.840835 0.537258 0.768347 -0.578736
O12   O     O_R   0.499970 0.683150 0.379130 -0.590321
O13   O     O_R   0.788967 0.717012 0.786156 -0.716734
O14   O     O_R   0.500000 0.316860 0.379090 -0.590228
O15   O     O_R   0.500000 0.683140 0.620910 -0.571192
O16   O     O_R   0.417890 0.499960 0.620920 -0.565954
O17   O     O_R   0.582110 0.500040 0.379080 -0.584816
O18   O     O_R   0.417870 0.499970 0.379140 -0.588502
O19   O     O_R   0.582130 0.500030 0.620860 -0.568764
O20   O     O_2   0.850573 0.724735 0.448273 -0.518231

loop_
_geom_bond_atom_site_label_1
_geom_bond_atom_site_label_2
_ccdc_geom_bond_type
C18   H20   S    
C3    C42   S    
C27   C29   A    
C40   O6    S    
C19   H21   S    
C37   H12   S    
H15   O8    S    
C41   O8    S    
C29   C36   A    
C33   C39   A    
C20   N3    S    
C12   O12   A    
C19   C21   S    
H16   O10   S    
C11   C14   S    
C24   H23   S    
C2    C41   S    
C3    C48   A    
C40   C48   S    
C22   H22   S    
C19   N3    S    
H14   O6    S    
Cu2   O12   S    
C7    C14   S    
C20   C24   S    
C45   H6    S    
C21   N4    S    
C26   N2    A    
C31   C33   A    
C17   O17   A    
Cu1   O16   S    
C9    H7    S    
C39   H2    S    
C21   C22   S    
C40   O5    D    
C27   N1    A    
Cu2   N4    S    
C7    H9    S    
C44   C46   A    
C23   H3    S    
C45   C47   A    
C46   C48   A    
C16   O18   A    
C28   O4    S    
C32   C35   A    
C27   O3    S    
C35   C38   A    
C4    C6    A    
C10   C14   S    
C16   C46   S    
C14   H11   S    
C43   O13   S    
C23   C44   A    
C6    C34   A    
C30   C37   A    
C21   H19   S    
C25   N1    A    
C2    C4    A    
C25   O20   S    
C31   C32   A    
C5    C23   A    
C18   N4    S    
H17   O13   S    
C34   C45   A    
C43   O11   D    
C9    C11   S    
C36   H1    S    
Cu2   O14   S    
C34   H4    S    
C8    C15   S    
C13   C15   S    
C1    O1    A    
C12   O15   A    
C1    C13   S    
C28   N2    A    
C38   H24   S    
C24   N4    S    
C7    C9    S    
C10   H8    S    
C18   C22   S    
C20   H18   S    
C8    C10   S    
C17   C47   S    
C22   N3    S    
C3    C5    A    
C10   C13   S    
C11   C12   S    
C4    C43   S    
C2    C47   A    
C1    O14   A    
C41   O7    D    
C16   O16   A    
C5    N2    S    
C28   C30   A    
C19   C24   S    
C9    C15   S    
C29   C31   A    
C8    H10   S    
C30   C32   A    
C44   H5    S    
Cu2   O18   S    
C8    C11   S    
C36   C38   A    
Cu1   N3    S    
C18   C20   S    
Cu2   O17   S    
C26   O2    S    
Cu1   O19   S    
Cu1   O1    S    
C26   C35   A    
C7    C13   S    
C42   O10   S    
C37   C39   A    
Cu1   Cu2   S    
C15   H13   S    
C42   O9    D    
Cu1   O15   S    
C17   O19   A    
C25   C33   A    
C6    N1    S    
