data_mof_unit_24783.cif
_audit_creation_date              2013-03-05T16:09:16-0500
_audit_creation_method            fapswitch 2.2
_symmetry_space_group_name_H-M    P1
_symmetry_Int_Tables_number       1
_space_group_crystal_system       triclinic
_cell_length_a                    8.590774
_cell_length_b                    10.663382
_cell_length_c                    9.856566
_cell_angle_alpha                 90.316732
_cell_angle_beta                  98.651279
_cell_angle_gamma                 89.962195
_cell_volume                      892.640508077

loop_
_atom_site_label
_atom_site_type_symbol
_atom_site_description
_atom_site_fract_x
_atom_site_fract_y
_atom_site_fract_z
_atom_type_partial_charge
O1    O     O_R   0.499990 0.316750 0.614620 -0.593519
O2    O     O_R   0.500010 0.683250 0.385380 -0.593519
O3    O     O_R   0.499990 0.316780 0.385290 -0.629541
O4    O     O_R   0.500010 0.683220 0.614710 -0.629539
C1    C     C_R   0.504799 0.260229 0.500171 0.949196
C2    C     C_R   0.495203 0.739771 0.499829 0.949178
O5    O     O_R   0.271750 0.499990 0.587840 -0.629922
O6    O     O_R   0.728250 0.500010 0.412160 -0.629925
O7    O     O_R   0.271750 0.500010 0.358510 -0.603395
O8    O     O_R   0.728250 0.499990 0.641490 -0.603392
C3    C     C_R   0.201124 0.499722 0.464087 0.997109
C4    C     C_R   0.798876 0.500279 0.535913 0.997119
Zn1   Zn    Zn3+2 0.500000 0.499980 0.653120 1.004107
Zn2   Zn    Zn3+2 0.500000 0.500020 0.346880 1.004108
N1    N     N_R   0.499960 0.499970 0.857200 -0.092618
N2    N     N_R   0.500040 0.500030 0.142800 -0.092618
C5    C     C_2   0.035982 0.500021 0.444779 -0.328072
C6    C     C_2   0.964018 0.499980 0.555221 -0.328061
H1    H     H_    0.974083 0.500470 0.340016 0.186780
H2    H     H_    0.025917 0.499532 0.659984 0.186781
C7    C     C_R   0.407320 0.066794 0.396095 -0.275021
C8    C     C_R   0.592692 0.933204 0.603903 -0.275015
C9    C     C_R   0.395288 0.937996 0.396539 0.330731
C10   C     C_R   0.604730 0.062003 0.603456 0.330722
C11   C     C_R   0.490927 0.872252 0.500756 -0.195926
C12   C     C_R   0.509082 0.127748 0.499244 -0.195919
C13   C     C_R   0.596597 0.578864 0.084985 -0.029638
C14   C     C_R   0.403402 0.421136 0.915015 -0.029649
H3    H     H_    0.673915 0.641939 0.149843 0.147635
H4    H     H_    0.326085 0.358061 0.850157 0.147637
C15   C     C_R   0.596544 0.578839 0.941191 -0.032997
C16   C     C_R   0.403456 0.421161 0.058809 -0.032999
H5    H     H_    0.673767 0.641926 0.897262 0.141310
H6    H     H_    0.326233 0.358074 0.102738 0.141310
H7    H     H_    0.332074 0.120127 0.318858 0.196620
H8    H     H_    0.667937 0.879868 0.681137 0.196627
N3    N     N_R   0.282017 0.876488 0.295446 0.218557
O9    O     O_R   0.195573 0.785754 0.330981 -0.400475
O10   O     O_R   0.248844 0.922707 0.172549 -0.360918
N4    N     N_R   0.718021 0.123509 0.704538 0.218562
O11   O     O_R   0.804422 0.214269 0.668999 -0.400484
O12   O     O_R   0.751255 0.077265 0.827415 -0.360924

loop_
_geom_bond_atom_site_label_1
_geom_bond_atom_site_label_2
_geom_bond_distance
_ccdc_geom_bond_type
O7    Zn2   1.981331 S    
C15   H5    1.081837 S    
N1    C15   1.366627 A    
N3    O9    1.301245 A    
C7    H7    1.084946 S    
C13   H3    1.081824 S    
C8    H8    1.084948 S    
C14   C16   1.417250 A    
O6    C4    1.278012 A    
N2    C13   1.366712 A    
C14   H4    1.081823 S    
C5    C6    1.330297 D    
N3    O10   1.301540 A    
O5    C3    1.278013 A    
O7    C3    1.281023 A    
N1    C14   1.366712 A    
O2    C2    1.282173 A    
O3    Zn2   1.992352 S    
O8    C4    1.281023 A    
O1    C1    1.282180 A    
C8    C10   1.377460 A    
N4    O12   1.301515 A    
N4    O11   1.301229 A    
C5    H1    1.088077 S    
C7    C12   1.395148 A    
C10   C12   1.405358 A    
C6    H2    1.088077 S    
Zn1   N1    2.011581 S    
C7    C9    1.377461 A    
O2    Zn2   1.988299 S    
Zn2   N2    2.011580 S    
C2    C11   1.413167 S    
O1    Zn1   1.988298 S    
C13   C15   1.417250 A    
C1    C12   1.413166 S    
O5    Zn1   1.969609 S    
C9    C11   1.405340 A    
O4    C2    1.281006 A    
C4    C6    1.402747 S    
O4    Zn1   1.992353 S    
N2    C16   1.366626 A    
C3    C5    1.402747 S    
O6    Zn2   1.969609 S    
C10   N4    1.439432 S    
C9    N3    1.439405 S    
O8    Zn1   1.981331 S    
O3    C1    1.281002 A    
C8    C11   1.395143 A    
C16   H6    1.081837 S    
