data_mof_unit_32870.cif
_audit_creation_date              2012-12-10T17:08:47-0500
_audit_creation_method            fapswitch 2.2
_symmetry_space_group_name_H-M    P1
_symmetry_Int_Tables_number       1
_space_group_crystal_system       triclinic
_cell_length_a                    27.820397
_cell_length_b                    11.027788
_cell_length_c                    9.814202
_cell_angle_alpha                 111.108269
_cell_angle_beta                  97.940933
_cell_angle_gamma                 90.94803
_cell_volume                      2774.83447121

loop_
_atom_site_label
_atom_site_type_symbol
_atom_type_description
_atom_site_fract_x
_atom_site_fract_y
_atom_site_fract_z
_atom_type_partial_charge
C1    C     C_R   0.496490 0.254101 0.440655 0.871073
C2    C     C_R   0.503511 0.745899 0.559345 0.871178
C3    C     C_R   0.102409 0.507868 0.509751 -0.114179
C4    C     C_R   0.897406 0.493505 0.488436 -0.114134
C5    C     C_R   0.129002 0.411676 0.543007 0.014946
C6    C     C_R   0.871597 0.598058 0.473296 0.009933
C7    C     C_R   0.104840 0.314653 0.573447 -0.152528
C8    C     C_R   0.896620 0.704283 0.462748 -0.147006
C9    C     C_R   0.127266 0.606662 0.480700 -0.126679
C10   C     C_R   0.871792 0.386612 0.499793 -0.128733
C11   C     C_R   0.354802 0.502139 0.505624 -0.041841
C12   C     C_R   0.645190 0.497932 0.494289 -0.041032
C13   C     C_R   0.974836 0.394362 0.515668 -0.028028
C14   C     C_R   0.024632 0.602956 0.474436 -0.027700
C15   C     C_R   0.973637 0.602937 0.476451 0.092431
C16   C     C_R   0.026492 0.401746 0.529404 0.093797
C17   C     C_R   0.948779 0.496658 0.493061 0.067278
C18   C     C_R   0.051025 0.504469 0.504949 0.068514
C19   C     C_R   0.948182 0.287068 0.522520 -0.292049
C20   C     C_R   0.050121 0.697821 0.440883 -0.297132
C21   C     C_R   0.897569 0.281043 0.511774 0.517254
C22   C     C_R   0.100624 0.702959 0.447868 0.517386
C23   C     C_R   0.407527 0.500396 0.501697 0.802245
C24   C     C_R   0.592472 0.499594 0.498292 0.802198
C25   C     C_R   0.054732 0.309826 0.567437 -0.207330
C26   C     C_R   0.946557 0.707159 0.464776 -0.207665
C27   C     C_2   0.494576 0.114763 0.407162 -0.345929
C28   C     C_2   0.505428 0.885237 0.592837 -0.345886
C29   C     C_2   0.500906 0.069568 0.516626 -0.145541
C30   C     C_2   0.499104 0.930432 0.483373 -0.145482
C31   C     C_2   0.504175 0.510445 0.081200 -0.074431
C32   C     C_2   0.495828 0.489547 0.918799 -0.074732
C33   C     C_R   0.179462 0.414134 0.544765 0.536010
C34   C     C_R   0.821145 0.595423 0.471700 0.535301
C35   C     C_R   0.178194 0.605229 0.484553 0.561815
C36   C     C_R   0.820940 0.388585 0.497601 0.560336
C37   C     C_R   0.272038 0.482368 0.378813 -0.101583
C38   C     C_R   0.727800 0.508849 0.618586 -0.101990
C39   C     C_R   0.321913 0.479946 0.375331 -0.207977
C40   C     C_R   0.677928 0.511070 0.622266 -0.207938
C41   C     C_R   0.336819 0.526654 0.639387 -0.217545
C42   C     C_R   0.663318 0.482734 0.362691 -0.215409
C43   C     C_R   0.286859 0.529278 0.642609 -0.099210
C44   C     C_R   0.713276 0.480747 0.359395 -0.101619
C45   C     C_R   0.254306 0.507248 0.512354 0.344787
C46   C     C_R   0.745643 0.493655 0.487277 0.348223
Cu1   Cu    Cu3+1 0.508480 0.521810 0.644910 0.947625
Cu2   Cu    Cu3+1 0.491520 0.478190 0.355090 0.947923
H1    H     H_    0.361287 0.544176 0.741505 0.159670
H2    H     H_    0.638975 0.472481 0.262431 0.158149
H3    H     H_    0.512013 0.951343 0.707732 0.152202
H4    H     H_    0.487988 0.048657 0.292268 0.152135
H5    H     H_    0.467537 0.417398 0.846018 0.160448
H6    H     H_    0.532470 0.582587 0.153981 0.159654
H7    H     H_    0.547870 0.622416 0.934233 0.194142
H8    H     H_    0.452127 0.377590 0.065769 0.194243
H9    H     H_    0.273400 0.548789 0.746312 0.145482
H10   H     H_    0.726884 0.468876 0.257495 0.141372
H11   H     H_    0.124628 0.241224 0.602124 0.170678
H12   H     H_    0.877693 0.786790 0.453777 0.178930
H13   H     H_    0.665068 0.522861 0.725222 0.162501
H14   H     H_    0.334648 0.460625 0.270606 0.163285
H15   H     H_    0.752685 0.519330 0.717919 0.143408
H16   H     H_    0.247064 0.464628 0.277588 0.146612
H17   H     H_    0.965322 0.203631 0.533507 0.151612
H18   H     H_    0.031754 0.768188 0.403965 0.155257
H19   H     H_    0.039482 0.233529 0.596075 0.134916
H20   H     H_    0.962985 0.794852 0.461178 0.134965
H21   H     H_    0.492535 0.864616 0.368279 0.181007
H22   H     H_    0.507478 0.135384 0.631720 0.181002
N1    N     N_R   0.202871 0.509457 0.515058 -0.474566
N2    N     N_R   0.797037 0.492113 0.484423 -0.475467
N3    N     N_2   0.478780 0.445430 0.137360 -0.285003
N4    N     N_2   0.521220 0.554570 0.862640 -0.285403
O1    O     O_R   0.504520 0.332330 0.577400 -0.578408
O2    O     O_R   0.495480 0.667670 0.422600 -0.578304
O3    O     O_R   0.490210 0.295500 0.332650 -0.572058
O4    O     O_R   0.509790 0.704500 0.667350 -0.571993
O5    O     O_R   0.437420 0.518430 0.622370 -0.582556
O6    O     O_R   0.562580 0.481570 0.377630 -0.582467
O7    O     O_R   0.423110 0.481600 0.377610 -0.576084
O8    O     O_R   0.576890 0.518400 0.622390 -0.576212
O9    O     O_2   0.204926 0.320805 0.573873 -0.545754
O10   O     O_2   0.796359 0.696122 0.459328 -0.539916
O11   O     O_2   0.795341 0.288286 0.508314 -0.479137
O12   O     O_2   0.203132 0.698751 0.458892 -0.481217
O13   O     O_3   0.874014 0.174666 0.523808 -0.531366
C47   C     C_3   0.869888 0.069387 0.387204 -0.231307
H23   H     H_    0.851335 0.095924 0.294796 0.163216
H24   H     H_    0.847327 0.988112 0.393189 0.203862
H25   H     H_    0.906069 0.033186 0.363668 0.125247
O14   O     O_3   0.123124 0.796489 0.409732 -0.531335
C48   C     C_3   0.125258 0.918158 0.526771 -0.225063
H26   H     H_    0.147201 0.990000 0.501385 0.207407
H27   H     H_    0.143453 0.913559 0.633123 0.161744
H28   H     H_    0.088430 0.954511 0.538539 0.121531

loop_
_geom_bond_atom_site_label_1
_geom_bond_atom_site_label_2
_ccdc_geom_bond_type
O13   C47   S    
C21   O13   S    
C48   H26   S    
C45   N1    S    
C1    O3    A    
C14   C18   A    
C25   H19   S    
Cu1   O5    S    
C37   H16   S    
C34   O10   S    
C3    C9    A    
C20   H18   S    
C19   C21   A    
C38   H15   S    
C32   N4    D    
C35   O12   S    
C9    C22   A    
C31   N3    D    
C27   C29   D    
C8    C26   A    
Cu2   O7    S    
C3    C18   A    
Cu1   O8    S    
C41   H1    S    
C24   O8    A    
C12   C42   A    
H7    N4    S    
C24   O6    A    
C31   C32   S    
C44   H10   S    
C5    C33   A    
C19   H17   S    
C46   N2    S    
C35   N1    A    
C48   H27   S    
C41   C43   A    
C42   C44   A    
C7    H11   S    
C44   C46   A    
C10   C21   A    
C13   C19   A    
C1    O1    A    
C14   C20   A    
C4    C6    A    
C5    C7    A    
C33   N1    A    
C15   C26   A    
C6    C8    A    
C40   H13   S    
C6    C34   A    
Cu2   O3    S    
C12   C40   A    
C29   C30   S    
C2    O4    A    
C33   O9    S    
Cu1   Cu2   S    
C47   H25   S    
C11   C39   A    
C43   C45   A    
C42   H2    S    
C4    C17   A    
C47   H24   S    
C48   H28   S    
C37   C45   A    
C34   N2    A    
C32   H5    S    
C30   H21   S    
C2    O2    A    
C27   H4    S    
C1    C27   S    
C29   H22   S    
C16   C25   A    
C15   C17   A    
C39   H14   S    
H8    N3    S    
C23   O7    A    
Cu2   N3    S    
Cu1   N4    S    
C20   C22   A    
C3    C5    A    
C10   C36   A    
C36   O11   S    
C12   C24   S    
C7    C25   A    
C13   C17   A    
C26   H20   S    
Cu2   O6    S    
C28   C30   D    
Cu1   O1    S    
C37   C39   A    
C8    H12   S    
C38   C40   A    
C11   C23   S    
O14   C48   S    
C28   H3    S    
C11   C41   A    
C31   H6    S    
C38   C46   A    
C43   H9    S    
Cu2   O2    S    
C47   H23   S    
C16   C18   A    
C13   C16   A    
C9    C35   A    
C22   O14   S    
C14   C15   A    
C2    C28   S    
Cu1   O4    S    
C23   O5    A    
C4    C10   A    
C36   N2    A    
