data_mof_unit_15110.cif
_audit_creation_date              2012-12-10T17:31:17-0500
_audit_creation_method            fapswitch 2.2
_symmetry_space_group_name_H-M    P1
_symmetry_Int_Tables_number       1
_space_group_crystal_system       triclinic
_cell_length_a                    19.022818
_cell_length_b                    18.45251
_cell_length_c                    12.360409
_cell_angle_alpha                 89.999989
_cell_angle_beta                  129.202058
_cell_angle_gamma                 89.999631
_cell_volume                      3362.1804205

loop_
_atom_site_label
_atom_site_type_symbol
_atom_type_description
_atom_site_fract_x
_atom_site_fract_y
_atom_site_fract_z
_atom_type_partial_charge
C1    C     C_R   0.613367 0.898891 0.654253 0.831129
C2    C     C_R   0.613332 0.101137 0.654208 0.831189
C3    C     C_R   0.113382 0.398904 0.654273 0.831242
C4    C     C_R   0.113397 0.601082 0.654293 0.831202
C5    C     C_R   0.243225 0.778482 0.034980 0.102981
C6    C     C_R   0.243189 0.221492 0.034941 0.102961
C7    C     C_R   0.743063 0.278594 0.034802 0.102968
C8    C     C_R   0.743144 0.721463 0.034892 0.102984
C9    C     C_R   0.659941 0.279837 0.012018 0.153133
C10   C     C_R   0.659895 0.719988 0.011721 0.153054
C11   C     C_R   0.159908 0.780080 0.011598 0.153024
C12   C     C_R   0.159928 0.219997 0.011732 0.153059
C13   C     C_R   0.583073 0.247489 0.893334 -0.218563
C14   C     C_R   0.583024 0.752251 0.892894 -0.218539
C15   C     C_R   0.083037 0.747874 0.892685 -0.218500
C16   C     C_R   0.083059 0.252246 0.892886 -0.218481
C17   C     C_R   0.588475 0.210806 0.800975 -0.154272
C18   C     C_R   0.588520 0.789059 0.800740 -0.154272
C19   C     C_R   0.088583 0.711007 0.800636 -0.154296
C20   C     C_R   0.088563 0.289058 0.800749 -0.154300
C21   C     C_R   0.318474 0.812809 0.154459 -0.240417
C22   C     C_R   0.318442 0.187142 0.154373 -0.240436
C23   C     C_R   0.818332 0.312993 0.154118 -0.240533
C24   C     C_R   0.818407 0.687123 0.154327 -0.240475
C25   C     C_R   0.228773 0.852204 0.220253 -0.179635
C26   C     C_R   0.228842 0.147908 0.220437 -0.179632
C27   C     C_R   0.728987 0.351840 0.220860 -0.179494
C28   C     C_R   0.728830 0.647900 0.220440 -0.179526
C29   C     C_R   0.680983 0.157557 0.744095 -0.235329
C30   C     C_R   0.681136 0.842579 0.744308 -0.235246
C31   C     C_R   0.181258 0.657310 0.744480 -0.235269
C32   C     C_R   0.181185 0.342622 0.744378 -0.235321
C33   C     C_R   0.685325 0.000005 0.288561 -0.276945
C34   C     C_R   0.185325 0.500000 0.288561 -0.277012
C35   C     C_R   0.343572 0.000003 0.627402 0.028438
C36   C     C_R   0.843572 0.499993 0.627402 0.028408
C37   C     C_R   0.309231 0.000008 0.699245 -0.062946
C38   C     C_R   0.809231 0.499983 0.699245 -0.062927
C39   C     C_R   0.384157 0.098665 0.342448 0.786192
C40   C     C_R   0.384153 0.901340 0.342442 0.786175
C41   C     C_R   0.884152 0.598662 0.342443 0.786217
C42   C     C_R   0.884159 0.401330 0.342452 0.786256
C43   C     C_R   0.368532 0.000009 0.845255 -0.227093
C44   C     C_R   0.868531 0.499984 0.845255 -0.227181
C45   C     C_R   0.463294 0.000005 0.921711 -0.020960
C46   C     C_R   0.963294 0.499993 0.921711 -0.021005
C47   C     C_R   0.494977 0.000002 0.842987 0.264708
C48   C     C_R   0.994977 0.499998 0.842987 0.264783
C49   C     C_R   0.527487 0.000004 0.072648 -0.036617
C50   C     C_R   0.027487 0.499995 0.072647 -0.036599
C51   C     C_R   0.621978 0.000005 0.141375 0.099767
C52   C     C_R   0.121978 0.499998 0.141375 0.099834
C53   C     C_R   0.651615 0.000004 0.062138 -0.083951
C54   C     C_R   0.151615 0.500000 0.062138 -0.084009
C55   C     C_R   0.589096 0.000002 0.917026 -0.209010
C56   C     C_R   0.089096 0.500000 0.917026 -0.208985
C57   C     C_R   0.502280 0.000002 0.159520 0.015316
C58   C     C_R   0.002280 0.499997 0.159520 0.015237
C59   C     C_R   0.655950 0.000003 0.366651 0.150913
C60   C     C_R   0.155950 0.500001 0.366651 0.150522
C61   C     C_R   0.654057 0.315215 0.106558 -0.175772
C62   C     C_R   0.653892 0.684456 0.106015 -0.175818
C63   C     C_R   0.153837 0.815683 0.105764 -0.175890
C64   C     C_R   0.153908 0.184459 0.106001 -0.175856
C65   C     C_R   0.310511 0.852254 0.242240 -0.049524
C66   C     C_R   0.310526 0.147764 0.242266 -0.049525
C67   C     C_R   0.810541 0.352208 0.242297 -0.049648
C68   C     C_R   0.810509 0.647753 0.242247 -0.049597
C69   C     C_R   0.760518 0.160899 0.758435 0.625074
C70   C     C_R   0.760808 0.839470 0.759005 0.624958
C71   C     C_R   0.261027 0.660242 0.759437 0.625108
C72   C     C_R   0.260886 0.339569 0.759151 0.625214
C73   C     C_R   0.331888 0.705262 0.858425 -0.204786
C74   C     C_R   0.331688 0.294466 0.858005 -0.204783
C75   C     C_R   0.831176 0.206197 0.856971 -0.204746
C76   C     C_R   0.831585 0.794336 0.857812 -0.204764
C77   C     C_R   0.326936 0.745065 0.948631 -0.285741
C78   C     C_R   0.326765 0.254709 0.948283 -0.285841
C79   C     C_R   0.826314 0.245846 0.947408 -0.285874
C80   C     C_R   0.826673 0.754605 0.948125 -0.285763
C81   C     C_R   0.748241 0.242848 0.938211 0.094335
C82   C     C_R   0.748433 0.757343 0.938518 0.094310
C83   C     C_R   0.248584 0.742514 0.938745 0.094334
C84   C     C_R   0.248495 0.257393 0.938602 0.094366
C85   C     C_R   0.671930 0.203181 0.827067 0.003313
C86   C     C_R   0.672062 0.796879 0.827166 0.003278
C87   C     C_R   0.172174 0.703064 0.827262 0.003229
C88   C     C_R   0.172114 0.296908 0.827219 0.003253
Cu1   Cu    Cu3+1 0.526340 0.000000 0.421010 0.993626
Cu2   Cu    Cu3+1 0.026340 0.500000 0.421010 0.993599
Cu3   Cu    Cu3+1 0.473640 0.000000 0.578990 0.921991
Cu4   Cu    Cu3+1 0.973640 0.500000 0.578990 0.922098
H1    H     H_    0.221697 0.882942 0.287557 0.152119
H2    H     H_    0.221801 0.117226 0.287831 0.152164
H3    H     H_    0.722041 0.382379 0.288491 0.152263
H4    H     H_    0.721799 0.617224 0.287849 0.152177
H5    H     H_    0.757718 0.000007 0.344332 0.169918
H6    H     H_    0.257718 0.500001 0.344331 0.169955
H7    H     H_    0.432263 1.000000 0.116154 0.129063
H8    H     H_    0.932263 0.499996 0.116154 0.129032
H9    H     H_    0.297610 0.000003 0.514358 0.125899
H10   H     H_    0.797610 0.499993 0.514358 0.125913
H11   H     H_    0.338848 0.000015 0.896146 0.143110
H12   H     H_    0.838848 0.499975 0.896146 0.143102
H13   H     H_    0.617534 0.000000 0.865569 0.211820
H14   H     H_    0.117534 0.500001 0.865568 0.211790
H15   H     H_    0.518305 0.250601 0.871484 0.143134
H16   H     H_    0.518177 0.748964 0.870762 0.143281
H17   H     H_    0.018147 0.751256 0.870395 0.143300
H18   H     H_    0.018204 0.248942 0.870723 0.143186
H19   H     H_    0.590736 0.316483 0.089519 0.140433
H20   H     H_    0.590474 0.683002 0.088671 0.140413
H21   H     H_    0.090369 0.817224 0.088263 0.140510
H22   H     H_    0.090480 0.182996 0.088627 0.140620
H23   H     H_    0.384427 0.811001 0.181320 0.149802
H24   H     H_    0.384363 0.188896 0.181113 0.149866
H25   H     H_    0.884174 0.311370 0.180569 0.149984
H26   H     H_    0.884325 0.688883 0.181057 0.149857
H27   H     H_    0.385077 0.778344 0.022854 0.157558
H28   H     H_    0.384850 0.221349 0.022385 0.157536
H29   H     H_    0.884268 0.279389 0.021227 0.157563
H30   H     H_    0.884735 0.721217 0.022186 0.157579
H31   H     H_    0.392643 0.707589 0.868486 0.155875
H32   H     H_    0.392378 0.292034 0.867903 0.155934
H33   H     H_    0.891716 0.208873 0.866490 0.155889
H34   H     H_    0.892248 0.791856 0.867642 0.155852
H35   H     H_    0.525615 0.190110 0.707275 0.175012
H36   H     H_    0.525675 0.809705 0.706932 0.174846
H37   H     H_    0.025744 0.690400 0.706760 0.174753
H38   H     H_    0.025717 0.309690 0.706924 0.174833
H39   H     H_    0.704909 0.000004 0.479462 0.210514
H40   H     H_    0.204909 0.500002 0.479461 0.210825
N1    N     N_R   0.566260 0.000000 0.302220 -0.198317
N2    N     N_R   0.066260 0.500000 0.302220 -0.198315
N3    N     N_R   0.434410 0.000000 0.697680 -0.207665
N4    N     N_R   0.934410 0.500000 0.697680 -0.207635
O1    O     O_R   0.608610 0.924520 0.551740 -0.515076
O2    O     O_R   0.608610 0.075480 0.551740 -0.514903
O3    O     O_R   0.108610 0.424520 0.551740 -0.515001
O4    O     O_R   0.108610 0.575480 0.551740 -0.515103
O5    O     O_R   0.564110 0.924510 0.685150 -0.615145
O6    O     O_R   0.564110 0.075490 0.685150 -0.615265
O7    O     O_R   0.064110 0.424510 0.685150 -0.615192
O8    O     O_R   0.064110 0.575490 0.685150 -0.615129
O9    O     O_R   0.435880 0.075470 0.314850 -0.590197
O10   O     O_R   0.435880 0.924530 0.314850 -0.590179
O11   O     O_R   0.935880 0.575470 0.314850 -0.590199
O12   O     O_R   0.935880 0.424530 0.314850 -0.590253
O13   O     O_R   0.391380 0.075460 0.448260 -0.593737
O14   O     O_R   0.391380 0.924540 0.448260 -0.593683
O15   O     O_R   0.891380 0.575460 0.448260 -0.593667
O16   O     O_R   0.891380 0.424540 0.448260 -0.593727
C89   C     C_1   0.747016 0.000003 0.126850 0.242963
N5    N     N_1   0.823185 0.000001 0.178254 -0.257184
C90   C     C_1   0.247015 0.500004 0.126848 0.242964
N6    N     N_1   0.323185 0.500007 0.178251 -0.257111
C91   C     C_1   0.212626 0.000013 0.622694 0.224672
N7    N     N_1   0.135005 0.000017 0.561202 -0.254074
C92   C     C_1   0.712627 0.499972 0.622694 0.224704
N8    N     N_1   0.635005 0.499962 0.561201 -0.254038
F1    F     F_    0.771697 0.118664 0.680335 -0.661033
F2    F     F_    0.772004 0.881800 0.681025 -0.661119
F3    F     F_    0.272243 0.617824 0.681571 -0.660891
F4    F     F_    0.272087 0.381932 0.681211 -0.660820

loop_
_geom_bond_atom_site_label_1
_geom_bond_atom_site_label_2
_ccdc_geom_bond_type
Cu3   O13   S    
C26   H2    S    
C74   H32   S    
C53   C89   S    
C91   N7    T    
C8    C24   A    
C76   H34   S    
C14   C18   A    
C27   H3    S    
C48   C56   A    
C21   H23   S    
C42   O12   A    
C60   H40   S    
Cu1   N1    S    
Cu2   O3    S    
C44   H12   S    
C16   H18   S    
C32   C72   A    
C80   H30   S    
C78   H28   S    
C58   N2    A    
Cu1   O9    S    
C79   H29   S    
C59   H39   S    
C18   C86   A    
C71   F3    S    
C55   H13   S    
C2    C29   S    
C17   C85   A    
C28   C68   A    
C69   F1    S    
C38   C92   S    
C5    C11   A    
C19   C87   A    
C6    C12   A    
Cu2   N2    S    
C77   C83   A    
C37   C91   S    
C57   H7    S    
C70   F2    S    
C49   C57   A    
C36   H10   S    
C25   C63   A    
C45   C47   A    
C23   C67   A    
Cu4   O7    S    
C26   C64   A    
C22   C66   A    
C9    C13   A    
C27   C61   A    
C6    C84   A    
C18   H36   S    
C11   C15   A    
C1    O5    A    
C12   C16   A    
C52   C54   A    
C49   C51   A    
Cu4   O16   S    
C50   C52   A    
C30   C86   A    
C42   O16   A    
C29   C85   A    
C13   H15   S    
Cu3   O6    S    
C21   C65   A    
C6    C22   A    
C22   H24   S    
C33   C59   A    
C34   C60   A    
C57   N1    A    
C10   C62   A    
C36   N4    A    
C30   C70   A    
C44   C46   A    
C41   C68   S    
C46   C48   A    
C53   C55   A    
Cu1   O10   S    
C54   C56   A    
C14   H16   S    
C31   C87   A    
C40   O14   A    
C2    O2    A    
C76   C80   A    
C58   H8    S    
C72   C74   A    
C10   C14   A    
C35   N3    A    
C54   C90   S    
C79   C81   A    
C17   H35   S    
C77   H27   S    
C82   C86   A    
C59   N1    A    
C75   H33   S    
C5    C21   A    
C26   C66   A    
C23   H25   S    
C37   C43   A    
C15   C19   A    
C38   C44   A    
Cu2   O11   S    
C4    O4    A    
Cu2   Cu4   S    
C92   N8    T    
C41   O11   A    
C45   C49   A    
C25   H1    S    
C16   C20   A    
C39   O9    A    
Cu4   O15   S    
C72   F4    S    
C50   C58   A    
C3    O7    A    
Cu4   N4    S    
C43   C45   A    
C56   H14   S    
C80   C82   A    
C7    C81   A    
Cu1   O2    S    
Cu1   O1    S    
C40   C65   S    
C70   C76   A    
C42   C67   S    
C2    O6    A    
C39   C66   S    
C9    C61   A    
C3    O3    A    
Cu2   O12   S    
C61   H19   S    
C60   N2    A    
C1    O1    A    
C35   C37   A    
C47   C55   A    
C19   H37   S    
C7    C9    A    
C12   C64   A    
C46   C50   A    
C47   N3    A    
C24   H26   S    
C48   N4    A    
C84   C88   A    
C20   H38   S    
C35   H9    S    
C83   C87   A    
C4    O8    A    
Cu3   O14   S    
Cu2   O4    S    
C5    C83   A    
C41   O15   A    
C13   C17   A    
C33   C51   A    
C39   O13   A    
C34   C52   A    
C40   O10   A    
C28   H4    S    
Cu3   N3    S    
C36   C38   A    
C73   H31   S    
C15   H17   S    
C7    C23   A    
C20   C88   A    
C31   C71   A    
C1    C30   S    
C34   H6    S    
C69   C75   A    
C33   H5    S    
C3    C32   S    
Cu4   O8    S    
C43   H11   S    
C4    C31   S    
C27   C67   A    
C24   C68   A    
C63   H21   S    
C78   C84   A    
C8    C82   A    
C62   H20   S    
C64   H22   S    
C8    C10   A    
Cu1   Cu3   S    
C74   C78   A    
C71   C73   A    
C90   N6    T    
C25   C65   A    
C73   C77   A    
C29   C69   A    
C51   C53   A    
C89   N5    T    
C11   C63   A    
C75   C79   A    
C81   C85   A    
C28   C62   A    
Cu3   O5    S    
C32   C88   A    
