data_mof_unit_20047.cif
_audit_creation_date              2012-12-11T15:54:40-0500
_audit_creation_method            fapswitch 2.2
_symmetry_space_group_name_H-M    P1
_symmetry_Int_Tables_number       1
_space_group_crystal_system       triclinic
_cell_length_a                    6.943392
_cell_length_b                    14.93443
_cell_length_c                    15.78478
_cell_angle_alpha                 90.26612
_cell_angle_beta                  89.656817
_cell_angle_gamma                 90.366807
_cell_volume                      1636.73199216

loop_
_atom_site_label
_atom_site_type_symbol
_atom_type_description
_atom_site_fract_x
_atom_site_fract_y
_atom_site_fract_z
_atom_type_partial_charge
O1    O     O_R   0.638180 0.333920 0.163320 -0.512036
O2    O     O_R   0.361820 0.666080 0.836680 -0.514622
O3    O     O_R   0.308470 0.344960 0.336080 -0.537487
O4    O     O_R   0.691530 0.655040 0.663920 -0.540807
O5    O     O_R   0.138140 0.166110 0.336680 -0.531322
O6    O     O_R   0.861860 0.833890 0.663320 -0.531041
C1    C     C_R   0.477719 0.368438 0.363886 0.736010
C2    C     C_R   0.522265 0.631485 0.636199 0.714871
O7    O     O_R   0.308460 0.344950 0.163930 -0.544498
O8    O     O_R   0.691540 0.655050 0.836070 -0.545910
O9    O     O_R   0.138140 0.166100 0.163310 -0.547537
O10   O     O_R   0.861860 0.833900 0.836690 -0.543470
C3    C     C_R   0.478318 0.365669 0.133746 0.734894
C4    C     C_R   0.521336 0.631447 0.863693 0.731372
O11   O     O_R   0.638180 0.333930 0.336700 -0.529335
O12   O     O_R   0.361820 0.666070 0.663300 -0.533124
O13   O     O_3   0.471670 0.191340 0.250000 -0.381999
O14   O     O_3   0.528330 0.808660 0.750000 -0.377601
V1    V     V_3+5 0.196830 0.260900 0.250000 1.487176
V2    V     V_3+5 0.803170 0.739100 0.750000 1.472119
O15   O     O_R   0.808420 0.155070 0.163920 -0.554135
O16   O     O_R   0.191580 0.844930 0.836080 -0.550348
C5    C     C_R   0.977599 0.132949 0.134910 0.654516
C6    C     C_R   0.022360 0.867325 0.864867 0.680035
O17   O     O_R   0.808420 0.155080 0.336070 -0.537503
O18   O     O_R   0.191580 0.844920 0.663930 -0.537046
C7    C     C_R   0.975871 0.134838 0.366508 0.741937
C8    C     C_R   0.024133 0.865121 0.633475 0.740987
V3    V     V_3+5 0.696830 0.239130 0.250000 1.481826
V4    V     V_3+5 0.303170 0.760870 0.750000 1.477439
O19   O     O_3   0.971850 0.308690 0.250010 -0.347584
O20   O     O_3   0.028150 0.691310 0.749990 -0.358809
H1    H     H_    0.679844 0.859120 0.267992 0.154901
H2    H     H_    0.321837 0.140525 0.731668 0.149144
C9    C     C_R   0.095128 0.180045 0.545308 0.099169
C10   C     C_R   0.906097 0.819750 0.454495 0.089815
C11   C     C_R   0.201709 0.196956 0.619452 0.230296
C12   C     C_R   0.800347 0.802702 0.380137 0.230130
C13   C     C_R   0.246004 0.127379 0.673101 -0.168967
C14   C     C_R   0.755295 0.872321 0.326642 -0.164610
C15   C     C_R   0.180300 0.041810 0.655996 -0.197279
C16   C     C_R   0.819935 0.958030 0.343959 -0.197383
C17   C     C_R   0.087112 0.020423 0.578801 0.051583
C18   C     C_R   0.913053 0.979449 0.421155 0.051208
C19   C     C_R   0.056580 0.090056 0.518677 0.006247
C20   C     C_R   0.943836 0.909794 0.481239 0.007224
C21   C     C_R   0.020899 0.931760 0.562674 -0.137983
C22   C     C_R   0.979151 0.068147 0.437294 -0.138632
H3    H     H_    0.205984 0.993599 0.705076 0.136674
H4    H     H_    0.793734 0.006311 0.294993 0.139456
C23   C     C_R   0.178956 0.976139 0.965983 -0.152540
C24   C     C_R   0.820882 0.024824 0.033230 -0.160590
H5    H     H_    0.319404 0.958502 0.941095 0.114888
H6    H     H_    0.680432 0.042508 0.058084 0.114537
C25   C     C_R   0.167969 0.039712 0.031279 -0.146711
C26   C     C_R   0.831866 0.961243 0.967940 -0.139239
H7    H     H_    0.300449 0.069237 0.054518 0.114070
H8    H     H_    0.699373 0.931754 0.944679 0.117818
C27   C     C_R   0.988798 0.064837 0.065911 -0.044091
C28   C     C_R   0.011078 0.935912 0.933476 -0.041713
C29   C     C_R   0.321611 0.466289 0.474596 -0.073059
C30   C     C_R   0.678371 0.533558 0.525594 -0.083454
H9    H     H_    0.181511 0.442010 0.455797 0.151415
H10   H     H_    0.818472 0.557861 0.544378 0.149400
C31   C     C_R   0.333575 0.525868 0.543063 -0.068867
C32   C     C_R   0.666420 0.473928 0.457173 -0.061514
H11   H     H_    0.202671 0.542882 0.576779 0.147359
H12   H     H_    0.797360 0.456856 0.423521 0.152480
C33   C     C_R   0.511584 0.562192 0.568188 -0.046023
C34   C     C_R   0.488397 0.437656 0.431991 -0.045807
C35   C     C_R   0.322611 0.466221 0.027037 -0.288195
C36   C     C_R   0.676669 0.524813 0.964881 -0.291486
H13   H     H_    0.184156 0.445792 0.051255 0.220037
H14   H     H_    0.815105 0.548276 0.943361 0.216098
C37   C     C_R   0.329918 0.524759 0.957692 0.482994
C38   C     C_R   0.669248 0.456586 0.025715 0.502727
C39   C     C_R   0.508479 0.560203 0.929879 -0.216380
C40   C     C_R   0.490936 0.431163 0.062375 -0.216006
O21   O     O_3   0.160531 0.546217 0.917666 -0.553760
C41   C     C_3   0.139339 0.488733 0.846887 -0.174081
H15   H     H_    0.250873 0.502526 0.797728 0.145878
H16   H     H_    0.996973 0.500731 0.817689 0.158923
H17   H     H_    0.145045 0.416949 0.865277 0.127524
O22   O     O_3   0.838433 0.415777 0.048842 -0.543412
C42   C     C_3   0.863084 0.339088 0.997194 -0.216459
H18   H     H_    0.748986 0.288075 0.009493 0.117875
H19   H     H_    0.003394 0.308052 0.012325 0.139138
H20   H     H_    0.864643 0.356367 0.928716 0.126331
I1    I     I_    0.933011 0.289250 0.500338 -0.403567
I2    I     I_    0.067690 0.710613 0.499998 -0.396956
I3    I     I_    0.287457 0.326088 0.662025 -0.486090
I4    I     I_    0.717441 0.673300 0.336929 -0.387453

loop_
_geom_bond_atom_site_label_1
_geom_bond_atom_site_label_2
_ccdc_geom_bond_type
C7    C22   S    
C29   C34   A    
C32   H12   S    
C8    C21   S    
C25   C27   A    
O13   V3    S    
O4    C2    A    
V1    O19   S    
C38   O22   S    
C1    C34   S    
C13   C15   A    
C42   H18   S    
C5    C27   S    
O9    V1    S    
C2    C33   S    
C9    C11   A    
C38   C40   A    
O3    C1    A    
C19   C22   A    
O12   V4    S    
C12   I4    S    
C4    C39   S    
C29   H9    S    
O7    C3    A    
C30   H10   S    
C3    C40   S    
O7    V1    S    
O6    C8    A    
O8    V2    S    
C31   H11   S    
O3    V1    S    
O14   V4    S    
V4    O20   S    
C23   C25   A    
C36   C38   A    
C14   C16   A    
C2    O12   A    
C12   C14   A    
O5    C7    A    
C15   C17   A    
C16   C18   A    
C41   H17   S    
C15   H3    S    
C24   H6    S    
O11   V3    S    
C42   H19   S    
O17   V3    S    
H1    C14   S    
C30   C32   A    
C24   C26   A    
H2    C13   S    
O22   C42   S    
C36   H14   S    
O8    C4    A    
C35   H13   S    
C11   I3    S    
C1    O11   A    
C18   C20   A    
O15   V3    S    
C26   C28   A    
C30   C33   A    
C23   H5    S    
C36   C39   A    
C24   C27   A    
C37   C39   A    
C6    C28   S    
O10   V2    S    
O1    V3    S    
C10   C20   A    
C17   C19   A    
C16   H4    S    
C9    I1    S    
C41   H16   S    
O18   V4    S    
C25   H7    S    
O16   C6    A    
O1    C3    A    
C10   C12   A    
C9    C19   A    
V2    O20   S    
C42   H20   S    
C10   I2    S    
C20   C21   A    
O16   V4    S    
C41   H15   S    
O5    V1    S    
O17   C7    A    
O6    V2    S    
O10   C6    A    
O18   C8    A    
O2    V4    S    
O15   C5    A    
V3    O19   S    
C35   C37   A    
C32   C34   A    
C37   O21   S    
C31   C33   A    
O9    C5    A    
O13   V1    S    
C26   H8    S    
O14   V2    S    
O2    C4    A    
O21   C41   S    
O4    V2    S    
C29   C31   A    
C11   C13   A    
C23   C28   A    
C17   C21   A    
C35   C40   A    
C18   C22   A    
