data_mof_unit_18815.cif
_audit_creation_date              2012-12-11T17:09:37-0500
_audit_creation_method            fapswitch 2.2
_symmetry_space_group_name_H-M    P1
_symmetry_Int_Tables_number       1
_space_group_crystal_system       triclinic
_cell_length_a                    14.813417
_cell_length_b                    6.947642
_cell_length_c                    13.504106
_cell_angle_alpha                 90.040861
_cell_angle_beta                  99.8475
_cell_angle_gamma                 89.946001
_cell_volume                      1369.34207463

loop_
_atom_site_label
_atom_site_type_symbol
_atom_type_description
_atom_site_fract_x
_atom_site_fract_y
_atom_site_fract_z
_atom_type_partial_charge
O1    O     O_R   0.586930 0.505770 0.416350 -0.536255
O2    O     O_R   0.413070 0.005770 0.583650 -0.538798
O3    O     O_R   0.397900 0.173100 0.389630 -0.536153
O4    O     O_R   0.602100 0.673100 0.610370 -0.536691
C1    C     C_R   0.364284 0.345408 0.362928 0.728165
C2    C     C_R   0.635714 0.845378 0.637074 0.723977
O5    O     O_R   0.585280 0.175870 0.404330 -0.548602
O6    O     O_R   0.414720 0.675870 0.595670 -0.542956
O7    O     O_R   0.601790 0.008380 0.598460 -0.533964
O8    O     O_R   0.398210 0.508380 0.401540 -0.532431
C3    C     C_R   0.614728 0.344701 0.382942 0.700511
C4    C     C_R   0.385328 0.844855 0.617120 0.708466
O9    O     O_3   0.505200 0.340120 0.563670 -0.371066
O10   O     O_3   0.494800 0.840120 0.436330 -0.370530
V1    V     V_3+5 0.499040 0.064180 0.488190 1.425257
V2    V     V_3+5 0.500960 0.564180 0.511810 1.432450
C5    C     C_R   0.250810 0.004003 0.675392 0.070762
C6    C     C_R   0.688294 0.516551 0.253283 0.023853
C7    C     C_R   0.314285 0.852802 0.682243 -0.108472
C8    C     C_R   0.681083 0.353428 0.312315 -0.080777
C9    C     C_R   0.304922 0.703094 0.750113 -0.165103
C10   C     C_R   0.741346 0.199753 0.304403 -0.147021
H1    H     H_    0.351471 0.582045 0.757427 0.117663
H2    H     H_    0.741136 0.075462 0.352166 0.154016
C11   C     C_R   0.239461 0.714540 0.814394 -0.111466
C12   C     C_R   0.807324 0.211875 0.240832 -0.134212
H3    H     H_    0.237564 0.601676 0.869119 0.118583
H4    H     H_    0.855562 0.096651 0.239560 0.187879
C13   C     C_R   0.181168 0.875643 0.812526 -0.146687
C14   C     C_R   0.816267 0.378184 0.184607 -0.060530
C15   C     C_R   0.185927 0.015106 0.738761 0.138470
C16   C     C_R   0.756250 0.530159 0.193227 0.010291
C17   C     C_3   0.195852 0.227955 0.748573 0.239055
C18   C     C_3   0.779830 0.730107 0.228111 0.242186
C19   C     C_3   0.266400 0.215981 0.678967 -0.439352
C20   C     C_3   0.702581 0.718762 0.288476 -0.409796
H5    H     H_    0.224536 0.273709 0.826415 0.053170
H6    H     H_    0.767935 0.835155 0.165287 0.057361
H7    H     H_    0.336939 0.252922 0.716596 0.131191
H8    H     H_    0.643043 0.811273 0.257916 0.129621
H9    H     H_    0.244544 0.284637 0.604369 0.216858
H10   H     H_    0.724965 0.729475 0.371243 0.209726
C21   C     C_1   0.783539 0.877144 0.782800 -0.161733
C22   C     C_1   0.216462 0.377111 0.217196 -0.165349
C23   C     C_1   0.716237 0.860077 0.716729 -0.168660
C24   C     C_1   0.283764 0.360115 0.283275 -0.172332
O11   O     O_R   0.101720 0.231700 0.098560 -0.541982
O12   O     O_R   0.898280 0.731700 0.901440 -0.538395
O13   O     O_R   0.914700 0.558980 0.095690 -0.524158
O14   O     O_R   0.085300 0.058980 0.904310 -0.536479
C25   C     C_R   0.885934 0.389894 0.117865 0.711113
C26   C     C_R   0.114762 0.889664 0.882939 0.714195
O15   O     O_R   0.102080 0.561590 0.110390 -0.534420
O16   O     O_R   0.897920 0.061590 0.889610 -0.533915
O17   O     O_R   0.086950 0.728940 0.916330 -0.531924
O18   O     O_R   0.913050 0.228940 0.083670 -0.553175
C27   C     C_R   0.135999 0.391913 0.137475 0.732610
C28   C     C_R   0.864006 0.891941 0.862520 0.736325
O19   O     O_3   0.994770 0.394510 0.936380 -0.353139
O20   O     O_3   0.005230 0.894510 0.063620 -0.364530
V3    V     V_3+5 0.000970 0.670520 0.011800 1.516105
V4    V     V_3+5 0.999030 0.170520 0.988200 1.497715
Cl1   Cl    Cl    0.093147 0.349071 0.693607 -0.578566
Cl2   Cl    Cl    0.890041 0.741656 0.307840 -0.617953

loop_
_geom_bond_atom_site_label_1
_geom_bond_atom_site_label_2
_ccdc_geom_bond_type
O4    V2    S    
O5    C3    A    
C14   C25   S    
C15   C17   S    
O9    V2    S    
O12   C28   A    
C7    C9    A    
C2    C23   S    
O11   C27   A    
O16   V4    S    
C1    C24   S    
C20   H10   S    
O1    C3    A    
C26   O17   A    
O6    C4    A    
C22   C27   S    
C17   Cl1   S    
O2    C4    A    
C2    O7    A    
O5    V1    S    
O7    V1    S    
O3    V1    S    
C1    O8    A    
C13   C15   A    
O1    V2    S    
O8    V2    S    
O20   V4    S    
C14   C16   A    
O2    V1    S    
C21   C23   T    
O12   V3    S    
C6    C20   S    
O11   V4    S    
C19   H9    S    
O17   V3    S    
C4    C7    S    
C18   Cl2   S    
C12   H4    S    
C17   C19   S    
C18   C20   S    
C8    C10   A    
C12   C14   A    
O18   V4    S    
O9    V1    S    
C9    H1    S    
C11   C13   A    
C19   H7    S    
C5    C15   A    
O10   V2    S    
C3    C8    S    
O19   V3    S    
O14   V4    S    
C6    C16   A    
C20   H8    S    
O13   V3    S    
C6    C8    A    
O4    C2    A    
C25   O18   A    
C10   C12   A    
C10   H2    S    
O16   C28   A    
O14   C26   A    
C9    C11   A    
O10   V1    S    
O19   V4    S    
O15   C27   A    
O6    V2    S    
C5    C19   S    
C21   C28   S    
C5    C7    A    
C18   H6    S    
O15   V3    S    
C13   C26   S    
C17   H5    S    
O13   C25   A    
C22   C24   T    
O20   V3    S    
O3    C1    A    
C11   H3    S    
C16   C18   S    
