data_mof_unit_11394.cif
_audit_creation_date              2012-12-10T16:58:26-0500
_audit_creation_method            fapswitch 2.2
_symmetry_space_group_name_H-M    P1
_symmetry_Int_Tables_number       1
_space_group_crystal_system       triclinic
_cell_length_a                    7.750552
_cell_length_b                    8.562993
_cell_length_c                    23.403419
_cell_angle_alpha                 91.014778
_cell_angle_beta                  85.920825
_cell_angle_gamma                 93.791432
_cell_volume                      1545.77863184

loop_
_atom_site_label
_atom_site_type_symbol
_atom_type_description
_atom_site_fract_x
_atom_site_fract_y
_atom_site_fract_z
_atom_type_partial_charge
C1    C     C_R   0.545941 0.794826 0.498510 0.973498
C2    C     C_R   0.454060 0.205174 0.501495 0.974647
C3    C     C_R   0.665606 0.468063 0.757407 0.028168
C4    C     C_R   0.638802 0.523397 0.232681 0.024036
C5    C     C_R   0.659846 0.466732 0.697811 -0.178553
C6    C     C_R   0.643941 0.524407 0.292235 -0.174510
C7    C     C_R   0.508221 0.502674 0.672770 -0.106489
C8    C     C_R   0.491039 0.498143 0.327391 -0.088448
C9    C     C_R   0.361927 0.541402 0.707394 -0.149901
C10   C     C_R   0.331954 0.469255 0.303048 -0.197784
C11   C     C_R   0.366705 0.543745 0.766377 -0.026237
C12   C     C_R   0.325599 0.467271 0.244072 -0.016132
C13   C     C_R   0.516901 0.506990 0.791369 0.197044
C14   C     C_R   0.477131 0.495986 0.208850 0.194301
C15   C     C_2   0.570136 0.958371 0.497656 -0.364872
C16   C     C_2   0.429866 0.041630 0.502361 -0.363996
C17   C     C_R   0.502464 0.500528 0.610634 0.887950
C18   C     C_R   0.497500 0.499577 0.389414 0.885619
C19   C     C_R   0.425190 0.364025 0.119488 0.525679
C20   C     C_R   0.552432 0.642803 0.880778 0.515634
C21   C     C_R   0.498324 0.639429 0.121111 0.520793
C22   C     C_R   0.463331 0.370199 0.879713 0.515752
C23   C     C_R   0.511436 0.642976 0.061489 -0.006852
C24   C     C_R   0.445805 0.368264 0.939322 -0.002431
C25   C     C_R   0.471024 0.504647 0.030482 -0.032729
C26   C     C_R   0.488926 0.506301 0.970242 -0.032006
C27   C     C_R   0.413892 0.364765 0.059718 -0.029063
C28   C     C_R   0.550771 0.645216 0.941019 -0.033310
C29   C     C_R   0.573073 0.779682 0.032816 -0.261904
C30   C     C_R   0.380431 0.232710 0.968109 -0.261916
C31   C     C_R   0.601128 0.780980 0.973315 -0.044510
C32   C     C_R   0.358001 0.230413 0.027727 -0.053235
H1    H     H_    0.609972 0.884271 0.057071 0.194291
H2    H     H_    0.340252 0.128872 0.943982 0.194881
H3    H     H_    0.772899 0.436755 0.670966 0.197824
H4    H     H_    0.766969 0.545785 0.311228 0.193559
H5    H     H_    0.243917 0.570313 0.688986 0.186802
H6    H     H_    0.212708 0.447006 0.329518 0.166502
H7    H     H_    0.253126 0.573301 0.793012 0.165546
H8    H     H_    0.202653 0.443749 0.225443 0.194822
H9    H     H_    0.702510 0.009695 0.493169 0.182232
H10   H     H_    0.297493 0.990306 0.506850 0.182339
H11   H     H_    0.013892 0.382798 0.456836 0.191698
H12   H     H_    0.986111 0.617206 0.543162 0.194663
N1    N     N_R   0.464447 0.500225 0.148410 -0.375499
N2    N     N_R   0.514322 0.506022 0.852170 -0.382044
N3    N     N_2   0.950330 0.457950 0.484560 -0.172460
N4    N     N_2   0.049670 0.542050 0.515440 -0.171458
O1    O     O_R   0.389250 0.738570 0.503790 -0.611873
O2    O     O_R   0.610750 0.261430 0.496210 -0.611381
O3    O     O_R   0.678390 0.711620 0.493890 -0.627798
O4    O     O_R   0.321610 0.288380 0.506110 -0.626901
O5    O     O_R   0.355400 0.513520 0.588790 -0.613874
O6    O     O_R   0.644600 0.486480 0.411210 -0.620471
O7    O     O_R   0.644550 0.486570 0.578900 -0.630489
O8    O     O_R   0.355450 0.513430 0.421100 -0.626394
O9    O     O_2   0.406658 0.228486 0.148427 -0.483941
O10   O     O_2   0.584761 0.775581 0.850676 -0.483112
O11   O     O_2   0.525153 0.772762 0.151815 -0.501000
O12   O     O_2   0.426765 0.238343 0.849168 -0.505499
Zn1   Zn    Zn3+2 0.306930 0.518000 0.506610 0.962013
Zn2   Zn    Zn3+2 0.693070 0.482000 0.493390 0.958361
C33   C     C_2   0.696122 0.922970 0.948724 0.529043
H13   H     H_    0.668486 0.037406 0.966342 0.033996
O13   O     O_2   0.815822 0.913003 0.912286 -0.502164
C34   C     C_2   0.263111 0.089272 0.053087 0.533934
H14   H     H_    0.280961 0.975266 0.033383 0.039401
O14   O     O_2   0.154176 0.099974 0.093044 -0.494641
C35   C     C_2   0.825037 0.428301 0.783986 0.461610
H15   H     H_    0.831462 0.434016 0.830137 0.073052
O15   O     O_2   0.951454 0.388020 0.754645 -0.576357
C36   C     C_2   0.801512 0.549430 0.195777 0.473455
H16   H     H_    0.804246 0.522472 0.150272 0.062838
O16   O     O_2   0.934561 0.603015 0.215712 -0.573749

loop_
_geom_bond_atom_site_label_1
_geom_bond_atom_site_label_2
_ccdc_geom_bond_type
C12   H8    S    
C34   O14   D    
C23   C29   A    
C19   N1    A    
C1    C15   S    
C29   H1    S    
C2    C16   S    
C25   C27   A    
C36   O16   D    
C1    O3    A    
C17   O7    A    
C26   C28   A    
N3    N4    D    
C3    C13   A    
C18   O8    A    
C10   H6    S    
C22   O12   S    
C3    C5    A    
N3    Zn2   S    
C33   O13   D    
C34   H14   S    
C27   C32   A    
C17   O5    A    
C5    C7    A    
C29   C31   A    
H12   N4    S    
C19   O9    S    
C30   C32   A    
C11   C13   A    
C24   C26   A    
C9    C11   A    
N4    Zn1   S    
C13   N2    S    
O3    Zn2   S    
C2    O4    A    
C21   N1    A    
O2    Zn2   S    
C5    H3    S    
C32   C34   S    
C3    C35   S    
C12   C14   A    
C21   O11   S    
C14   N1    S    
C10   C12   A    
O4    Zn1   S    
C23   C25   A    
C21   C23   A    
C4    C14   A    
C35   H15   S    
C11   H7    S    
C22   C24   A    
C4    C6    A    
O1    Zn1   S    
C18   O6    A    
C24   C30   A    
C20   O10   S    
C15   C16   D    
O7    Zn2   S    
C31   C33   S    
C4    C36   S    
C19   C27   A    
C15   H9    S    
C36   H16   S    
C35   O15   D    
C9    H5    S    
C28   C31   A    
C7    C9    A    
C30   H2    S    
O8    Zn1   S    
O6    Zn2   S    
C6    C8    A    
C20   C28   A    
C2    O2    A    
C22   N2    A    
C25   C26   A    
C16   H10   S    
O5    Zn1   S    
C8    C10   A    
C8    C18   S    
C33   H13   S    
C6    H4    S    
H11   N3    S    
C7    C17   S    
C20   N2    A    
C1    O1    A    
