data_mof_unit_10705.cif
_audit_creation_date              2012-10-26T18:41:03-0400
_audit_creation_method            fapswitch 2.2
_symmetry_space_group_name_H-M    P1
_symmetry_Int_Tables_number       1
_space_group_crystal_system       triclinic
_cell_length_a                    19.437558
_cell_length_b                    18.3035
_cell_length_c                    10.800739
_cell_angle_alpha                 90.082414
_cell_angle_beta                  92.473667
_cell_angle_gamma                 90.676412
_cell_volume                      3838.78108748

loop_
_atom_site_label
_atom_site_type_symbol
_atom_type_description
_atom_site_fract_x
_atom_site_fract_y
_atom_site_fract_z
_atom_type_partial_charge
Br1   Br    Br    0.352176 0.494488 0.142028 -0.558184
Br2   Br    Br    0.352038 0.499225 0.834563 -0.483356
Br3   Br    Br    0.613199 0.097253 0.676410 -0.596811
Br4   Br    Br    0.385822 0.091958 0.318034 -0.641948
C1    C     C_R   0.367302 0.499380 0.501696 0.592052
C2    C     C_R   0.291095 0.499067 0.509327 0.049116
C3    C     C_R   0.962577 0.542793 0.420369 -0.126664
C4    C     C_R   0.034279 0.543180 0.422257 -0.116049
C5    C     C_R   0.071627 0.511987 0.522251 0.017597
C6    C     C_R   0.928078 0.511154 0.518390 0.020055
C7    C     C_R   0.037015 0.480038 0.619974 -0.120732
C8    C     C_R   0.965326 0.479664 0.618073 -0.114740
C9    C     C_R   0.444490 0.722759 0.449959 0.143723
C10   C     C_R   0.555282 0.724676 0.549289 0.146208
C11   C     C_R   0.439758 0.798749 0.473549 -0.132347
C12   C     C_R   0.632364 0.500105 0.499195 0.509194
C13   C     C_R   0.559441 0.800737 0.526077 -0.133917
C14   C     C_R   0.499507 0.840484 0.499976 -0.016155
C15   C     C_R   0.499834 0.500081 0.262591 0.575082
C16   C     C_R   0.499714 0.499951 0.737208 0.579600
C17   C     C_R   0.535596 0.965967 0.595122 0.011626
C18   C     C_R   0.463693 0.964201 0.402542 0.014969
C19   C     C_R   0.542530 0.043018 0.582137 0.135698
C20   C     C_R   0.456355 0.041062 0.414284 0.138426
C21   C     C_R   0.499175 0.081158 0.498166 0.029775
C22   C     C_R   0.499536 0.924150 0.499327 -0.011624
C23   C     C_R   0.852782 0.509211 0.514890 0.016924
C24   C     C_R   0.525613 0.202809 0.399909 -0.098395
C25   C     C_R   0.472136 0.201994 0.596987 -0.095988
C26   C     C_R   0.525804 0.279543 0.402727 0.040195
C27   C     C_R   0.472910 0.278751 0.595841 0.039500
C28   C     C_R   0.498802 0.163044 0.498169 0.091547
C29   C     C_R   0.628195 0.507262 0.137771 -0.104841
C30   C     C_R   0.628000 0.494553 0.880465 -0.107925
C31   C     C_R   0.690270 0.503488 0.078156 -0.125663
C32   C     C_R   0.690095 0.495583 0.950036 -0.125002
C33   C     C_R   0.564527 0.498888 0.939245 -0.017535
C34   C     C_R   0.146928 0.509553 0.521865 0.023558
C35   C     C_R   0.564596 0.502409 0.069723 -0.012659
C36   C     C_R   0.501147 0.500617 0.128708 -0.016493
C37   C     C_R   0.501035 0.499529 0.870982 -0.016264
C38   C     C_R   0.438285 0.498549 0.059624 0.140614
C39   C     C_R   0.438223 0.499378 0.930430 0.160902
C40   C     C_R   0.747002 0.449713 0.435501 -0.016594
C41   C     C_R   0.248808 0.434922 0.498073 0.011560
C42   C     C_R   0.818982 0.455285 0.442800 -0.124678
C43   C     C_R   0.177292 0.441815 0.503997 -0.106077
C44   C     C_3   0.389703 0.689746 0.361214 -0.217902
C45   C     C_R   0.814745 0.558755 0.583623 0.007432
C46   C     C_3   0.378037 0.735254 0.242342 -0.352480
C47   C     C_3   0.333679 0.694563 0.144192 -0.420199
C48   C     C_3   0.611266 0.693318 0.634576 -0.228244
C49   C     C_3   0.622716 0.737464 0.755470 -0.340919
C50   C     C_3   0.671288 0.698836 0.847838 -0.462487
C51   C     C_3   0.567576 0.930983 0.711592 -0.231391
C52   C     C_3   0.540888 0.962533 0.832648 -0.272913
C53   C     C_3   0.596932 0.961967 0.936294 -0.432285
C54   C     C_3   0.432193 0.927371 0.286438 -0.229202
C55   C     C_3   0.458413 0.959123 0.164753 -0.272032
C56   C     C_R   0.188307 0.572728 0.537991 0.012485
C57   C     C_3   0.401709 0.957549 0.062166 -0.429338
C58   C     C_3   0.715499 0.389636 0.353725 -0.254254
C59   C     C_3   0.718339 0.315622 0.420291 -0.280683
C60   C     C_3   0.704466 0.252535 0.329668 -0.444044
C61   C     C_3   0.275866 0.358266 0.481042 -0.247107
C62   C     C_3   0.294737 0.344680 0.346689 -0.292656
C63   C     C_3   0.319111 0.266771 0.328862 -0.405310
C64   C     C_3   0.848799 0.619230 0.661023 -0.253305
C65   C     C_3   0.851644 0.599320 0.798849 -0.300959
C66   C     C_3   0.887042 0.659453 0.877000 -0.452972
C67   C     C_R   0.742901 0.552803 0.578017 -0.138470
C68   C     C_3   0.158754 0.647017 0.565216 -0.254447
C69   C     C_3   0.163757 0.698085 0.453378 -0.303919
C70   C     C_3   0.132124 0.772163 0.479069 -0.450386
C71   C     C_R   0.259689 0.566354 0.532799 -0.098486
C72   C     C_R   0.708224 0.500466 0.502610 0.009377
Cu1   Cu    Cu3+1 0.500000 0.573360 0.500000 0.932915
Cu2   Cu    Cu3+1 0.500000 0.426640 0.500000 0.945543
H1    H     H_    0.391455 0.826343 0.455171 0.099053
H2    H     H_    0.738210 0.490764 0.904268 0.106151
H3    H     H_    0.849223 0.417107 0.391528 0.114897
H4    H     H_    0.144288 0.393835 0.492915 0.110883
H5    H     H_    0.713943 0.588621 0.634996 0.101530
H6    H     H_    0.290959 0.614773 0.550473 0.130177
H7    H     H_    0.933935 0.566641 0.342538 0.105634
H8    H     H_    0.060623 0.566669 0.345228 0.111543
H9    H     H_    0.065566 0.455138 0.696910 0.122433
H10   H     H_    0.938857 0.454156 0.693204 0.107306
H11   H     H_    0.363303 0.649266 0.105169 0.214342
H12   H     H_    0.607685 0.829846 0.543637 0.098859
H13   H     H_    0.285960 0.672740 0.184365 0.176326
H14   H     H_    0.319153 0.732443 0.067472 0.145215
H15   H     H_    0.351024 0.786476 0.264147 0.146840
H16   H     H_    0.428353 0.749054 0.202481 0.167847
H17   H     H_    0.404187 0.635316 0.330069 0.235656
H18   H     H_    0.340481 0.685854 0.408606 0.114931
H19   H     H_    0.649321 0.645173 0.873967 0.170999
H20   H     H_    0.722017 0.691066 0.806900 0.149860
H21   H     H_    0.678820 0.732635 0.932901 0.150981
H22   H     H_    0.646340 0.791432 0.735746 0.149244
H23   H     H_    0.546565 0.174637 0.322021 0.113605
H24   H     H_    0.572617 0.745831 0.799122 0.172788
H25   H     H_    0.597521 0.638016 0.664171 0.210701
H26   H     H_    0.659876 0.692868 0.584307 0.125114
H27   H     H_    0.610017 0.904855 0.961751 0.138201
H28   H     H_    0.643994 0.990927 0.906825 0.196504
H29   H     H_    0.578807 0.990870 0.018782 0.141363
H30   H     H_    0.521765 0.019083 0.821410 0.206954
H31   H     H_    0.496636 0.928550 0.861252 0.142087
H32   H     H_    0.555331 0.872367 0.717210 0.127467
H33   H     H_    0.624479 0.936705 0.708371 0.172785
H34   H     H_    0.450656 0.173166 0.674115 0.118820
H35   H     H_    0.388410 0.900182 0.036145 0.138688
H36   H     H_    0.354851 0.985250 0.092912 0.199030
H37   H     H_    0.419287 0.987205 0.979729 0.142288
H38   H     H_    0.478181 0.015966 0.175708 0.207247
H39   H     H_    0.502196 0.925810 0.135039 0.140239
H40   H     H_    0.445274 0.869297 0.281796 0.126231
H41   H     H_    0.375228 0.930766 0.289716 0.173619
H42   H     H_    0.700421 0.200489 0.381707 0.172813
H43   H     H_    0.655782 0.260920 0.274432 0.144093
H44   H     H_    0.747355 0.248271 0.265430 0.155041
H45   H     H_    0.546688 0.309577 0.326691 0.127493
H46   H     H_    0.769927 0.307709 0.466550 0.167681
H47   H     H_    0.679350 0.314147 0.492578 0.201593
H48   H     H_    0.661672 0.401030 0.323042 0.162080
H49   H     H_    0.744569 0.386719 0.267375 0.134791
H50   H     H_    0.333229 0.258858 0.231261 0.190982
H51   H     H_    0.365069 0.256218 0.390504 0.195405
H52   H     H_    0.277568 0.227100 0.349968 0.181852
H53   H     H_    0.249067 0.354273 0.283496 0.185045
H54   H     H_    0.336447 0.382447 0.320543 0.236425
H55   H     H_    0.319438 0.347123 0.547724 0.180792
H56   H     H_    0.451350 0.308059 0.671686 0.141666
H57   H     H_    0.235770 0.317254 0.504434 0.130639
H58   H     H_    0.940967 0.667572 0.849242 0.155212
H59   H     H_    0.858767 0.711564 0.865456 0.150412
H60   H     H_    0.887759 0.643704 0.976293 0.141911
H61   H     H_    0.798663 0.591152 0.830727 0.153151
H62   H     H_    0.880206 0.547635 0.813536 0.163069
H63   H     H_    0.901730 0.631090 0.631165 0.155136
H64   H     H_    0.819319 0.670456 0.646508 0.131038
H65   H     H_    0.076676 0.765496 0.497990 0.151963
H66   H     H_    0.159367 0.798797 0.559955 0.155990
H67   H     H_    0.630403 0.514001 0.237191 0.114987
H68   H     H_    0.136859 0.807995 0.396931 0.147489
H69   H     H_    0.218535 0.706718 0.431388 0.154860
H70   H     H_    0.136383 0.673179 0.371049 0.163848
H71   H     H_    0.104209 0.642606 0.591096 0.155264
H72   H     H_    0.187688 0.671313 0.646601 0.148763
H73   H     H_    0.630222 0.490153 0.780802 0.114472
H74   H     H_    0.738633 0.506167 0.131653 0.108185
N1    N     N_R   0.500000 0.683620 0.500000 -0.214517
N2    N     N_R   0.500000 0.316380 0.500000 -0.233558
O1    O     O_R   0.400190 0.561980 0.499980 -0.516260
O2    O     O_R   0.599810 0.561980 0.500020 -0.532585
O3    O     O_R   0.400190 0.438070 0.500040 -0.497532
O4    O     O_R   0.599810 0.438070 0.499960 -0.506618
O5    O     O_R   0.500000 0.561970 0.319650 -0.509092
O6    O     O_R   0.500000 0.561970 0.680350 -0.502707
O7    O     O_R   0.500010 0.438060 0.319710 -0.501038
O8    O     O_R   0.499990 0.438060 0.680290 -0.493313

loop_
_geom_bond_atom_site_label_1
_geom_bond_atom_site_label_2
_ccdc_geom_bond_type
C6    C23   S    
C65   H61   S    
C3    C6    A    
C53   H27   S    
C17   C22   A    
C48   H25   S    
C45   C64   S    
C11   C14   A    
C30   C33   A    
C69   C70   S    
C52   H31   S    
C25   H34   S    
Br3   C19   S    
C31   C32   A    
C14   C22   S    
C51   C52   S    
C59   H46   S    
C3    C4    A    
C49   C50   S    
C61   C62   S    
C29   C35   A    
C69   H69   S    
C44   H17   S    
C25   C28   A    
Cu1   O2    S    
C1    C2    S    
Br4   C20   S    
C71   H6    S    
C56   C68   S    
C60   H43   S    
C54   H40   S    
C52   C53   S    
C15   O7    A    
C43   H4    S    
C40   C72   A    
C52   H30   S    
C47   H13   S    
C64   C65   S    
C24   H23   S    
Cu2   O4    S    
C10   C48   S    
C7    H9    S    
C4    C5    A    
C57   H37   S    
C50   H19   S    
C64   H64   S    
Br2   C39   S    
C67   H5    S    
Cu1   Cu2   S    
Cu1   N1    S    
C65   H62   S    
C44   C46   S    
C62   C63   S    
C55   H39   S    
C66   H58   S    
C37   C39   A    
C10   C13   A    
C31   H74   S    
C63   H51   S    
C27   H56   S    
C6    C8    A    
C40   C42   A    
C16   C37   S    
C62   H54   S    
C41   C43   A    
C49   H22   S    
C11   H1    S    
C55   C57   S    
C8    H10   S    
C69   H70   S    
C12   O4    A    
C2    C71   A    
C20   C21   A    
C32   H2    S    
C35   C36   A    
C58   H48   S    
C55   H38   S    
C40   C58   S    
C54   C55   S    
C1    O1    A    
Cu2   N2    S    
C12   O2    A    
C58   C59   S    
C47   H14   S    
C42   H3    S    
Br1   C38   S    
Cu2   O3    S    
C24   C28   A    
C49   H24   S    
C7    C8    A    
C16   O8    A    
C13   C14   A    
C64   H63   S    
C46   C47   S    
C61   H57   S    
C5    C7    A    
C9    N1    A    
C34   C43   A    
C59   H47   S    
C29   H67   S    
Cu1   O5    S    
C34   C56   A    
C23   C42   A    
C53   H29   S    
Cu2   O8    S    
C68   H72   S    
C17   C19   A    
C10   N1    A    
C41   C61   S    
C18   C20   A    
C50   H21   S    
C63   H52   S    
C38   C39   A    
C67   C72   A    
C27   N2    A    
C48   C49   S    
C17   C51   S    
C62   H53   S    
C70   H66   S    
C48   H26   S    
C44   H18   S    
C51   H33   S    
C12   C72   S    
C70   H68   S    
C46   H16   S    
C13   H12   S    
C68   C69   S    
C18   C54   S    
C9    C44   S    
C30   H73   S    
C46   H15   S    
C66   H60   S    
C2    C41   A    
C56   C71   A    
C1    O3    A    
C60   H42   S    
C15   O5    A    
C9    C11   A    
C24   C26   A    
C25   C27   A    
C63   H50   S    
C47   H11   S    
C57   H35   S    
C4    H8    S    
C3    H7    S    
C45   C67   A    
C21   C28   S    
C60   H44   S    
C36   C38   A    
C5    C34   S    
C29   C31   A    
C30   C32   A    
C53   H28   S    
C70   H65   S    
C19   C21   A    
C33   C37   A    
C65   C66   S    
C61   H55   S    
C15   C36   S    
Cu1   O6    S    
C18   C22   A    
C59   C60   S    
C51   H32   S    
C58   H49   S    
C26   N2    A    
C54   H41   S    
C26   H45   S    
C66   H59   S    
C33   C35   A    
C68   H71   S    
C16   O6    A    
C57   H36   S    
Cu2   O7    S    
C50   H20   S    
Cu1   O1    S    
C23   C45   A    
