data_mof_unit_45989.cif
_audit_creation_date              2012-12-11T15:53:30-0500
_audit_creation_method            fapswitch 2.2
_symmetry_space_group_name_H-M    P1
_symmetry_Int_Tables_number       1
_space_group_crystal_system       triclinic
_cell_length_a                    6.927147
_cell_length_b                    14.530298
_cell_length_c                    16.003435
_cell_angle_alpha                 90.532877
_cell_angle_beta                  89.42642
_cell_angle_gamma                 90.250052
_cell_volume                      1610.63683767

loop_
_atom_site_label
_atom_site_type_symbol
_atom_type_description
_atom_site_fract_x
_atom_site_fract_y
_atom_site_fract_z
_atom_type_partial_charge
O1    O     O_R   0.361600 0.167310 0.164620 -0.541739
O2    O     O_R   0.638400 0.832690 0.835380 -0.541752
O3    O     O_R   0.691080 0.157570 0.338750 -0.544825
O4    O     O_R   0.308920 0.842430 0.661250 -0.544812
O5    O     O_R   0.861410 0.336420 0.339360 -0.548451
O6    O     O_R   0.138590 0.663580 0.660640 -0.548448
C1    C     C_R   0.520384 0.135075 0.367266 0.720953
C2    C     C_R   0.479619 0.864925 0.632733 0.720930
O7    O     O_R   0.691320 0.156280 0.165240 -0.508328
O8    O     O_R   0.308680 0.843720 0.834760 -0.508312
O9    O     O_R   0.861640 0.335130 0.164600 -0.529804
O10   O     O_R   0.138360 0.664870 0.835400 -0.529789
C3    C     C_R   0.522994 0.133384 0.136425 0.780084
C4    C     C_R   0.477006 0.866616 0.863575 0.780027
O11   O     O_R   0.361370 0.168600 0.339370 -0.542186
O12   O     O_R   0.638630 0.831400 0.660630 -0.542224
O13   O     O_3   0.527990 0.310540 0.251980 -0.367726
O14   O     O_3   0.472010 0.689460 0.748020 -0.367755
V1    V     V_3+5 0.802830 0.240980 0.251990 1.506399
V2    V     V_3+5 0.197170 0.759020 0.748010 1.506397
O15   O     O_R   0.191360 0.346160 0.165220 -0.523833
O16   O     O_R   0.808640 0.653840 0.834780 -0.523935
C5    C     C_R   0.024092 0.367186 0.135228 0.704865
C6    C     C_R   0.975915 0.632806 0.864763 0.704851
O17   O     O_R   0.191130 0.347440 0.338740 -0.549114
O18   O     O_R   0.808870 0.652560 0.661260 -0.549112
C7    C     C_R   0.022004 0.369673 0.367650 0.652588
C8    C     C_R   0.977996 0.630327 0.632350 0.652590
V3    V     V_3+5 0.302840 0.262750 0.251990 1.489084
V4    V     V_3+5 0.697160 0.737250 0.748010 1.488980
O19   O     O_3   0.027820 0.193180 0.251990 -0.358198
O20   O     O_3   0.972180 0.806820 0.748010 -0.358203
C9    C     C_3   0.920734 0.420047 0.524289 -0.140256
C10   C     C_3   0.079266 0.579952 0.475711 -0.140253
C11   C     C_3   0.095285 0.468145 0.566341 -0.136687
C12   C     C_3   0.904715 0.531855 0.433659 -0.136686
H1    H     H_    0.173790 0.442259 0.621439 0.112979
H2    H     H_    0.826210 0.557740 0.378561 0.112966
H3    H     H_    0.855320 0.353685 0.543881 0.108086
H4    H     H_    0.144680 0.646315 0.456119 0.108087
C13   C     C_3   0.988722 0.560704 0.562100 -0.004223
C14   C     C_3   0.011278 0.439296 0.437900 -0.004227
C15   C     C_3   0.813940 0.513395 0.520829 -0.117206
C16   C     C_3   0.186060 0.486605 0.479171 -0.117209
H5    H     H_    0.660316 0.524638 0.538341 0.108223
H6    H     H_    0.339684 0.475362 0.461659 0.108220
C17   C     C_R   0.842079 0.560845 0.998867 0.011645
C18   C     C_R   0.157957 0.439146 0.001114 0.011578
C19   C     C_R   0.861623 0.497177 0.063802 -0.142914
C20   C     C_R   0.138395 0.502810 0.936177 -0.142717
H7    H     H_    0.753880 0.495956 0.113429 0.154574
H8    H     H_    0.246145 0.504037 0.886551 0.154705
C21   C     C_R   0.017178 0.435519 0.066131 -0.143273
C22   C     C_R   0.982847 0.564471 0.933854 -0.143287
C23   C     C_R   0.667398 0.051485 0.485808 -0.197443
C24   C     C_R   0.332617 0.948510 0.514184 -0.197475
H9    H     H_    0.798133 0.091274 0.476275 0.151737
H10   H     H_    0.201878 0.908722 0.523716 0.151764
C25   C     C_R   0.664519 0.985292 0.548619 0.361511
C26   C     C_R   0.335505 0.014700 0.451369 0.361501
C27   C     C_R   0.494055 0.933389 0.564362 -0.195910
C28   C     C_R   0.505958 0.066608 0.435632 -0.195882
C29   C     C_R   0.670815 0.006046 0.047340 0.367565
C30   C     C_R   0.329184 0.993952 0.952661 0.367587
C31   C     C_R   0.655291 0.942693 0.980528 -0.304055
C32   C     C_R   0.344709 0.057305 0.019473 -0.304010
H11   H     H_    0.775828 0.897697 0.966417 0.159512
H12   H     H_    0.224171 0.102302 0.033584 0.159424
C33   C     C_R   0.486283 0.935664 0.932908 -0.120950
C34   C     C_R   0.513717 0.064335 0.067093 -0.120935
C35   C     C_2   0.677370 0.624944 0.004172 0.736264
O21   O     O_2   0.548069 0.620365 0.952866 -0.553836
O22   O     O_R   0.665861 0.687819 0.070613 -0.668209
H13   H     H_    0.546220 0.727632 0.068101 0.292703
C36   C     C_2   0.322737 0.375088 0.995803 0.736289
O23   O     O_2   0.451737 0.379506 0.047241 -0.553794
O24   O     O_R   0.334704 0.312463 0.929197 -0.668239
H14   H     H_    0.454351 0.272664 0.931717 0.292737
O25   O     O_3   0.828584 0.975413 0.595130 -0.630048
H15   H     H_    0.875875 0.912293 0.583508 0.291876
O26   O     O_3   0.171449 0.024588 0.404856 -0.630021
H16   H     H_    0.124085 0.087678 0.416545 0.291846
O27   O     O_3   0.836553 0.010531 0.094607 -0.634964
H17   H     H_    0.931153 0.964970 0.072890 0.293566
O28   O     O_3   0.163446 0.989467 0.905395 -0.634965
H18   H     H_    0.068845 0.035027 0.927113 0.293528

loop_
_geom_bond_atom_site_label_1
_geom_bond_atom_site_label_2
_ccdc_geom_bond_type
C32   H12   S    
C29   C31   A    
O11   V3    S    
C23   C25   A    
O13   V3    S    
O22   H13   S    
C12   C14   S    
O4    C2    A    
V1    O19   S    
O26   H16   S    
C17   C19   A    
O24   H14   S    
O9    V1    S    
C9    H3    S    
C10   H4    S    
C9    C14   S    
C11   H1    S    
O3    C1    A    
C31   C33   A    
C3    C34   S    
O12   V4    S    
C23   C28   A    
C8    C13   S    
C26   C28   A    
O7    C3    A    
O13   V1    S    
O5    C7    A    
O7    V1    S    
O6    C8    A    
O8    V2    S    
C19   H7    S    
C20   H8    S    
O3    V1    S    
O14   V4    S    
C10   C12   S    
C2    C27   S    
C18   C20   A    
C2    O12   A    
C13   C15   S    
C18   C36   S    
C10   C13   S    
C14   C16   S    
O2    C4    A    
C16   H6    S    
C5    C21   S    
O17   V3    S    
C18   C21   A    
C25   C27   A    
C9    C15   S    
C10   C16   S    
O8    C4    A    
C25   O25   S    
C35   O22   S    
C1    O11   A    
C31   H11   S    
O28   H18   S    
O15   V3    S    
C24   C26   A    
C29   O27   S    
C30   C32   A    
C36   O23   D    
C1    C28   S    
C36   O24   S    
C26   O26   S    
O27   H17   S    
C29   C34   A    
O10   V2    S    
O1    V3    S    
C20   C22   A    
C30   C33   A    
C11   C16   S    
C15   H5    S    
C17   C35   S    
C17   C22   A    
O18   V4    S    
C23   H9    S    
C4    C33   S    
O16   C6    A    
O1    C3    A    
C12   H2    S    
C30   O28   S    
V2    O20   S    
O16   V4    S    
O5    V1    S    
O17   C7    A    
O6    V2    S    
O10   C6    A    
O18   C8    A    
O2    V4    S    
O15   C5    A    
C35   O21   D    
V3    O19   S    
V4    O20   S    
C7    C14   S    
C32   C34   A    
C19   C21   A    
O9    C5    A    
C9    C11   S    
C24   H10   S    
O14   V2    S    
C11   C13   S    
O25   H15   S    
O4    V2    S    
C24   C27   A    
C12   C15   S    
C6    C22   S    
