data_mof_unit_12473.cif
_audit_creation_date              2012-12-10T17:47:48-0500
_audit_creation_method            fapswitch 2.2
_symmetry_space_group_name_H-M    P1
_symmetry_Int_Tables_number       1
_space_group_crystal_system       triclinic
_cell_length_a                    14.709135
_cell_length_b                    14.56732
_cell_length_c                    14.346763
_cell_angle_alpha                 78.064432
_cell_angle_beta                  102.283531
_cell_angle_gamma                 114.363652
_cell_volume                      2711.66244569

loop_
_atom_site_label
_atom_site_type_symbol
_atom_type_description
_atom_site_fract_x
_atom_site_fract_y
_atom_site_fract_z
_atom_type_partial_charge
C1    C     C_R   0.880440 0.311975 0.514859 0.805564
C2    C     C_R   0.119560 0.688025 0.485141 0.805563
C3    C     C_R   0.639961 0.076927 0.510288 0.064418
C4    C     C_R   0.360039 0.923073 0.489715 0.064418
C5    C     C_R   0.678635 0.998852 0.529771 0.146509
C6    C     C_R   0.321364 0.001149 0.470233 0.146508
C7    C     C_R   0.533530 0.051791 0.494364 0.082656
C8    C     C_R   0.466469 0.948209 0.505639 0.082656
C9    C     C_R   0.508068 0.873061 0.534423 -0.256469
C10   C     C_R   0.491932 0.126939 0.465582 -0.256468
C11   C     C_R   0.610970 0.897680 0.544464 -0.148817
C12   C     C_R   0.389029 0.102321 0.455541 -0.148817
C13   C     C_R   0.723104 0.677619 0.353770 -0.226387
C14   C     C_R   0.276896 0.322381 0.646230 -0.226383
C15   C     C_R   0.800407 0.642195 0.374485 0.066106
C16   C     C_R   0.199593 0.357805 0.625515 0.066105
C17   C     C_R   0.713565 0.508686 0.488062 0.025397
C18   C     C_R   0.286436 0.491314 0.511938 0.025396
C19   C     C_R   0.629889 0.538279 0.467553 -0.038440
C20   C     C_R   0.370111 0.461721 0.532448 -0.038440
C21   C     C_R   0.638634 0.629098 0.402986 0.144209
C22   C     C_R   0.361366 0.370902 0.597015 0.144207
C23   C     C_R   0.999942 0.500047 0.668858 0.813604
C24   C     C_R   0.000058 0.499953 0.331142 0.813604
C25   C     C_R   0.539382 0.481460 0.509630 0.078569
C26   C     C_R   0.460618 0.518540 0.490371 0.078568
C27   C     C_R   0.475732 0.612890 0.432012 -0.320901
C28   C     C_R   0.524269 0.387110 0.567989 -0.320903
C29   C     C_R   0.562447 0.668111 0.388645 0.012888
C30   C     C_R   0.437554 0.331890 0.611356 0.012889
C31   C     C_1   0.999774 0.500065 0.771155 -0.192668
C32   C     C_1   0.000226 0.499935 0.228845 -0.192669
C33   C     C_1   0.999794 0.500049 0.856577 -0.002873
C34   C     C_1   0.000206 0.499951 0.143423 -0.002873
C35   C     C_1   0.999929 0.500016 0.957273 0.008734
C36   C     C_1   0.000071 0.499984 0.042727 0.008734
C37   C     C_R   0.812873 0.203796 0.521491 -0.056879
C38   C     C_R   0.187127 0.796204 0.478511 -0.056880
C39   C     C_R   0.784617 0.024861 0.539299 0.016403
C40   C     C_R   0.215383 0.975139 0.460705 0.016403
C41   C     C_R   0.850150 0.127273 0.535773 -0.279554
C42   C     C_R   0.149849 0.872727 0.464230 -0.279551
C43   C     C_R   0.709112 0.178100 0.510250 -0.245678
C44   C     C_R   0.290887 0.821900 0.489752 -0.245678
Cu1   Cu    Cu3+1 0.081740 0.475690 0.523180 0.941656
Cu2   Cu    Cu3+1 0.918260 0.524310 0.476820 0.941656
H1    H     H_    0.463494 0.793565 0.552250 0.145833
H2    H     H_    0.536505 0.206436 0.447754 0.145832
N1    N     N_R   0.795420 0.560790 0.441960 -0.173406
N2    N     N_R   0.204580 0.439210 0.558040 -0.173406
O1    O     O_R   0.977910 0.338120 0.530560 -0.579323
O2    O     O_R   0.022090 0.661880 0.469440 -0.579323
O3    O     O_R   0.839850 0.379180 0.491410 -0.589083
O4    O     O_R   0.160150 0.620820 0.508590 -0.589082
O5    O     O_R   0.069040 0.479460 0.643530 -0.562366
O6    O     O_R   0.930960 0.520540 0.356470 -0.562366
O7    O     O_R   0.930990 0.520530 0.604380 -0.555768
O8    O     O_R   0.069010 0.479470 0.395620 -0.555767
H3    H     H_    0.636355 0.835762 0.568032 0.196162
H4    H     H_    0.363645 0.164239 0.431975 0.196160
H5    H     H_    0.422003 0.648063 0.421044 0.119277
H6    H     H_    0.577998 0.351937 0.578958 0.119277
H7    H     H_    0.315833 0.760997 0.495462 0.148315
H8    H     H_    0.684167 0.239003 0.504539 0.148315
H9    H     H_    0.069239 0.852527 0.457156 0.159667
H10   H     H_    0.930761 0.147473 0.542847 0.159667
C45   C     C_2   0.832031 0.949869 0.551112 0.343413
H11   H     H_    0.908581 0.967711 0.588172 0.072246
O9    O     O_2   0.789829 0.871176 0.515038 -0.516259
C46   C     C_2   0.167969 0.050131 0.448893 0.343406
H12   H     H_    0.091420 0.032292 0.411830 0.072245
O10   O     O_2   0.210169 0.128821 0.484973 -0.516255
C47   C     C_2   0.569654 0.768113 0.331916 0.359517
H13   H     H_    0.501251 0.778916 0.296027 0.063849
O11   O     O_2   0.649937 0.840909 0.329627 -0.508421
C48   C     C_2   0.430348 0.231889 0.668088 0.359519
H14   H     H_    0.498753 0.221087 0.703978 0.063848
O12   O     O_2   0.350066 0.159093 0.670379 -0.508420
H15   H     H_    0.282533 0.553225 0.457728 0.123473
H16   H     H_    0.717467 0.446776 0.542272 0.123473
H17   H     H_    0.133954 0.318764 0.662097 0.128749
H18   H     H_    0.866046 0.681235 0.337903 0.128749
H19   H     H_    0.730463 0.742017 0.298563 0.186082
H20   H     H_    0.269537 0.257983 0.701437 0.186085

loop_
_geom_bond_atom_site_label_1
_geom_bond_atom_site_label_2
_ccdc_geom_bond_type
C7    C10   A    
C27   C29   A    
C47   H13   S    
C35   C36   T    
C14   H20   S    
C4    C8    A    
C7    C8    A    
C39   C41   A    
Cu1   Cu2   S    
C25   C28   A    
Cu2   N1    S    
C3    C43   A    
C26   C27   A    
C40   C46   S    
C19   C21   A    
C48   O12   D    
C5    C11   A    
C3    C7    A    
C6    C12   A    
C29   C47   S    
Cu1   O1    S    
Cu2   O2    S    
C1    O3    A    
C27   H5    S    
C33   C35   S    
C8    C9    A    
C42   H9    S    
C31   C33   T    
C46   H12   S    
C34   C36   S    
C1    C37   S    
C9    C11   A    
C40   C42   A    
C47   O11   D    
C11   H3    S    
C10   C12   A    
C43   H8    S    
C15   H18   S    
C44   H7    S    
Cu1   O8    S    
C45   H11   S    
C6    C40   A    
C48   H14   S    
C4    C6    A    
C2    O4    A    
C17   N1    A    
C18   H15   S    
C4    C44   A    
C25   C26   A    
C21   C29   A    
C17   H16   S    
C45   O9    D    
C23   C31   S    
C37   C43   A    
C24   C32   S    
C38   C44   A    
C30   C48   S    
C2    C38   S    
C13   C21   A    
C1    O1    A    
C2    O2    A    
C20   C22   A    
Cu1   O4    S    
C9    H1    S    
C13   C15   A    
Cu2   O7    S    
C10   H2    S    
C14   C16   A    
C18   N2    A    
C23   O7    A    
C5    C39   A    
C22   C30   A    
C39   C45   S    
C16   N2    A    
C3    C5    A    
C23   O5    A    
C41   H10   S    
C24   O6    A    
C13   H19   S    
C14   C22   A    
C28   C30   A    
C20   C26   A    
Cu1   N2    S    
Cu2   O3    S    
C16   H17   S    
C17   C19   A    
C18   C20   A    
C15   N1    A    
C37   C41   A    
C19   C25   A    
C12   H4    S    
C38   C42   A    
Cu1   O5    S    
C24   O8    A    
Cu2   O6    S    
C46   O10   D    
C32   C34   T    
C28   H6    S    
