data_mof_unit_25451.cif
_audit_creation_date              2012-12-11T14:17:58-0500
_audit_creation_method            fapswitch 2.2
_symmetry_space_group_name_H-M    P1
_symmetry_Int_Tables_number       1
_space_group_crystal_system       triclinic
_cell_length_a                    11.045814
_cell_length_b                    11.070838
_cell_length_c                    18.852394
_cell_angle_alpha                 89.971771
_cell_angle_beta                  89.885448
_cell_angle_gamma                 119.924552
_cell_volume                      1998.03700679

loop_
_atom_site_label
_atom_site_type_symbol
_atom_type_description
_atom_site_fract_x
_atom_site_fract_y
_atom_site_fract_z
_atom_type_partial_charge
C1    C     C_R   0.521153 0.453415 0.145414 0.527080
C2    C     C_R   0.088748 0.465666 0.524424 0.071152
C3    C     C_R   0.391358 0.937261 0.526645 0.071789
C4    C     C_R   0.548071 0.624684 0.526244 0.075121
C5    C     C_R   0.748747 0.149906 0.604306 -0.083775
C6    C     C_R   0.862802 0.604070 0.592354 -0.086046
C7    C     C_R   0.398974 0.258943 0.593843 -0.085551
C8    C     C_R   0.921611 0.700683 0.453896 -0.077150
C9    C     C_R   0.803177 0.141462 0.461779 -0.099992
C10   C     C_R   0.303581 0.222189 0.455418 -0.085327
C11   C     C_R   0.876029 0.165438 0.583816 -0.105115
C12   C     C_R   0.546328 0.067575 0.145389 0.613487
C13   C     C_R   0.852602 0.719118 0.573010 -0.103969
C14   C     C_R   0.283927 0.133966 0.574313 -0.104430
C15   C     C_R   0.885481 0.769970 0.504200 -0.133669
C16   C     C_R   0.900482 0.153921 0.512641 -0.133024
C17   C     C_R   0.233764 0.116803 0.505534 -0.137559
C18   C     C_R   0.518377 0.450396 0.355238 0.574374
C19   C     C_R   0.577517 0.120107 0.361587 0.568993
C20   C     C_R   0.933470 0.482547 0.354696 0.580300
C21   C     C_R   0.458708 0.521195 0.646261 0.517413
C22   C     C_R   0.065233 0.543540 0.645439 0.520799
C23   C     C_R   0.932375 0.478750 0.145446 0.581291
C24   C     C_R   0.480634 0.939357 0.647166 0.521052
C25   C     C_R   0.495083 0.008161 0.922013 0.017860
C26   C     C_R   0.992807 0.488253 0.922336 0.015311
C27   C     C_R   0.510945 0.503162 0.922342 -0.006538
C28   C     C_R   0.973142 0.493102 0.070600 0.013902
C29   C     C_R   0.520027 0.027729 0.070367 0.035463
C30   C     C_R   0.504951 0.479493 0.070731 -0.005109
C31   C     C_R   0.376339 0.981759 0.964567 0.038194
C32   C     C_R   0.018029 0.394985 0.964679 0.042397
C33   C     C_R   0.603160 0.620956 0.964709 0.030918
C34   C     C_R   0.459974 0.520226 0.852559 0.549054
C35   C     C_R   0.029513 0.415639 0.039543 0.027170
C36   C     C_R   0.385864 0.970651 0.039482 0.026659
C37   C     C_R   0.579648 0.613095 0.039386 0.008377
C38   C     C_R   0.638487 0.082519 0.026334 -0.161138
C39   C     C_R   0.920315 0.558768 0.026940 -0.160700
C40   C     C_R   0.440607 0.360880 0.027112 -0.144528
C41   C     C_R   0.937037 0.562562 0.954469 -0.168128
C42   C     C_R   0.625541 0.066730 0.953764 -0.164296
C43   C     C_R   0.437511 0.373332 0.954502 -0.152334
C44   C     C_R   0.248649 0.964594 0.936606 0.124406
C45   C     C_R   0.060271 0.539806 0.852528 0.569546
C46   C     C_R   0.033431 0.283392 0.936802 0.123875
C47   C     C_R   0.716866 0.746229 0.936786 0.130069
C48   C     C_R   0.093648 0.355414 0.080546 0.106425
C49   C     C_R   0.261383 0.905583 0.080569 0.104869
C50   C     C_R   0.637268 0.738729 0.079475 0.113248
C51   C     C_R   0.130256 0.911158 0.979847 -0.150458
C52   C     C_R   0.084303 0.216573 0.980324 -0.149714
C53   C     C_R   0.780458 0.864796 0.979290 -0.123357
C54   C     C_R   0.117137 0.254056 0.050616 -0.136748
C55   C     C_R   0.135678 0.879814 0.050452 -0.142541
C56   C     C_R   0.479469 0.940010 0.852448 0.572808
C57   C     C_R   0.739713 0.862024 0.049030 -0.104452
C58   C     C_R   0.499804 0.003488 0.577692 -0.001670
C59   C     C_R   0.014046 0.504545 0.572870 0.000063
C60   C     C_R   0.502443 0.509594 0.574458 -0.003654
C61   C     C_R   0.983512 0.513510 0.426995 0.019246
C62   C     C_R   0.553326 0.070640 0.434403 0.015386
C63   C     C_R   0.492016 0.470395 0.428339 0.014232
C64   C     C_R   0.637117 0.095411 0.555438 0.002652
C65   C     C_R   0.929607 0.555075 0.546311 -0.000355
C66   C     C_R   0.449808 0.374746 0.547735 0.001995
C67   C     C_R   0.417467 0.974715 0.455836 0.132454
C68   C     C_R   0.939362 0.586335 0.473913 0.008377
C69   C     C_R   0.666407 0.109287 0.482494 -0.016175
C70   C     C_R   0.418226 0.353873 0.475358 0.006225
C71   C     C_R   0.065981 0.462432 0.451989 0.107378
C72   C     C_R   0.551568 0.604860 0.453873 0.113495
Cr1   Cr    Cr6+3 0.768550 0.541320 0.250660 0.996466
Cr2   Cr    Cr6+3 0.458680 0.227230 0.250660 1.005950
Cr3   Cr    Cr6+3 0.772770 0.231450 0.250660 1.010339
Cr4   Cr    Cr6+3 0.541320 0.768550 0.749340 0.974598
Cr5   Cr    Cr6+3 0.227230 0.458680 0.749340 0.990741
Cr6   Cr    Cr6+3 0.231450 0.772770 0.749340 0.993727
H1    H     H_    0.743087 0.136687 0.048085 0.141105
H2    H     H_    0.159772 0.202816 0.082470 0.125975
H3    H     H_    0.041639 0.836103 0.082365 0.125790
H4    H     H_    0.789139 0.956753 0.080066 0.138798
H5    H     H_    0.732137 0.159228 0.660216 0.125210
H6    H     H_    0.839109 0.568432 0.646826 0.118476
H7    H     H_    0.434143 0.270574 0.648327 0.119994
H8    H     H_    0.950404 0.749746 0.402503 0.143853
H9    H     H_    0.835784 0.144850 0.407840 0.164983
H10   H     H_    0.254582 0.201320 0.404140 0.144552
H11   H     H_    0.954030 0.183682 0.623403 0.114364
H12   H     H_    0.867328 0.610384 0.048898 0.148679
H13   H     H_    0.825930 0.772088 0.612761 0.108792
H14   H     H_    0.231184 0.053019 0.613554 0.113699
H15   H     H_    0.883481 0.863599 0.489974 0.102271
H16   H     H_    0.998033 0.161692 0.496721 0.110511
H17   H     H_    0.141127 0.021231 0.490792 0.101868
H18   H     H_    0.211260 0.089656 0.872076 0.190625
H19   H     H_    0.159188 0.931311 0.839761 0.258293
H20   H     H_    0.908954 0.121854 0.872013 0.195573
H21   H     H_    0.067891 0.228289 0.839898 0.248643
H22   H     H_    0.749517 0.652718 0.849334 0.232939
H23   H     H_    0.390172 0.256575 0.049174 0.145419
H24   H     H_    0.774428 0.816708 0.835522 0.257218
H25   H     H_    0.252709 0.447947 0.150151 0.233259
H26   H     H_    0.103768 0.317432 0.184797 0.241185
H27   H     H_    0.198056 0.746851 0.150403 0.249279
H28   H     H_    0.211844 0.894046 0.184764 0.237835
H29   H     H_    0.482536 0.665374 0.155898 0.234505
H30   H     H_    0.650571 0.754617 0.187137 0.254884
H31   H     H_    0.223103 0.909423 0.416039 0.233773
H32   H     H_    0.280761 0.794451 0.406317 0.251408
H33   H     H_    0.247413 0.492511 0.409040 0.255787
H34   H     H_    0.911226 0.628463 0.923573 0.163622
H35   H     H_    0.119023 0.323473 0.413302 0.230258
H36   H     H_    0.528461 0.760478 0.410904 0.259545
H37   H     H_    0.695958 0.796651 0.416890 0.243777
H38   H     H_    0.270872 0.532654 0.571873 0.244054
H39   H     H_    0.158676 0.355842 0.579182 0.274934
H40   H     H_    0.272025 0.743735 0.565995 0.240829
H41   H     H_    0.203551 0.851209 0.577703 0.272121
H42   H     H_    0.655682 0.804535 0.582342 0.273483
H43   H     H_    0.480490 0.744079 0.569988 0.246650
H44   H     H_    0.717663 0.096789 0.922344 0.147286
H45   H     H_    0.374871 0.281425 0.923400 0.145523
H46   H     H_    0.032732 0.892906 0.957863 0.132986
H47   H     H_    0.098799 0.134613 0.959182 0.100137
H48   H     H_    0.863934 0.960232 0.958063 0.107198
N1    N     N_3   0.240464 0.013896 0.867255 -0.604962
N2    N     N_3   0.198470 0.442527 0.546056 -0.627906
N3    N     N_3   0.257270 0.821004 0.543287 -0.633409
N4    N     N_3   0.572471 0.758576 0.547205 -0.625104
N5    N     N_3   0.984758 0.226721 0.867360 -0.606704
N6    N     N_3   0.786678 0.751546 0.871367 -0.666105
N7    N     N_3   0.144241 0.403617 0.150777 -0.603815
N8    N     N_3   0.259691 0.855401 0.150910 -0.587360
N9    N     N_3   0.582848 0.749142 0.147072 -0.597085
N10   N     N_3   0.310223 0.900013 0.403944 -0.574182
N11   N     N_3   0.140427 0.424528 0.402475 -0.610037
N12   N     N_3   0.594546 0.718834 0.404843 -0.600160
O1    O     O_R   0.910960 0.572410 0.171010 -0.540676
O2    O     O_R   0.528530 0.639750 0.824400 -0.502990
O3    O     O_R   0.111220 0.471470 0.824400 -0.466458
O4    O     O_R   0.360250 0.888780 0.824400 -0.467802
O5    O     O_R   0.909330 0.572400 0.331540 -0.545669
O6    O     O_R   0.427600 0.336930 0.331540 -0.554797
O7    O     O_R   0.663070 0.090670 0.331540 -0.533386
O8    O     O_R   0.572400 0.909330 0.668460 -0.538570
O9    O     O_R   0.336930 0.427600 0.668460 -0.534605
O10   O     O_R   0.090670 0.663070 0.668460 -0.535758
O11   O     O_R   0.638240 0.528520 0.324410 -0.475936
O12   O     O_R   0.427590 0.338550 0.171010 -0.537165
O13   O     O_R   0.471480 0.109720 0.324410 -0.457255
O14   O     O_R   0.890280 0.361760 0.324410 -0.501235
O15   O     O_R   0.528520 0.638240 0.675590 -0.522224
O16   O     O_R   0.109720 0.471480 0.675590 -0.517838
O17   O     O_R   0.361760 0.890280 0.675590 -0.517064
O18   O     O_3   0.666667 0.333333 0.250630 -0.288487
O19   O     O_3   0.333333 0.666667 0.749370 -0.248789
O20   O     O_R   0.661450 0.089040 0.171010 -0.515231
O21   O     O_R   0.572410 0.910960 0.828990 -0.528473
O22   O     O_R   0.338550 0.427590 0.828990 -0.522443
O23   O     O_R   0.089040 0.661450 0.828990 -0.528064
O24   O     O_R   0.639750 0.528530 0.175600 -0.504586
O25   O     O_R   0.471470 0.111220 0.175600 -0.485276
O26   O     O_R   0.888780 0.360250 0.175600 -0.483564

loop_
_geom_bond_atom_site_label_1
_geom_bond_atom_site_label_2
_ccdc_geom_bond_type
C25   C31   A    
C49   N8    S    
C44   N1    S    
C26   C32   A    
C12   C29   S    
H32   N10   S    
C14   C17   A    
C25   C56   S    
H43   N4    S    
H19   N1    S    
C2    N2    S    
C39   C41   A    
C7    H7    S    
C27   C33   A    
C48   C54   A    
C29   C36   A    
C10   H10   S    
C19   O7    A    
C62   C67   A    
H42   N4    S    
C21   O9    A    
C23   O1    A    
C9    C16   A    
C9    C69   A    
C38   C42   A    
C56   O21   A    
C50   N9    S    
Cr6   O4    S    
Cr1   O5    S    
Cr2   O25   S    
C5    H5    S    
C18   C63   S    
C38   H1    S    
C19   C62   S    
C46   C52   A    
Cr4   O15   S    
C20   C61   S    
C45   O23   A    
H29   N9    S    
C26   C45   S    
C40   H23   S    
Cr3   O18   S    
C7    C14   A    
C28   C35   A    
C41   H34   S    
C29   C38   A    
C19   O13   A    
C63   C70   A    
C17   H17   S    
C55   H3    S    
C18   O11   A    
Cr5   O9    S    
C39   H12   S    
C8    H8    S    
C24   O17   A    
Cr6   O10   S    
C47   C53   A    
C56   O4    A    
C61   C71   A    
C72   N12   S    
Cr4   O8    S    
C13   H13   S    
H31   N10   S    
C45   O3    A    
C51   H46   S    
C20   O5    A    
C35   C48   A    
C6    C65   A    
C52   C54   A    
C54   H2    S    
C31   C36   A    
Cr4   O2    S    
C27   C34   S    
C58   C64   A    
Cr4   O19   S    
C6    H6    S    
C31   C44   A    
Cr2   O18   S    
C32   C35   A    
Cr6   O23   S    
C48   N7    S    
C21   C60   S    
C71   N11   S    
H26   N7    S    
C22   C59   S    
C53   C57   A    
C2    C59   A    
C4    N4    S    
Cr1   O1    S    
C28   C39   A    
H18   N1    S    
C49   C55   A    
Cr3   O7    S    
C20   O14   A    
C62   C69   A    
Cr3   O20   S    
Cr3   O26   S    
H20   N5    S    
Cr1   O24   S    
Cr5   O16   S    
C11   C16   A    
C11   H11   S    
Cr6   O19   S    
H37   N12   S    
Cr3   O14   S    
C65   C68   A    
C4    C60   A    
C30   C40   A    
C1    O12   A    
C23   C28   S    
C14   H14   S    
H30   N9    S    
C10   C70   A    
C44   C51   A    
C22   O10   A    
C1    O24   A    
C8    C68   A    
C8    C15   A    
C13   C15   A    
C33   C47   A    
H35   N11   S    
Cr2   O13   S    
C2    C71   A    
C43   H45   S    
C4    C72   A    
Cr4   O21   S    
C42   H44   S    
C23   O26   A    
C22   O16   A    
Cr2   O6    S    
Cr1   O11   S    
C3    N3    S    
C50   C57   A    
C32   C46   A    
C3    C67   A    
H24   N6    S    
C25   C42   A    
C15   H15   S    
C52   H47   S    
H22   N6    S    
C5    C11   A    
C64   C69   A    
C16   H16   S    
H21   N5    S    
C47   N6    S    
C5    C64   A    
C40   C43   A    
C18   O6    A    
C67   N10   S    
H25   N7    S    
H40   N3    S    
C24   O8    A    
C59   C65   A    
C6    C13   A    
C37   C50   A    
C61   C68   A    
C66   C70   A    
C46   N5    S    
H33   N11   S    
Cr1   O18   S    
C34   O2    A    
C1    C30   S    
H41   N3    S    
C51   C55   A    
H36   N12   S    
Cr6   O17   S    
H39   N2    S    
C33   C37   A    
C12   O25   A    
C53   H48   S    
Cr5   O22   S    
C60   C66   A    
C3    C58   A    
C27   C43   A    
H28   N8    S    
C63   C72   A    
C30   C37   A    
Cr5   O3    S    
C24   C58   S    
H38   N2    S    
C21   O15   A    
C57   H4    S    
Cr2   O12   S    
C10   C17   A    
C12   O20   A    
C9    H9    S    
C36   C49   A    
C26   C41   A    
Cr5   O19   S    
H27   N8    S    
C7    C66   A    
C34   O22   A    
