data_mof_unit_49938.cif
_audit_creation_date              2012-12-11T15:35:32-0500
_audit_creation_method            fapswitch 2.2
_symmetry_space_group_name_H-M    P1
_symmetry_Int_Tables_number       1
_space_group_crystal_system       triclinic
_cell_length_a                    17.478127
_cell_length_b                    24.354006
_cell_length_c                    14.868041
_cell_angle_alpha                 90.687274
_cell_angle_beta                  124.882838
_cell_angle_gamma                 89.061831
_cell_volume                      5190.91115019

loop_
_atom_site_label
_atom_site_type_symbol
_atom_type_description
_atom_site_fract_x
_atom_site_fract_y
_atom_site_fract_z
_atom_type_partial_charge
C1    C     C_R   0.359328 0.153449 0.909082 0.740990
C2    C     C_R   0.596285 0.127004 0.909110 -0.083059
C3    C     C_R   0.256251 0.545683 0.301988 -0.044497
C4    C     C_2   0.060316 0.935310 0.704527 0.699133
C5    C     C_2   0.072046 0.065653 0.720357 0.526828
C6    C     C_2   0.569301 0.437880 0.700394 0.689691
C7    C     C_2   0.582929 0.568258 0.710147 0.468942
C8    C     C_2   0.262808 0.832123 0.119305 0.530736
C9    C     C_2   0.498726 0.272057 0.183866 0.577584
C10   C     C_2   0.766787 0.330443 0.119153 0.530097
C11   C     C_2   0.997379 0.771518 0.182526 0.567003
C12   C     C_2   0.242277 0.906964 0.637424 0.662208
C13   C     C_R   0.096809 0.375004 0.906922 -0.126165
C14   C     C_2   0.230441 0.097486 0.648091 0.556393
C15   C     C_2   0.757113 0.404854 0.643761 0.631626
C16   C     C_2   0.751389 0.594099 0.640900 0.572798
C17   C     C_R   0.095618 0.627811 0.909104 -0.100839
C18   C     C_R   0.431853 0.000796 0.630071 0.117756
C19   C     C_R   0.933722 0.500181 0.630859 0.171735
C20   C     C_R   0.801799 0.999387 0.363973 0.049892
C21   C     C_R   0.306107 0.499636 0.360971 0.054621
C22   C     C_R   0.682670 0.140457 0.001931 0.044409
C23   C     C_R   0.686393 0.863500 0.997098 0.045900
C24   C     C_R   0.181558 0.641767 0.001963 0.058156
C25   C     C_R   0.330635 0.857501 0.909407 0.854095
C26   C     C_R   0.185123 0.361269 0.996968 0.066113
C27   C     C_3   0.041713 0.944234 0.593160 -0.197093
C28   C     C_3   0.036226 0.050357 0.603136 -0.171796
C29   C     C_3   0.548593 0.445047 0.587588 -0.209845
C30   C     C_3   0.545312 0.551434 0.593043 -0.184448
C31   C     C_3   0.936427 0.942382 0.503968 -0.611205
C32   C     C_3   0.930090 0.043140 0.534767 -0.610680
C33   C     C_3   0.442549 0.443347 0.500871 -0.620043
C34   C     C_3   0.438850 0.545054 0.527267 -0.587258
C35   C     C_3   0.054813 0.003465 0.463682 -0.663986
C36   C     C_R   0.854486 0.652508 0.908992 0.691466
C37   C     C_3   0.557069 0.500327 0.451158 -0.592287
C38   C     C_3   0.082526 0.999506 0.582659 0.154301
C39   C     C_3   0.589317 0.499210 0.572548 0.140208
C40   C     C_3   0.902217 0.998828 0.445762 0.114593
C41   C     C_3   0.407583 0.499135 0.440090 0.108998
C42   C     C_R   0.427663 0.854552 0.092568 -0.289724
C43   C     C_R   0.443468 0.153377 0.090779 -0.262094
C44   C     C_R   0.929635 0.353406 0.092179 -0.292688
C45   C     C_R   0.941911 0.652977 0.090880 -0.264073
C46   C     C_3   0.949259 0.009906 0.384377 1.366529
C47   C     C_R   0.833310 0.355953 0.908919 0.786385
C48   C     C_3   0.451422 0.508041 0.374785 1.332991
C49   C     C_R   0.308243 0.737840 0.945531 -0.050625
C50   C     C_R   0.280260 0.261976 0.895371 -0.078534
C51   C     C_R   0.810557 0.235511 0.944697 -0.053155
C52   C     C_R   0.776208 0.761599 0.896025 -0.078509
C53   C     C_R   0.770094 0.187810 0.945862 -0.168529
C54   C     C_R   0.728382 0.807018 0.894215 -0.196444
C55   C     C_R   0.268405 0.689907 0.946528 -0.164491
C56   C     C_R   0.228909 0.305471 0.894155 -0.191909
C57   C     C_R   0.732760 0.186688 0.006783 0.101334
C58   C     C_R   0.687293 0.123821 0.092892 -0.093491
C59   C     C_R   0.756473 0.833114 0.992329 0.103074
C60   C     C_R   0.230475 0.688469 0.006714 0.098035
C61   C     C_R   0.255578 0.330938 0.992485 0.096714
C62   C     C_R   0.733515 0.232485 0.065010 -0.138928
C63   C     C_R   0.845393 0.822109 0.087158 -0.121798
C64   C     C_R   0.229990 0.734148 0.064429 -0.146226
C65   C     C_R   0.344898 0.320818 0.087439 -0.117668
C66   C     C_R   0.268344 0.782709 0.062994 -0.047683
C67   C     C_R   0.400719 0.278583 0.087991 -0.085717
C68   C     C_R   0.772166 0.280824 0.063147 -0.055904
C69   C     C_R   0.688988 0.876157 0.090239 -0.084191
C70   C     C_R   0.899103 0.778513 0.087621 -0.081444
C71   C     C_R   0.307802 0.783579 0.003157 0.098739
C72   C     C_R   0.361476 0.244342 0.994219 0.060504
C73   C     C_R   0.811257 0.281367 0.002814 0.094141
C74   C     C_R   0.857435 0.743573 0.994478 0.060383
C75   C     C_R   0.382636 0.952297 0.455457 0.731845
C76   C     C_R   0.386575 0.051712 0.460443 0.720683
C77   C     C_R   0.885453 0.451222 0.456960 0.757477
C78   C     C_R   0.885315 0.550684 0.459585 0.733517
C79   C     C_R   0.387780 0.952639 0.365929 -0.281479
C80   C     C_R   0.186644 0.624741 0.092934 -0.086986
C81   C     C_R   0.391960 0.051616 0.371206 -0.290886
C82   C     C_R   0.889018 0.451802 0.366391 -0.285231
C83   C     C_R   0.890197 0.550817 0.369911 -0.293465
C84   C     C_R   0.404472 0.001970 0.333009 -0.062064
C85   C     C_R   0.903874 0.501344 0.332261 -0.064426
C86   C     C_R   0.480056 0.046573 0.248798 -0.117114
C87   C     C_R   0.482325 0.955152 0.251578 -0.125656
C88   C     C_R   0.979718 0.546425 0.248582 -0.117377
C89   C     C_R   0.981762 0.454992 0.250679 -0.123877
C90   C     C_R   0.395190 0.001662 0.512726 -0.316243
C91   C     C_R   0.188163 0.374827 0.090154 -0.077923
C92   C     C_R   0.896594 0.500694 0.513358 -0.318448
C93   C     C_R   0.241467 0.954292 0.700331 -0.001086
C94   C     C_R   0.237924 0.046584 0.704819 0.019326
C95   C     C_R   0.746847 0.453924 0.695740 -0.059606
C96   C     C_R   0.745580 0.545388 0.694830 -0.056177
C97   C     C_R   0.388409 0.186245 0.999413 -0.129753
C98   C     C_R   0.350697 0.831651 0.001728 -0.206803
C99   C     C_R   0.883986 0.685389 0.999427 -0.103365
C100  C     C_R   0.854320 0.329404 0.001087 -0.161354
C101  C     C_R   0.449929 0.001328 0.275782 0.146733
C102  C     C_R   0.597691 0.876479 0.907086 -0.094826
C103  C     C_R   0.949278 0.501062 0.274975 0.148226
C104  C     C_R   0.185537 0.000302 0.651802 -0.142913
C105  C     C_R   0.693302 0.499470 0.638347 0.053434
C106  C     C_R   0.450149 0.045777 0.696679 -0.147586
C107  C     C_R   0.450845 0.955173 0.695220 -0.103368
C108  C     C_R   0.953111 0.545393 0.697560 -0.161111
C109  C     C_R   0.950751 0.454765 0.695585 -0.158805
C110  C     C_R   0.753648 0.953849 0.303323 -0.064873
C111  C     C_R   0.753725 0.045511 0.303967 -0.041729
C112  C     C_R   0.256214 0.453955 0.301853 -0.061841
F1    F     F_    0.343145 0.173712 0.815247 -0.708730
F2    F     F_    0.380319 0.101148 0.498551 -0.708353
F3    F     F_    0.878295 0.401793 0.492146 -0.679861
F4    F     F_    0.876215 0.599849 0.496245 -0.696019
F5    F     F_    0.269297 0.839973 0.805517 -0.673559
F6    F     F_    0.826078 0.672421 0.810071 -0.762459
F7    F     F_    0.774608 0.337850 0.804774 -0.717196
F8    F     F_    0.917454 0.973398 0.297713 -0.715851
F9    F     F_    0.928760 0.062819 0.342302 -0.722663
F10   F     F_    0.416088 0.470909 0.288489 -0.710683
F11   F     F_    0.431468 0.560679 0.331472 -0.707766
F12   F     F_    0.372150 0.903196 0.488777 -0.685485
H1    H     H_    0.896035 0.930973 0.537733 0.185285
H2    H     H_    0.089316 0.038857 0.454365 0.200682
H3    H     H_    0.576860 0.461299 0.429802 0.241906
H4    H     H_    0.591281 0.533237 0.435754 0.245321
H5    H     H_    0.339538 0.739426 0.900291 0.150197
H6    H     H_    0.248501 0.238738 0.820144 0.202110
H7    H     H_    0.841318 0.236843 0.898852 0.146186
H8    H     H_    0.741256 0.737952 0.821316 0.192775
H9    H     H_    0.767319 0.152273 0.899553 0.135394
H10   H     H_    0.662783 0.816018 0.817584 0.132696
H11   H     H_    0.266649 0.654410 0.900744 0.137212
H12   H     H_    0.906435 0.030321 0.586767 0.188446
H13   H     H_    0.162862 0.313886 0.817612 0.135047
H14   H     H_    0.699948 0.231047 0.107749 0.158282
H15   H     H_    0.871325 0.846131 0.160827 0.177728
H16   H     H_    0.196109 0.732333 0.106769 0.157190
H17   H     H_    0.369656 0.344458 0.161236 0.180389
H18   H     H_    0.468121 0.838436 0.175069 0.161063
H19   H     H_    0.484798 0.166144 0.175493 0.132712
H20   H     H_    0.970330 0.337533 0.174880 0.156859
H21   H     H_    0.983655 0.665887 0.175490 0.131451
H22   H     H_    0.387092 0.913728 0.329724 0.177619
H23   H     H_    0.403768 0.433333 0.537371 0.187875
H24   H     H_    0.395124 0.090674 0.339761 0.171914
H25   H     H_    0.889131 0.412900 0.330710 0.179520
H26   H     H_    0.891737 0.589922 0.337349 0.172721
H27   H     H_    0.469224 0.089379 0.258084 0.110701
H28   H     H_    0.475986 0.913048 0.267073 0.100957
H29   H     H_    0.968926 0.589176 0.258329 0.110835
H30   H     H_    0.974959 0.412782 0.265137 0.100649
H31   H     H_    0.434115 0.088306 0.673950 0.198095
H32   H     H_    0.437694 0.912888 0.669979 0.217574
H33   H     H_    0.941153 0.588040 0.675271 0.185136
H34   H     H_    0.416464 0.534328 0.581531 0.188433
H35   H     H_    0.934556 0.412595 0.670092 0.180549
H36   H     H_    0.766796 0.911386 0.328741 0.095103
H37   H     H_    0.768734 0.087982 0.329107 0.109100
H38   H     H_    0.270651 0.411537 0.327437 0.094846
H39   H     H_    0.271650 0.588138 0.326888 0.104743
H40   H     H_    0.741887 0.132295 0.177667 0.141077
H41   H     H_    0.746850 0.870191 0.174498 0.114944
H42   H     H_    0.240686 0.633857 0.177548 0.135304
H43   H     H_    0.245765 0.368490 0.174359 0.110552
H44   H     H_    0.570261 0.872890 0.821479 0.107695
H45   H     H_    0.923972 0.909749 0.444036 0.216843
H46   H     H_    0.567579 0.137698 0.825011 0.130257
H47   H     H_    0.069169 0.370977 0.821259 0.110669
H48   H     H_    0.066542 0.638943 0.825128 0.126791
H49   H     H_    0.071944 0.908468 0.576802 0.152480
H50   H     H_    0.046810 0.087144 0.568647 0.189053
H51   H     H_    0.577939 0.408536 0.571613 0.208901
H52   H     H_    0.556970 0.587576 0.557899 0.195935
H53   H     H_    0.023337 0.959583 0.730141 0.019233
H54   H     H_    0.040854 0.100759 0.734097 0.036343
H55   H     H_    0.533726 0.463249 0.726459 0.031783
H56   H     H_    0.896448 0.083593 0.499338 0.201505
H57   H     H_    0.554286 0.604907 0.723253 0.045965
H58   H     H_    0.282400 0.872207 0.108345 0.030352
H59   H     H_    0.547937 0.248329 0.176411 0.015561
H60   H     H_    0.784724 0.370605 0.106248 0.031556
H61   H     H_    0.045721 0.747459 0.174043 0.016611
H62   H     H_    0.185348 0.900497 0.552604 0.003311
H63   H     H_    0.265184 0.100113 0.606923 0.051705
H64   H     H_    0.815575 0.376973 0.692783 0.056099
H65   H     H_    0.816147 0.616052 0.680469 0.103703
H66   H     H_    0.428214 0.409766 0.441870 0.222818
H67   H     H_    0.406041 0.585401 0.490092 0.200621
H68   H     H_    0.078255 0.966067 0.441899 0.194329
N1    N     N_R   0.392140 0.102630 0.941800 -0.099229
N2    N     N_R   0.525160 0.972040 0.206160 -0.046383
N3    N     N_R   0.025160 0.527960 0.206160 -0.049343
N4    N     N_R   0.025160 0.472040 0.206160 -0.045322
N5    N     N_R   0.317870 0.971120 0.792790 -0.054199
N6    N     N_R   0.317870 0.028880 0.792790 -0.075386
N7    N     N_R   0.817870 0.471120 0.792790 -0.076506
N8    N     N_R   0.817870 0.528880 0.792790 -0.066213
N9    N     N_R   0.473480 0.027920 0.793480 -0.068790
N10   N     N_R   0.473480 0.972080 0.793480 -0.061848
N11   N     N_R   0.973480 0.527920 0.793480 -0.064254
N12   N     N_R   0.392140 0.897370 0.941800 -0.111599
N13   N     N_R   0.973480 0.472080 0.793480 -0.067501
N14   N     N_R   0.681610 0.971120 0.207570 -0.042705
N15   N     N_R   0.681610 0.028880 0.207570 -0.046330
N16   N     N_R   0.181610 0.471120 0.207570 -0.041592
N17   N     N_R   0.181610 0.528880 0.207570 -0.045483
N18   N     N_R   0.605410 0.102620 0.056870 -0.057791
N19   N     N_R   0.605410 0.897380 0.056870 -0.051494
N20   N     N_R   0.105410 0.602620 0.056870 -0.056259
N21   N     N_R   0.105410 0.397380 0.056870 -0.046568
N22   N     N_R   0.549680 0.896430 0.944180 -0.045750
N23   N     N_R   0.892140 0.602630 0.941800 -0.092236
N24   N     N_R   0.549680 0.103570 0.944180 -0.045745
N25   N     N_R   0.049680 0.396430 0.944180 -0.057006
N26   N     N_R   0.049680 0.603570 0.944180 -0.048914
N27   N     N_R   0.892140 0.397370 0.941800 -0.120205
N28   N     N_R   0.450890 0.896450 0.057150 -0.070889
N29   N     N_R   0.450890 0.103550 0.057150 -0.067192
N30   N     N_R   0.950890 0.396450 0.057150 -0.062650
N31   N     N_R   0.950890 0.603550 0.057150 -0.062776
N32   N     N_R   0.525160 0.027960 0.206160 -0.050281
Ni1   Ni    Ni4+2 0.433410 0.064680 0.868830 0.272588
Ni2   Ni    Ni4+2 0.433410 0.935320 0.868830 0.295982
Ni3   Ni    Ni4+2 0.933410 0.564680 0.868830 0.255829
Ni4   Ni    Ni4+2 0.933410 0.435320 0.868830 0.229617
Ni5   Ni    Ni4+2 0.565650 0.934380 0.131170 0.220836
Ni6   Ni    Ni4+2 0.565650 0.065620 0.131170 0.214969
Ni7   Ni    Ni4+2 0.065650 0.434380 0.131170 0.224131
Ni8   Ni    Ni4+2 0.065650 0.565620 0.131170 0.220245
O1    O     O_2   0.114067 0.899266 0.765053 -0.562444
O2    O     O_2   0.186268 0.136977 0.647338 -0.553459
O3    O     O_2   0.704549 0.396413 0.545414 -0.551192
O4    O     O_2   0.686723 0.608948 0.550081 -0.567208
O5    O     O_2   0.135159 0.040502 0.799642 -0.591974
O6    O     O_2   0.622620 0.401828 0.761403 -0.556524
O7    O     O_2   0.644435 0.542677 0.789955 -0.589523
O8    O     O_2   0.235476 0.828719 0.178455 -0.554649
O9    O     O_2   0.526348 0.294195 0.271436 -0.527828
O10   O     O_2   0.741309 0.327125 0.180150 -0.550244
O11   O     O_2   0.026249 0.793734 0.270379 -0.549140
O12   O     O_2   0.309340 0.875788 0.678159 -0.543189

loop_
_geom_bond_atom_site_label_1
_geom_bond_atom_site_label_2
_ccdc_geom_bond_type
C56   C61   A    
C3    N17   A    
C73   C100  S    
C96   C105  A    
C77   C92   A    
C2    N24   A    
C35   H68   S    
C56   H13   S    
C6    H55   S    
C11   O11   D    
N9    N10   A    
C23   C69   A    
C43   H19   S    
C10   O10   D    
C4    H53   S    
C37   H3    S    
C25   N12   A    
C58   H40   S    
C27   H49   S    
C22   C57   S    
N11   Ni3   S    
C23   C59   S    
C17   H48   S    
C57   C62   A    
N10   Ni2   S    
N9    Ni1   S    
C6    O6    D    
C5    O5    D    
N28   Ni5   S    
N12   N28   A    
C45   H21   S    
C77   C82   A    
C91   H43   S    
C34   H67   S    
C43   N29   A    
C26   C61   S    
C29   H51   S    
C108  N11   A    
C52   C74   A    
C42   C98   A    
C36   N23   A    
C15   C95   S    
C79   C84   A    
N20   Ni8   S    
C55   H11   S    
N11   N13   A    
C23   C102  A    
C16   O4    D    
C27   C38   S    
C54   H10   S    
C29   C33   S    
C10   H60   S    
C31   C40   S    
N13   Ni4   S    
C39   C105  S    
C67   C72   A    
C4    O1    D    
C80   H42   S    
C95   N7    A    
C50   C72   A    
C18   C107  A    
C38   C104  S    
C19   C92   S    
C33   H23   S    
C75   C90   A    
C24   C80   A    
C87   C101  A    
C78   C83   A    
C102  N22   A    
N16   N17   A    
C65   C67   A    
C111  H37   S    
N29   Ni6   S    
C42   H18   S    
C76   F2    S    
C63   C70   A    
C46   F9    S    
C8    C66   S    
C69   N19   A    
N27   Ni4   S    
C50   H6    S    
N7    Ni4   S    
N8    Ni3   S    
C107  H32   S    
N21   Ni7   S    
N6    Ni1   S    
C44   H20   S    
C80   N20   A    
C37   H4    S    
C19   C108  A    
N1    N29   A    
C94   C104  A    
N7    N8    A    
C7    C30   S    
C55   C60   A    
C89   C103  A    
N14   Ni5   S    
C84   C101  S    
N2    Ni5   S    
C34   C41   S    
C86   N32   A    
C48   F11   S    
N22   Ni2   S    
C93   C104  A    
C30   H52   S    
C52   C54   A    
C79   H22   S    
C70   C74   A    
C54   C59   A    
C58   N18   A    
C71   C98   S    
C15   O3    D    
C11   C70   S    
C17   C24   A    
C88   N3    A    
C30   C34   S    
C27   C31   S    
C75   F12   S    
C52   H8    S    
C43   C97   A    
C28   C32   S    
C7    H57   S    
C53   H9    S    
C91   N21   A    
C112  N16   A    
C107  N10   A    
C45   C99   A    
C45   N31   A    
C1    C97   A    
C32   H12   S    
C53   C57   A    
N14   N15   A    
N23   N31   A    
C108  H33   S    
C31   H45   S    
C78   C92   A    
C26   C91   A    
C49   C55   A    
C89   N4    A    
C47   N27   A    
C50   C56   A    
C47   C100  A    
N21   N25   A    
C33   H66   S    
C51   C53   A    
N17   Ni8   S    
C18   C90   S    
C6    C29   S    
C76   C81   A    
C35   H2    S    
C1    N1    A    
C9    C67   S    
C2    C22   A    
C9    H59   S    
N32   Ni6   S    
C20   C111  A    
C65   H17   S    
C66   C71   A    
N4    Ni7   S    
C28   C38   S    
C24   C60   S    
C81   H24   S    
C12   H62   S    
C29   C39   S    
N18   Ni6   S    
C16   C96   S    
C46   F8    S    
C110  N14   A    
C62   H14   S    
C37   C48   S    
C109  N13   A    
C8    O8    D    
C2    H46   S    
C20   C110  A    
C34   H34   S    
N3    Ni8   S    
C83   C85   A    
C7    O7    D    
N30   Ni7   S    
C76   C90   A    
C10   C68   S    
C87   H28   S    
C35   C46   S    
C21   C41   S    
C12   C93   S    
C3    C21   A    
C44   N30   A    
C40   C46   S    
N12   Ni2   S    
C109  H35   S    
C111  N15   A    
N26   Ni3   S    
C14   O2    D    
C88   C103  A    
C110  H36   S    
N31   Ni8   S    
N2    N32   A    
C64   H16   S    
C8    H58   S    
C59   C63   A    
C96   N8    A    
C32   C40   S    
C102  H44   S    
N19   Ni5   S    
C11   H61   S    
C49   H5    S    
C20   C40   S    
C5    C28   S    
C78   F4    S    
C51   C73   A    
C87   N2    A    
C3    H39   S    
C25   F5    S    
C85   C103  S    
C22   C58   A    
C94   N6    A    
N15   Ni6   S    
C74   C99   S    
N24   Ni1   S    
C63   H15   S    
C82   C85   A    
C112  H38   S    
C15   H64   S    
C9    O9    D    
C42   N28   A    
C72   C97   S    
C62   C68   A    
C60   C64   A    
C33   C41   S    
C21   C112  A    
C83   H26   S    
C81   C84   A    
C68   C73   A    
N1    Ni1   S    
C37   C39   S    
C86   H27   S    
C88   H29   S    
C106  N9    A    
C48   F10   S    
C14   H63   S    
C44   C100  A    
C28   H50   S    
C89   H30   S    
C19   C109  A    
N20   N26   A    
C18   C106  A    
N18   N24   A    
C93   N5    A    
C47   F7    S    
C41   C48   S    
C12   O12   D    
C30   C39   S    
C4    C27   S    
C36   C99   A    
N23   Ni3   S    
C1    F1    S    
N5    N6    A    
C13   C26   A    
C69   H41   S    
C5    H54   S    
C82   H25   S    
C16   H65   S    
N16   Ni7   S    
N3    N4    A    
C61   C65   A    
C25   C98   A    
C13   H47   S    
N19   N22   A    
C51   H7    S    
C106  H31   S    
C49   C71   A    
N5    Ni2   S    
C95   C105  A    
C31   H1    S    
C35   C38   S    
C32   H56   S    
C36   F6    S    
C13   N25   A    
N25   Ni4   S    
C77   F3    S    
C86   C101  A    
C75   C79   A    
C14   C94   S    
C17   N26   A    
C64   C66   A    
N27   N30   A    
