data_mof_unit_16885.cif
_audit_creation_date              2012-12-11T14:29:36-0500
_audit_creation_method            fapswitch 2.2
_symmetry_space_group_name_H-M    P1
_symmetry_Int_Tables_number       1
_space_group_crystal_system       triclinic
_cell_length_a                    6.940604
_cell_length_b                    14.7549
_cell_length_c                    16.219701
_cell_angle_alpha                 90.500669
_cell_angle_beta                  90.098614
_cell_angle_gamma                 89.944634
_cell_volume                      1660.95918147

loop_
_atom_site_label
_atom_site_type_symbol
_atom_type_description
_atom_site_fract_x
_atom_site_fract_y
_atom_site_fract_z
_atom_type_partial_charge
O1    O     O_R   0.494400 0.416610 0.413880 -0.543543
O2    O     O_R   0.823920 0.406790 0.585520 -0.500110
O3    O     O_R   0.994250 0.583390 0.586120 -0.539859
C1    C     C_R   0.655243 0.385530 0.614008 0.802706
O4    O     O_R   0.824110 0.405730 0.414490 -0.542844
O5    O     O_R   0.994440 0.582310 0.413870 -0.542875
C2    C     C_R   0.654822 0.383658 0.386358 0.743439
O6    O     O_R   0.494210 0.417690 0.586130 -0.540422
O7    O     O_3   0.660810 0.557940 0.500000 -0.383355
V1    V     V_3+5 0.935650 0.489250 0.500000 1.500305
O8    O     O_R   0.324160 0.593210 0.414480 -0.549705
C3    C     C_R   0.155319 0.614949 0.386327 0.726720
O9    O     O_R   0.323970 0.594270 0.585510 -0.542180
C4    C     C_R   0.155175 0.615745 0.614195 0.689577
V2    V     V_3+5 0.435660 0.510750 0.500000 1.451766
O10   O     O_3   0.160630 0.442060 0.500000 -0.357490
H1    H     H_    0.305605 0.917297 0.510991 0.153026
C5    C     C_R   0.049347 0.563741 0.779784 -0.246002
C6    C     C_R   0.997520 0.536335 0.858670 -0.188624
C7    C     C_R   0.986512 0.599371 0.922696 0.677696
C8    C     C_R   0.026852 0.690379 0.908235 -0.228254
C9    C     C_R   0.078032 0.720476 0.828613 -0.013177
C10   C     C_R   0.089975 0.655751 0.763018 0.061176
C11   C     C_R   0.119415 0.813095 0.814008 -0.135196
C12   C     C_R   0.171140 0.840938 0.733407 0.051903
C13   C     C_R   0.185048 0.776048 0.668149 0.075581
C14   C     C_R   0.144658 0.683395 0.682817 -0.149958
C15   C     C_R   0.204927 0.933410 0.715934 -0.205509
C16   C     C_R   0.252884 0.961870 0.636289 0.026420
C17   C     C_R   0.269153 0.897218 0.573114 -0.157193
C18   C     C_R   0.235126 0.805989 0.588523 -0.168575
H2    H     H_    0.058079 0.511839 0.732402 0.168516
H3    H     H_    0.966736 0.465640 0.870171 0.159822
H4    H     H_    0.018120 0.736638 0.960211 0.132436
H5    H     H_    0.191977 0.984369 0.763963 0.142662
H6    H     H_    0.246324 0.759498 0.536812 0.109150
C19   C     C_2   0.985414 0.709179 0.282349 -0.105268
C20   C     C_2   0.150092 0.682681 0.319481 -0.300596
H7    H     H_    0.849559 0.680682 0.302746 0.137029
H8    H     H_    0.287543 0.710548 0.301121 0.128656
C21   C     C_2   0.973286 0.776644 0.214360 -0.101470
C22   C     C_2   0.126511 0.814467 0.177079 -0.288181
H9    H     H_    0.829365 0.795146 0.194160 0.136675
H10   H     H_    0.271594 0.796540 0.195377 0.130921
C23   C     C_2   0.779711 0.209438 0.783309 -0.198295
C24   C     C_2   0.614149 0.181144 0.818024 -0.383031
H11   H     H_    0.915134 0.180609 0.804227 0.187867
H12   H     H_    0.476634 0.208881 0.799434 0.168126
C25   C     C_2   0.794404 0.278680 0.717164 0.636948
C26   C     C_2   0.640788 0.318429 0.681016 -0.393759
H13   H     H_    0.496079 0.302160 0.700370 0.109386
C27   C     C_2   0.779295 0.208896 0.214094 -0.115864
C28   C     C_2   0.614190 0.181871 0.177381 -0.293785
H14   H     H_    0.915105 0.180121 0.193357 0.138122
H15   H     H_    0.476713 0.209985 0.195950 0.130767
C29   C     C_2   0.791676 0.277427 0.282019 -0.113702
C30   C     C_2   0.638244 0.315330 0.319627 -0.279717
H16   H     H_    0.935602 0.296626 0.301878 0.138714
H17   H     H_    0.493163 0.296762 0.301726 0.131694
O11   O     O_R   0.770210 0.079270 0.910680 -0.540865
O12   O     O_R   0.440150 0.091160 0.082270 -0.546253
O13   O     O_R   0.269970 0.914530 0.082860 -0.542430
C31   C     C_R   0.608865 0.113250 0.110492 0.739696
O14   O     O_R   0.440480 0.090100 0.911240 -0.540418
O15   O     O_R   0.270310 0.913460 0.910610 -0.536414
C32   C     C_R   0.609045 0.112129 0.883462 0.790311
O16   O     O_R   0.769870 0.080340 0.082930 -0.541183
O17   O     O_3   0.603660 0.938980 0.996790 -0.370668
V3    V     V_3+5 0.328750 0.007610 0.996740 1.439316
O18   O     O_R   0.940600 0.902510 0.911180 -0.539112
C33   C     C_R   0.109388 0.880741 0.882730 0.693648
O19   O     O_R   0.940270 0.903570 0.082200 -0.542418
C34   C     C_R   0.109672 0.881850 0.110327 0.735734
V4    V     V_3+5 0.828770 0.986010 0.996670 1.442700
O20   O     O_3   0.103730 0.054750 0.996710 -0.373785
F1    F     F_    0.975561 0.301097 0.692915 -0.691531
F2    F     F_    0.937313 0.572155 0.999471 -0.678700
C35   C     C_2   0.282233 0.059461 0.619011 0.758770
O21   O     O_2   0.336070 0.083667 0.550875 -0.558934
O22   O     O_R   0.246377 0.124333 0.680405 -0.668017
H18   H     H_    0.267690 0.188373 0.660393 0.331289

loop_
_geom_bond_atom_site_label_1
_geom_bond_atom_site_label_2
_ccdc_geom_bond_type
C21   C22   D    
C6    C7    A    
C1    O6    A    
C23   C24   D    
C12   C15   A    
C13   C14   A    
C16   C17   A    
C7    F2    S    
C15   C16   A    
C24   C32   S    
C18   H6    S    
O5    C3    A    
C17   C18   A    
C35   O22   S    
C30   H17   S    
O17   V4    S    
V2    O10   S    
C29   C30   D    
C5    C6    A    
O12   C31   A    
O8    V2    S    
C16   C35   S    
C15   H5    S    
O17   V3    S    
O18   V4    S    
O13   C34   A    
O18   C33   A    
O1    V2    S    
C10   C14   A    
C4    C14   S    
O7    V1    S    
C23   H11   S    
O11   C32   A    
C13   C18   A    
O9    C4    A    
C3    C20   S    
H1    C17   S    
C21   H9    S    
C22   H10   S    
C27   H14   S    
C24   H12   S    
C28   H15   S    
C31   O16   A    
V4    O20   S    
C5    C10   A    
C11   C12   A    
O19   V4    S    
C6    H3    S    
O4    C2    A    
C35   O21   D    
O19   C34   A    
C8    H4    S    
C12   C13   A    
O15   C33   A    
O13   V3    S    
C1    C26   S    
O14   C32   A    
O2    C1    A    
C19   C20   D    
C23   C25   S    
C26   H13   S    
C25   F1    S    
O16   V4    S    
O14   V3    S    
O3    C4    A    
O6    V2    S    
O9    V2    S    
C9    C11   A    
C5    H2    S    
O2    V1    S    
C27   C28   D    
O12   V3    S    
C22   C34   S    
O1    C2    A    
O22   H18   S    
O5    V1    S    
O8    C3    A    
O7    V2    S    
O4    V1    S    
C19   H7    S    
O3    V1    S    
V1    O10   S    
C20   H8    S    
C28   C31   S    
O15   V3    S    
O11   V4    S    
C29   H16   S    
V3    O20   S    
C19   C21   S    
C7    C8    A    
C25   C26   D    
C9    C10   A    
C8    C9    A    
C2    C30   S    
C27   C29   S    
C11   C33   S    
