data_mof_unit_39532.cif
_audit_creation_date              2013-03-05T15:55:41-0500
_audit_creation_method            fapswitch 2.2
_symmetry_space_group_name_H-M    P1
_symmetry_Int_Tables_number       1
_space_group_crystal_system       triclinic
_cell_length_a                    6.927205
_cell_length_b                    17.532668
_cell_length_c                    19.507774
_cell_angle_alpha                 108.583007
_cell_angle_beta                  89.355565
_cell_angle_gamma                 90.49178
_cell_volume                      2245.56592123

loop_
_atom_site_label
_atom_site_type_symbol
_atom_site_description
_atom_site_fract_x
_atom_site_fract_y
_atom_site_fract_z
_atom_type_partial_charge
O1    O     O_R   0.494330 0.415710 0.413720 -0.569547
O2    O     O_R   0.819360 0.430070 0.560210 -0.571555
O3    O     O_R   0.994320 0.584290 0.586280 -0.615125
C1    C     C_R   0.649311 0.412550 0.579699 1.076469
O4    O     O_R   0.823740 0.406290 0.412670 -0.551861
O5    O     O_R   0.998730 0.560340 0.437690 -0.568123
C2    C     C_R   0.655807 0.382293 0.385260 1.098324
O6    O     O_R   0.489920 0.439660 0.562310 -0.574722
O7    O     O_3   0.662330 0.550570 0.508380 -0.295878
V1    V     V_3+5 0.935370 0.490620 0.498440 1.287297
O8    O     O_R   0.328720 0.569930 0.439790 -0.606272
C3    C     C_R   0.160550 0.586208 0.419125 0.989717
O9    O     O_R   0.324340 0.593710 0.587330 -0.615812
C4    C     C_R   0.154938 0.617042 0.615189 0.882302
V2    V     V_3+5 0.435940 0.509380 0.501560 1.229620
O10   O     O_3   0.159110 0.449430 0.491620 -0.192283
C5    C     C_R   0.312439 0.721755 0.719603 -0.146987
H1    H     H_    0.453518 0.700669 0.697555 0.118569
C6    C     C_R   0.301441 0.785416 0.784696 -0.165086
H2    H     H_    0.434520 0.811626 0.810650 0.122507
C7    C     C_R   0.121440 0.814891 0.815696 -0.117654
C8    C     C_R   0.952741 0.779035 0.779695 -0.142532
H3    H     H_    0.811661 0.800264 0.801647 0.116599
C9    C     C_R   0.963736 0.715280 0.714661 -0.148370
H4    H     H_    0.830654 0.689186 0.688630 0.119809
C10   C     C_R   0.143736 0.685665 0.683768 -0.107315
C11   C     C_R   0.300661 0.634336 0.321496 -0.216289
C12   C     C_R   0.152462 0.638539 0.372271 -0.336097
C13   C     C_R   0.997453 0.692524 0.377677 0.579990
C14   C     C_R   0.988048 0.738447 0.329696 -0.059926
C15   C     C_R   0.134726 0.731307 0.277254 -0.004391
C16   C     C_R   0.292102 0.679559 0.273788 0.116100
C17   C     C_R   0.836967 0.792947 0.334641 -0.305856
C18   C     C_R   0.829965 0.841077 0.289370 0.429099
C19   C     C_R   0.972099 0.831470 0.234281 0.031964
C20   C     C_R   0.125528 0.776570 0.228762 -0.010887
C21   C     C_R   0.272751 0.768184 0.175805 0.040753
C22   C     C_R   0.429049 0.715957 0.172621 0.605538
C23   C     C_R   0.439193 0.673476 0.222510 -0.350734
C24   C     C_R   0.967437 0.875794 0.185207 -0.058605
C25   C     C_R   0.110826 0.866676 0.131868 -0.214671
C26   C     C_R   0.263032 0.813188 0.127704 -0.106374
H5    H     H_    0.420861 0.593932 0.317788 0.163734
H6    H     H_    0.725899 0.799849 0.375576 0.218886
H7    H     H_    0.854883 0.918969 0.188313 0.190051
H8    H     H_    0.374277 0.806966 0.086804 0.161164
H9    H     H_    0.563205 0.635703 0.221110 0.161024
C27   C     C_R   0.763233 0.189353 0.872048 -0.127779
C28   C     C_R   0.621369 0.130322 0.865952 -0.374622
C29   C     C_R   0.480028 0.116657 0.811702 0.612625
C30   C     C_R   0.475843 0.165033 0.765718 -0.121967
C31   C     C_R   0.623102 0.223473 0.771438 -0.114103
C32   C     C_R   0.763664 0.237237 0.826258 -0.029746
C33   C     C_R   0.326235 0.157111 0.715067 0.600898
C34   C     C_R   0.333934 0.203097 0.667889 -0.335257
C35   C     C_R   0.489616 0.254944 0.667573 -0.049184
C36   C     C_R   0.627747 0.269269 0.723214 -0.034637
C37   C     C_R   0.766590 0.330993 0.732047 -0.060200
C38   C     C_R   0.899119 0.347685 0.789483 0.421001
C39   C     C_R   0.897124 0.301134 0.836565 0.446165
C40   C     C_R   0.503369 0.296293 0.615656 0.485854
C41   C     C_R   0.638442 0.360449 0.626676 -0.344413
C42   C     C_R   0.767141 0.376837 0.684681 -0.189024
H10   H     H_    0.869937 0.199328 0.914253 0.189221
H11   H     H_    0.209867 0.201717 0.634628 0.210094
H12   H     H_    0.869092 0.426063 0.692569 0.176719
C43   C     C_R   0.778843 0.248119 0.298843 0.572464
C44   C     C_R   0.762342 0.186754 0.232295 -0.184286
H13   H     H_    0.861900 0.136784 0.219324 0.211394
C45   C     C_R   0.618280 0.187474 0.182474 -0.405980
C46   C     C_R   0.487823 0.252982 0.199879 0.603604
C47   C     C_R   0.502831 0.314006 0.266839 -0.251156
H14   H     H_    0.403255 0.363987 0.279722 0.196274
C48   C     C_R   0.647095 0.313357 0.316709 -0.422570
O11   O     O_R   0.774940 0.060470 0.937800 -0.603141
O12   O     O_R   0.440880 0.093730 0.087350 -0.542378
O13   O     O_R   0.266130 0.939630 0.062280 -0.589629
C49   C     C_R   0.609159 0.118506 0.114123 1.089232
O14   O     O_R   0.445480 0.069960 0.939820 -0.550883
O15   O     O_R   0.270770 0.915690 0.913690 -0.604410
C50   C     C_R   0.614622 0.084293 0.917750 1.025234
O16   O     O_R   0.770300 0.084410 0.086380 -0.590284
O17   O     O_3   0.602600 0.949510 0.991670 -0.303469
V3    V     V_3+5 0.329470 0.009370 0.001550 1.261872
O18   O     O_R   0.940760 0.906160 0.912560 -0.611166
C51   C     C_R   0.110186 0.883151 0.884545 0.924940
O19   O     O_R   0.936150 0.929930 0.060100 -0.600814
C52   C     C_R   0.103993 0.915056 0.081866 0.957079
V4    V     V_3+5 0.828930 0.990450 0.998310 1.205667
O20   O     O_3   0.105670 0.050490 0.008320 -0.229144
O21   O     O_3   0.580825 0.712059 0.124904 -0.616872
C53   C     C_3   0.572823 0.637471 0.069238 -0.285716
H15   H     H_    0.685936 0.637074 0.028420 0.182173
H16   H     H_    0.431024 0.628350 0.041305 0.136257
H17   H     H_    0.603207 0.586711 0.090061 0.153667
O22   O     O_3   0.344800 0.055961 0.804229 -0.570365
C54   C     C_3   0.422173 0.983353 0.757922 -0.188936
H18   H     H_    0.470025 0.989048 0.705064 0.114638
H19   H     H_    0.307596 0.936550 0.746546 0.164627
H20   H     H_    0.543719 0.962376 0.783986 0.096636
O23   O     O_3   0.162275 0.112093 0.718626 -0.583927
C55   C     C_3   0.111264 0.059919 0.649583 -0.170374
H21   H     H_    0.239432 0.033114 0.615672 0.131883
H22   H     H_    0.018734 0.091539 0.621253 0.159556
H23   H     H_    0.024687 0.009478 0.656846 0.153245
S1    S     S_3+6 0.364777 0.262766 0.534705 -0.005531
O24   O     O_2   0.331259 0.173347 0.512871 -0.295621
O25   O     O_2   0.173699 0.305080 0.548033 -0.253267
O26   O     O_3   0.479676 0.282286 0.466005 -0.516948
H24   H     H_    0.419927 0.245761 0.421593 0.390992
O27   O     O_3   0.015872 0.415443 0.805137 -0.617677
C56   C     C_3   0.198599 0.392957 0.773301 -0.186096
H25   H     H_    0.291842 0.447334 0.785955 0.158047
H26   H     H_    0.187742 0.368144 0.713451 0.138499
H27   H     H_    0.269641 0.349454 0.795636 0.172062
O28   O     O_3   0.030429 0.317327 0.891762 -0.612525
C57   C     C_3   0.951934 0.375295 0.953383 -0.177312
H28   H     H_    0.056717 0.386565 0.998162 0.188548
H29   H     H_    0.815247 0.353610 0.971595 0.135296
H30   H     H_    0.927457 0.433480 0.943395 0.156950
S2    S     S_3+6 0.962911 0.238298 0.357854 0.019231
O29   O     O_2   0.121159 0.297768 0.358930 -0.286675
O30   O     O_2   0.882158 0.254606 0.432931 -0.222458
O31   O     O_3   0.055526 0.144916 0.329289 -0.516888
H31   H     H_    0.147825 0.143398 0.367232 0.399255
S3    S     S_3+6 0.311088 0.263983 0.138623 -0.035853
O32   O     O_2   0.144868 0.208154 0.138064 -0.279143
O33   O     O_2   0.238188 0.349012 0.161277 -0.317559
O34   O     O_3   0.407212 0.241140 0.054972 -0.570424
H32   H     H_    0.296882 0.241176 0.023105 0.376273
O35   O     O_3   0.851769 0.698730 0.428347 -0.611460
C58   C     C_3   0.908979 0.755262 0.494426 -0.209591
H33   H     H_    0.039768 0.735089 0.516278 0.102112
H34   H     H_    0.790804 0.761206 0.534616 0.165118
H35   H     H_    0.934644 0.815733 0.488731 0.132205
S4    S     S_3+6 0.651692 0.917533 0.308246 -0.030427
O36   O     O_2   0.535967 0.909880 0.241814 -0.283903
O37   O     O_2   0.516788 0.912510 0.367597 -0.287919
O38   O     O_3   0.761669 0.007961 0.333748 -0.462202
H36   H     H_    0.839153 0.008956 0.376396 0.361743

loop_
_geom_bond_atom_site_label_1
_geom_bond_atom_site_label_2
_geom_bond_distance
_ccdc_geom_bond_type
O19   C52   1.298848 A    
S3    O32   1.502711 D    
C45   C49   1.488959 S    
C55   H21   1.114698 S    
C25   C26   1.401506 A    
C33   O23   1.391250 S    
C19   C20   1.420088 A    
O15   V3    2.002660 S    
O12   V3    2.004079 S    
C56   H26   1.111637 S    
C54   H18   1.113757 S    
O18   C51   1.300789 A    
O28   C57   1.410567 S    
C13   C14   1.418177 A    
O16   V4    2.005587 S    
C3    C12   1.488921 S    
C5    C10   1.406608 A    
C7    C8    1.406606 A    
C20   C21   1.418096 A    
C6    C7    1.407995 A    
O12   C49   1.296435 A    
C57   H29   1.113398 S    
O5    C3    1.296234 A    
C14   C15   1.411320 A    
C34   C35   1.405704 A    
C27   H10   1.083744 S    
S1    O24   1.504499 D    
V2    O10   2.159550 S    
C1    C41   1.486864 S    
C35   C36   1.415034 A    
C55   H23   1.109369 S    
C5    H1    1.082660 S    
C18   C19   1.419993 A    
C26   H8    1.083739 S    
C16   C23   1.400426 A    
C28   C50   1.480723 S    
C21   C26   1.407779 A    
S2    O31   1.682619 S    
O15   C51   1.297206 A    
C54   H19   1.108731 S    
C7    C51   1.488968 S    
O8    V2    1.994909 S    
O27   C56   1.406478 S    
O13   C52   1.296168 A    
C44   H13   1.082759 S    
C38   O27   1.384388 S    
C46   S3    1.774216 S    
C45   C46   1.418956 A    
O1    V2    1.999798 S    
O7    V1    2.148432 S    
C15   C20   1.417533 A    
C1    O6    1.296257 A    
C42   H12   1.083812 S    
C38   C39   1.409671 A    
O1    C2    1.301033 A    
O9    C4    1.300751 A    
O14   V3    2.000835 S    
C24   H7    1.079074 S    
V3    O20   1.701339 S    
S4    O38   1.681250 S    
C43   S2    1.773063 S    
C56   H25   1.109086 S    
C34   H11   1.078142 S    
C32   C39   1.411751 A    
C17   C18   1.403920 A    
C2    C48   1.491040 S    
O4    C2    1.295536 A    
C27   C32   1.407348 A    
O17   V4    1.707656 S    
C43   C44   1.402478 A    
O23   C55   1.412662 S    
C22   C23   1.404024 A    
C9    H4    1.082717 S    
C47   C48   1.405120 A    
C57   H30   1.112554 S    
O21   C53   1.409772 S    
O14   C50   1.293793 A    
O18   V4    1.999304 S    
O11   C50   1.297155 A    
S3    O34   1.682346 S    
C37   C38   1.411871 A    
C22   O21   1.383919 S    
C53   H17   1.112149 S    
C30   C31   1.419378 A    
O2    C1    1.297935 A    
C21   C22   1.412027 A    
C49   O16   1.299213 A    
O17   V3    2.148333 S    
C18   S4    1.777940 S    
O38   H36   0.990558 S    
O22   C54   1.411294 S    
C41   C42   1.403148 A    
C53   H16   1.114072 S    
C29   C30   1.418049 A    
C43   C48   1.421039 A    
C4    C10   1.488865 S    
C55   H22   1.110396 S    
C40   S1    1.787114 S    
S2    O29   1.502075 D    
O3    C4    1.297106 A    
S4    O37   1.503606 D    
C24   C25   1.402965 A    
O6    V2    1.994893 S    
O19   V4    1.994830 S    
C8    C9    1.400075 A    
C39   O28   1.384122 S    
O35   C58   1.411228 S    
O2    V1    2.000932 S    
C54   H20   1.112142 S    
C31   C32   1.415933 A    
C23   H9    1.083987 S    
O34   H32   0.990729 S    
C37   C42   1.404684 A    
C25   C52   1.484003 S    
C33   C34   1.403934 A    
C12   C13   1.418198 A    
S3    O33   1.503593 D    
C14   C17   1.404916 A    
C11   C16   1.403802 A    
C35   C40   1.423026 A    
C17   H6    1.081904 S    
C15   C16   1.411528 A    
C9    C10   1.407951 A    
C47   H14   1.083051 S    
O5    V1    1.998420 S    
O8    C3    1.300257 A    
O13   V3    1.998367 S    
C30   C33   1.415177 A    
C6    H2    1.082716 S    
O9    V2    1.999258 S    
C19   C24   1.413060 A    
O7    V2    1.709576 S    
O4    V1    2.004073 S    
O3    V1    2.002690 S    
V1    O10   1.701393 S    
C57   H28   1.109398 S    
C29   O22   1.385018 S    
C36   C37   1.411685 A    
C13   O35   1.384995 S    
S1    O25   1.502060 D    
C58   H35   1.113274 S    
C27   C28   1.399202 A    
C53   H15   1.109315 S    
C5    C6    1.399993 A    
C58   H33   1.112631 S    
C40   C41   1.421007 A    
S2    O30   1.502365 D    
C31   C36   1.418106 A    
O11   V4    1.995438 S    
C11   H5    1.084651 S    
C46   C47   1.404343 A    
C58   H34   1.109339 S    
C28   C29   1.411985 A    
C11   C12   1.404417 A    
C44   C45   1.403752 A    
C8    H3    1.082711 S    
S4    O36   1.500271 D    
V4    O20   2.159634 S    
O26   H24   0.990918 S    
C56   H27   1.112142 S    
O31   H31   0.990386 S    
S1    O26   1.676418 S    
