data_mof_unit_48860.cif
_audit_creation_date              2012-12-10T16:50:03-0500
_audit_creation_method            fapswitch 2.2
_symmetry_space_group_name_H-M    P1
_symmetry_Int_Tables_number       1
_space_group_crystal_system       triclinic
_cell_length_a                    7.804468
_cell_length_b                    8.559526
_cell_length_c                    10.596504
_cell_angle_alpha                 91.265061
_cell_angle_beta                  85.429082
_cell_angle_gamma                 93.635975
_cell_volume                      704.098573718

loop_
_atom_site_label
_atom_site_type_symbol
_atom_type_description
_atom_site_fract_x
_atom_site_fract_y
_atom_site_fract_z
_atom_type_partial_charge
C1    C     C_R   0.545657 0.794590 0.496872 0.920187
C2    C     C_R   0.454358 0.205407 0.503143 0.957266
C3    C     C_R   0.499133 0.502768 0.260759 0.853143
C4    C     C_R   0.422106 0.788779 0.878033 -0.179724
C5    C     C_R   0.379851 0.922305 0.948714 -0.137204
C6    C     C_R   0.375533 0.921076 0.080272 -0.133702
C7    C     C_R   0.413477 0.786326 0.141547 -0.170751
C8    C     C_R   0.455735 0.649692 0.071216 0.092919
C9    C     C_R   0.460106 0.650965 0.938864 0.094233
C10   C     C_R   0.506734 0.514315 0.871338 -0.081852
C11   C     C_R   0.553953 0.381922 0.930209 -0.210036
C12   C     C_R   0.549830 0.380679 0.059273 -0.204834
C13   C     C_R   0.498609 0.511857 0.128592 -0.078683
C14   C     C_2   0.569625 0.958149 0.494885 -0.384217
C15   C     C_2   0.430374 0.041824 0.504949 -0.394969
C16   C     C_R   0.502097 0.503994 0.739199 0.847166
H1    H     H_    0.590248 0.278447 0.876085 0.149597
H2    H     H_    0.935885 0.302008 0.342540 0.339188
H3    H     H_    0.986879 0.618696 0.594721 0.146487
H4    H     H_    0.427058 0.795323 0.776002 0.141293
H5    H     H_    0.351549 0.027287 0.901243 0.140228
H6    H     H_    0.343825 0.025097 0.134988 0.143834
H7    H     H_    0.411195 0.791010 0.243643 0.146354
H8    H     H_    0.584513 0.276674 0.105561 0.146949
H9    H     H_    0.701168 0.009146 0.485161 0.190843
H10   H     H_    0.298833 0.990818 0.514610 0.187856
N1    N     N_2   0.950330 0.457950 0.466250 0.100217
N2    N     N_2   0.049670 0.542050 0.533750 -0.071002
O1    O     O_R   0.389250 0.738570 0.508280 -0.631445
O2    O     O_R   0.678390 0.711630 0.486650 -0.635335
O3    O     O_R   0.355400 0.513470 0.694050 -0.622662
O4    O     O_R   0.644540 0.486530 0.672420 -0.632051
O5    O     O_R   0.321610 0.288370 0.513350 -0.565803
O6    O     O_R   0.610750 0.261430 0.491720 -0.628077
O7    O     O_R   0.355460 0.513470 0.327580 -0.564835
O8    O     O_R   0.644600 0.486530 0.305950 -0.622808
O9    O     O_3   0.029814 0.357360 0.386594 -0.627478
Zn1   Zn    Zn3+2 0.306930 0.517990 0.514440 1.008306
Zn2   Zn    Zn3+2 0.693070 0.482010 0.485560 0.971403

loop_
_geom_bond_atom_site_label_1
_geom_bond_atom_site_label_2
_ccdc_geom_bond_type
O1    Zn1   S    
C8    C9    A    
C11   C12   A    
C8    C13   A    
H3    N2    S    
C3    O7    A    
C16   O4    A    
C9    C10   A    
C12   H8    S    
O5    Zn1   S    
C3    C13   S    
O3    Zn1   S    
N2    Zn1   S    
C2    O6    A    
C1    O1    A    
C7    C8    A    
C10   C16   S    
C16   O3    A    
C2    C15   S    
C6    C7    A    
C3    O8    A    
N1    O9    S    
C7    H7    S    
C2    O5    A    
C1    O2    A    
H2    O9    S    
O2    Zn2   S    
C14   H9    S    
C5    C6    A    
C10   C11   A    
O6    Zn2   S    
C4    H4    S    
O7    Zn1   S    
C5    H5    S    
C12   C13   A    
O4    Zn2   S    
N1    N2    D    
C14   C15   D    
C11   H1    S    
C15   H10   S    
C1    C14   S    
C4    C9    A    
O8    Zn2   S    
N1    Zn2   S    
C4    C5    A    
C6    H6    S    
