data_mof_unit_68303.cif
_audit_creation_date              2012-12-10T20:48:16-0500
_audit_creation_method            fapswitch 2.2
_symmetry_space_group_name_H-M    P1
_symmetry_Int_Tables_number       1
_space_group_crystal_system       triclinic
_cell_length_a                    10.903845
_cell_length_b                    9.157242
_cell_length_c                    8.124689
_cell_angle_alpha                 88.172105
_cell_angle_beta                  90.321175
_cell_angle_gamma                 91.963072
_cell_volume                      810.346331667

loop_
_atom_site_label
_atom_site_type_symbol
_atom_type_description
_atom_site_fract_x
_atom_site_fract_y
_atom_site_fract_z
_atom_type_partial_charge
C1    C     C_R   0.493415 0.217538 0.501125 0.913721
C2    C     C_R   0.257342 0.499023 0.499467 1.045640
C3    C     C_R   0.743450 0.498895 0.501029 0.970987
C4    C     C_R   0.497937 0.782264 0.498332 0.928953
C5    C     C_1   0.496674 0.064588 0.501032 -0.219353
C6    C     C_3   0.073655 0.377356 0.623419 0.319110
C7    C     C_3   0.067159 0.460642 0.324551 0.297728
C8    C     C_3   0.931883 0.382947 0.636103 0.294090
C9    C     C_3   0.925152 0.447994 0.330725 0.308855
C10   C     C_1   0.498087 0.935299 0.497201 -0.217231
C11   C     C_3   0.078892 0.654451 0.561982 0.189737
C12   C     C_3   0.934842 0.661798 0.530452 0.203384
C13   C     C_3   0.121843 0.500233 0.499444 -0.248314
C14   C     C_3   0.880357 0.498306 0.503444 -0.243123
H1    H     H_    0.116446 0.398963 0.745136 0.025496
H2    H     H_    0.090148 0.549849 0.233619 -0.020484
H3    H     H_    0.916830 0.415754 0.762822 -0.039006
H4    H     H_    0.891186 0.524235 0.232878 0.011998
N1    N     N_1   0.500000 0.500030 0.073640 -0.073181
N2    N     N_1   0.500000 0.500030 0.926360 -0.079108
O1    O     O_R   0.500000 0.285340 0.636850 -0.650448
O2    O     O_R   0.500000 0.285340 0.363150 -0.620448
O3    O     O_R   0.314790 0.499970 0.636880 -0.638433
O4    O     O_R   0.314790 0.499970 0.363120 -0.643652
O5    O     O_R   0.685210 0.499970 0.636880 -0.652175
O6    O     O_R   0.685210 0.499970 0.363120 -0.622955
O7    O     O_R   0.500000 0.714650 0.636900 -0.616295
O8    O     O_R   0.500000 0.714650 0.363100 -0.621206
Zn1   Zn    Zn3+2 0.500000 0.499990 0.682780 0.930741
Zn2   Zn    Zn3+2 0.500000 0.499990 0.317220 0.951717
O9    O     O_3   0.109670 0.237598 0.574608 -0.499329
C15   C     C_3   0.115005 0.136862 0.710218 0.204150
H5    H     H_    0.053919 0.041806 0.685983 0.169739
H6    H     H_    0.080756 0.176426 0.828346 0.096474
C16   C     C_3   0.245843 0.090715 0.730189 -0.927477
H7    H     H_    0.305395 0.189344 0.744769 0.283313
H8    H     H_    0.273252 0.033011 0.619623 0.266987
H9    H     H_    0.256453 0.018571 0.840136 0.219869
O10   O     O_3   0.112682 0.324846 0.277218 -0.498684
C17   C     C_3   0.172849 0.333159 0.124300 0.160217
H10   H     H_    0.232173 0.433215 0.105800 0.138342
H11   H     H_    0.103815 0.332458 0.024515 0.082844
C18   C     C_3   0.253448 0.201597 0.116981 -0.752399
H12   H     H_    0.195933 0.102203 0.093194 0.223588
H13   H     H_    0.324240 0.220044 0.020735 0.201354
H14   H     H_    0.301155 0.183932 0.236404 0.279389
O11   O     O_3   0.883397 0.238413 0.615865 -0.545931
C19   C     C_3   0.772031 0.211582 0.698896 0.148174
H15   H     H_    0.702204 0.229866 0.606495 0.194866
H16   H     H_    0.757525 0.280440 0.806712 0.127692
C20   C     C_3   0.757904 0.053139 0.754307 -0.921935
H17   H     H_    0.836806 0.022621 0.833428 0.250336
H18   H     H_    0.671381 0.034573 0.824218 0.236873
H19   H     H_    0.750766 0.984961 0.644740 0.271493
O12   O     O_3   0.881273 0.302320 0.302102 -0.498435
C21   C     C_3   0.821310 0.290463 0.147470 0.150643
H20   H     H_    0.890426 0.281162 0.048932 0.115826
H21   H     H_    0.763114 0.384753 0.115275 0.135227
C22   C     C_3   0.736187 0.155722 0.151361 -0.793528
H22   H     H_    0.696158 0.137251 0.275692 0.274824
H23   H     H_    0.659522 0.170311 0.062650 0.209290
H24   H     H_    0.787979 0.059305 0.117687 0.229542
N3    N     N_2   0.099895 0.661724 0.742034 -0.317972
H25   H     H_    0.046820 0.598308 0.822048 0.206973
C23   C     C_3   0.211021 0.719116 0.818449 -0.730752
H26   H     H_    0.185183 0.796101 0.913790 0.209465
H27   H     H_    0.274560 0.774520 0.729096 0.278918
H28   H     H_    0.259035 0.629429 0.883809 0.238354
N4    N     N_2   0.143960 0.784382 0.486221 -0.288414
H29   H     H_    0.113381 0.879961 0.529896 0.268407
C24   C     C_3   0.194138 0.809085 0.321707 -0.824671
H30   H     H_    0.273124 0.888014 0.329395 0.247752
H31   H     H_    0.127561 0.862310 0.237947 0.235900
H32   H     H_    0.229052 0.712067 0.266084 0.255472
N5    N     N_2   0.878263 0.743518 0.663300 -0.271734
H33   H     H_    0.914323 0.848633 0.665101 0.254205
C25   C     C_3   0.832975 0.697116 0.825706 -0.806372
H34   H     H_    0.743781 0.748235 0.845940 0.266078
H35   H     H_    0.896909 0.736655 0.922826 0.211340
H36   H     H_    0.816839 0.579809 0.844840 0.243007
N6    N     N_2   0.914438 0.749419 0.378096 -0.317912
H37   H     H_    0.963781 0.734131 0.273534 0.215299
C26   C     C_3   0.802960 0.827716 0.351352 -0.750133
H38   H     H_    0.769660 0.813537 0.223235 0.228378
H39   H     H_    0.822802 0.944762 0.373480 0.276356
H40   H     H_    0.730083 0.787615 0.436055 0.251978

loop_
_geom_bond_atom_site_label_1
_geom_bond_atom_site_label_2
_ccdc_geom_bond_type
O12   C21   S    
N3    C23   S    
C1    O1    A    
O7    Zn1   S    
N1    N2    T    
C9    C14   S    
N6    H37   S    
C25   H34   S    
C26   H38   S    
C1    C5    S    
O3    Zn1   S    
C16   H8    S    
C11   N3    S    
C21   H20   S    
N4    C24   S    
C2    C13   S    
C4    O8    A    
C6    H1    S    
C17   C18   S    
O9    C15   S    
C23   H27   S    
C9    O12   S    
C1    O2    A    
C17   H11   S    
C6    O9    S    
C22   H22   S    
N6    C26   S    
N2    Zn1   S    
C25   H35   S    
O5    Zn1   S    
C19   C20   S    
C22   H23   S    
C20   H17   S    
C15   C16   S    
C3    O5    A    
C16   H9    S    
O10   C17   S    
C24   H31   S    
C6    C8    S    
O1    Zn1   S    
C20   H18   S    
C16   H7    S    
C15   H6    S    
N5    H33   S    
N5    C25   S    
O11   C19   S    
C23   H28   S    
C18   H13   S    
C3    C14   S    
C19   H15   S    
C26   H39   S    
C12   C14   S    
O6    Zn2   S    
C18   H12   S    
C2    O4    A    
C4    C10   S    
C4    O7    A    
C25   H36   S    
C7    C9    S    
C17   H10   S    
C22   H24   S    
C8    C14   S    
O2    Zn2   S    
C3    O6    A    
C7    H2    S    
C24   H32   S    
C11   C12   S    
C11   N4    S    
C8    H3    S    
C21   C22   S    
C20   H19   S    
C15   H5    S    
O8    Zn2   S    
C8    O11   S    
C5    C10   T    
C6    C13   S    
C11   C13   S    
C19   H16   S    
C21   H21   S    
C12   N6    S    
N4    H29   S    
C18   H14   S    
O4    Zn2   S    
N3    H25   S    
C9    H4    S    
C7    C13   S    
C26   H40   S    
C24   H30   S    
C23   H26   S    
C12   N5    S    
C2    O3    A    
C7    O10   S    
N1    Zn2   S    
