data_mof_unit_13683.cif
_audit_creation_date              2012-12-10T18:21:15-0500
_audit_creation_method            fapswitch 2.2
_symmetry_space_group_name_H-M    P1
_symmetry_Int_Tables_number       1
_space_group_crystal_system       triclinic
_cell_length_a                    14.91947
_cell_length_b                    14.002041
_cell_length_c                    10.714375
_cell_angle_alpha                 89.411874
_cell_angle_beta                  86.928732
_cell_angle_gamma                 90.967965
_cell_volume                      2234.59170802

loop_
_atom_site_label
_atom_site_type_symbol
_atom_type_description
_atom_site_fract_x
_atom_site_fract_y
_atom_site_fract_z
_atom_type_partial_charge
C1    C     C_R   0.326826 0.499015 0.504098 0.857390
C2    C     C_R   0.039692 0.532866 0.733915 -0.234636
C3    C     C_R   0.090026 0.510202 0.624792 0.125180
C4    C     C_R   0.498052 0.500418 0.256990 0.907843
C5    C     C_R   0.046746 0.479140 0.518504 0.070668
C6    C     C_R   0.097163 0.451966 0.409710 0.080636
C7    C     C_R   0.054295 0.420033 0.305227 -0.244573
C8    C     C_R   0.961764 0.425932 0.301961 0.238190
C9    C     C_R   0.183153 0.519496 0.618703 -0.262922
C10   C     C_R   0.231520 0.495046 0.508971 -0.035668
C11   C     C_R   0.189775 0.458365 0.406668 -0.229671
C12   C     C_3   0.588830 0.516150 0.911507 -0.433316
C13   C     C_R   0.560314 0.799853 0.422942 -0.016690
C14   C     C_R   0.559505 0.203584 0.421609 -0.042515
C15   C     C_R   0.440290 0.796396 0.578030 -0.056552
C16   C     C_R   0.440663 0.200258 0.578577 -0.055399
C17   C     C_R   0.438992 0.897058 0.580183 0.016989
C18   C     C_R   0.439146 0.099524 0.580399 0.016804
C19   C     C_R   0.673896 0.500918 0.500201 0.995856
C20   C     C_R   0.500174 0.949403 0.500294 0.085431
C21   C     C_R   0.500140 0.050645 0.500220 0.088448
C22   C     C_R   0.561515 0.900547 0.420654 -0.004292
C23   C     C_R   0.825550 0.499275 0.394735 -0.095546
C24   C     C_R   0.561132 0.102957 0.420007 0.008457
C25   C     C_R   0.378314 0.946391 0.659873 -0.193597
C26   C     C_R   0.378447 0.046756 0.660065 -0.195451
C27   C     C_R   0.622016 0.053634 0.340615 -0.193494
C28   C     C_R   0.622309 0.953279 0.341090 -0.174155
C29   C     C_R   0.491387 0.499290 0.742001 0.819070
C30   C     C_3   0.431772 0.577791 0.074958 -0.387285
C31   C     C_3   0.458852 0.402844 0.075619 -0.409342
C32   C     C_3   0.431014 0.578797 0.931958 -0.412978
C33   C     C_3   0.457013 0.401064 0.933002 -0.378091
C34   C     C_R   0.770523 0.502401 0.504991 -0.124019
C35   C     C_3   0.596030 0.516849 0.056152 -0.106350
C36   C     C_3   0.497693 0.500815 0.119208 0.009145
C37   C     C_3   0.491289 0.498449 0.877541 0.132796
C38   C     C_2   0.640949 0.612413 0.085159 0.949597
C39   C     C_2   0.656182 0.436626 0.099850 0.952753
C40   C     C_2   0.812758 0.572152 0.294913 0.994651
C41   C     C_2   0.896103 0.550253 0.856754 1.011087
C42   C     C_R   0.808337 0.507235 0.621158 -0.287718
C43   C     C_R   0.901844 0.504223 0.627865 0.058454
C44   C     C_R   0.953364 0.480192 0.518207 0.026183
C45   C     C_R   0.911987 0.464623 0.404647 -0.021120
C46   C     C_R   0.945743 0.527153 0.737954 -0.157866
H1    H     H_    0.448654 0.650419 0.107715 0.227409
H2    H     H_    0.394511 0.239315 0.639607 0.129443
H3    H     H_    0.330803 0.907383 0.722069 0.146571
H4    H     H_    0.331045 0.083079 0.722421 0.146091
H5    H     H_    0.669454 0.092645 0.278303 0.160066
H6    H     H_    0.669953 0.916926 0.279115 0.164304
H7    H     H_    0.362727 0.561365 0.114999 0.162780
H8    H     H_    0.389500 0.390857 0.117272 0.172902
H9    H     H_    0.360999 0.568686 0.902825 0.158230
H10   H     H_    0.387364 0.386055 0.905254 0.160700
H11   H     H_    0.455555 0.650001 0.896208 0.194028
H12   H     H_    0.499260 0.341965 0.107205 0.200207
H13   H     H_    0.500038 0.342078 0.897110 0.208247
H14   H     H_    0.612371 0.585342 0.867449 0.179518
H15   H     H_    0.632610 0.462529 0.864311 0.206420
H16   H     H_    0.764562 0.519477 0.702945 0.154378
H17   H     H_    0.745679 0.702472 0.045197 0.348586
H18   H     H_    0.709406 0.371261 0.246540 0.343637
H19   H     H_    0.870817 0.650651 0.152378 0.378589
H20   H     H_    0.824666 0.426383 0.863040 0.321332
H21   H     H_    0.073638 0.554369 0.816434 0.168053
H22   H     H_    0.218129 0.544482 0.698726 0.124324
H23   H     H_    0.229555 0.437497 0.323858 0.128024
H24   H     H_    0.092804 0.393273 0.224732 0.163685
H25   H     H_    0.607574 0.760984 0.363683 0.207898
H26   H     H_    0.605619 0.245175 0.360496 0.143233
H27   H     H_    0.393805 0.754750 0.638604 0.130484
I1    I     I_    0.902513 0.364496 0.145814 -0.298619
N1    N     N_R   0.500070 0.750030 0.500050 -0.112458
N2    N     N_R   0.500070 0.249970 0.500050 -0.106514
O1    O     O_R   0.367860 0.580280 0.500020 -0.625387
O2    O     O_R   0.725305 0.634598 0.028320 -0.742550
O3    O     O_2   0.681320 0.373040 0.029430 -0.608066
O4    O     O_R   0.677708 0.432138 0.224782 -0.825713
O5    O     O_2   0.747375 0.623452 0.300966 -0.621005
O6    O     O_R   0.880998 0.590663 0.202752 -0.744850
O7    O     O_2   0.915424 0.622986 0.911840 -0.566099
O8    O     O_R   0.829206 0.488980 0.909108 -0.712530
O9    O     O_R   0.367860 0.419720 0.500020 -0.626705
O10   O     O_R   0.500000 0.580270 0.314790 -0.571884
O11   O     O_R   0.500000 0.419730 0.314790 -0.618148
O12   O     O_R   0.632160 0.580270 0.499960 -0.579515
O13   O     O_R   0.632160 0.419730 0.499960 -0.605970
O14   O     O_R   0.500030 0.580270 0.685200 -0.636545
O15   O     O_R   0.500030 0.419730 0.685200 -0.630697
O16   O     O_2   0.603234 0.672102 0.150352 -0.636769
Zn1   Zn    Zn3+2 0.500020 0.607200 0.499990 0.988920
Zn2   Zn    Zn3+2 0.500020 0.392800 0.499990 0.959583

loop_
_geom_bond_atom_site_label_1
_geom_bond_atom_site_label_2
_ccdc_geom_bond_type
C15   N1    A    
C4    C36   S    
C23   C45   A    
C18   C21   A    
C1    O1    A    
C35   C36   S    
C18   C26   A    
C24   C27   A    
C16   H2    S    
C7    H24   S    
C7    C8    A    
C4    O11   A    
C2    C46   A    
C3    C9    A    
C31   H12   S    
C26   H4    S    
C5    C6    A    
C4    O10   A    
C23   C40   S    
C41   O7    D    
O11   Zn2   S    
C38   O16   D    
C12   C37   S    
C17   C20   A    
C14   C24   A    
O13   Zn2   S    
C8    C45   A    
N2    Zn2   S    
C13   N1    A    
C34   C42   A    
C41   C46   S    
C31   C33   S    
C9    C10   A    
C42   H16   S    
C32   H9    S    
C33   H10   S    
C33   H13   S    
C22   C28   A    
H18   O4    S    
C32   H11   S    
C29   O14   A    
C27   H5    S    
C1    O9    A    
C30   H7    S    
C40   O6    S    
C30   H1    S    
C35   C38   S    
C19   O12   A    
C6    C11   A    
C13   H25   S    
C25   C26   A    
C41   O8    S    
C33   C37   S    
C14   N2    A    
C35   C39   S    
C43   C44   A    
C19   O13   A    
O10   Zn1   S    
O9    Zn2   S    
C23   C34   A    
C8    I1    S    
C32   C37   S    
C12   C35   S    
C15   H27   S    
C5    C44   A    
C20   C22   A    
C2    H21   S    
C42   C43   A    
C29   O15   A    
C44   C45   A    
N1    Zn1   S    
O14   Zn1   S    
C15   C17   A    
O12   Zn1   S    
C16   N2    A    
C14   H26   S    
C40   O5    D    
C1    C10   S    
C3    C5    A    
C19   C34   S    
C11   H23   S    
C6    C7    A    
C38   O2    S    
C30   C36   S    
C17   C25   A    
C39   O4    S    
C2    C3    A    
C9    H22   S    
O15   Zn2   S    
C30   C32   S    
C12   H15   S    
C28   H6    S    
H19   O6    S    
O1    Zn1   S    
C13   C22   A    
C31   H8    S    
C43   C46   A    
C25   H3    S    
C10   C11   A    
H20   O8    S    
C12   H14   S    
C20   C21   A    
C16   C18   A    
C21   C24   A    
C29   C37   S    
C27   C28   A    
C31   C36   S    
C39   O3    D    
H17   O2    S    
