data_mof_unit_66371.cif
_audit_creation_date              2012-12-10T19:57:42-0500
_audit_creation_method            fapswitch 2.2
_symmetry_space_group_name_H-M    P1
_symmetry_Int_Tables_number       1
_space_group_crystal_system       triclinic
_cell_length_a                    38.957059
_cell_length_b                    32.09254
_cell_length_c                    21.758468
_cell_angle_alpha                 90.587785
_cell_angle_beta                  124.554954
_cell_angle_gamma                 89.914911
_cell_volume                      22402.5182404

loop_
_atom_site_label
_atom_site_type_symbol
_atom_type_description
_atom_site_fract_x
_atom_site_fract_y
_atom_site_fract_z
_atom_type_partial_charge
C1    C     C_R   0.419291 0.499902 0.419256 0.908225
C2    C     C_R   0.580709 0.500096 0.580741 0.909027
C3    C     C_R   0.919291 0.999902 0.419256 0.908204
C4    C     C_R   0.080709 0.000096 0.580741 0.909005
C5    C     C_R   0.272197 0.526097 0.313231 -0.175368
C6    C     C_R   0.728117 0.525494 0.686254 -0.174685
C7    C     C_R   0.772196 0.026245 0.313018 -0.175355
C8    C     C_R   0.228119 0.025589 0.686373 -0.174668
C9    C     C_R   0.293309 0.499461 0.294164 0.164951
C10   C     C_R   0.706693 0.500285 0.706133 0.165323
C11   C     C_R   0.793308 0.999461 0.294166 0.164935
C12   C     C_R   0.206693 0.000284 0.706131 0.165342
C13   C     C_R   0.271167 0.472809 0.232093 -0.177754
C14   C     C_R   0.728519 0.474950 0.768999 -0.178194
C15   C     C_R   0.771168 0.972662 0.232312 -0.177725
C16   C     C_R   0.228517 0.974853 0.768878 -0.178187
C17   C     C_1   0.162205 0.499692 0.163352 -0.064229
C18   C     C_1   0.837794 0.500028 0.836725 -0.064272
C19   C     C_1   0.662205 0.999692 0.163353 -0.064196
C20   C     C_1   0.337794 0.000027 0.836724 -0.064232
C21   C     C_1   0.337729 0.499556 0.338224 -0.064595
C22   C     C_1   0.662272 0.500343 0.661937 -0.064260
C23   C     C_1   0.837729 0.999556 0.338225 -0.064574
C24   C     C_1   0.162272 0.000343 0.661937 -0.064231
C25   C     C_1   0.375037 0.499688 0.375248 -0.173657
C26   C     C_1   0.624963 0.500290 0.624821 -0.173274
C27   C     C_1   0.875037 0.999688 0.375249 -0.173618
C28   C     C_1   0.124963 0.000290 0.624821 -0.173235
C29   C     C_1   0.124893 0.499843 0.125747 -0.172363
C30   C     C_1   0.875106 0.500000 0.874268 -0.172408
C31   C     C_1   0.624893 0.999843 0.125748 -0.172342
C32   C     C_1   0.375106 1.000000 0.874268 -0.172387
C33   C     C_R   0.499904 0.419291 0.999885 0.904912
C34   C     C_R   0.999903 0.919291 0.999885 0.905035
C35   C     C_R   0.499632 0.498485 0.880389 0.940116
C36   C     C_R   0.500369 0.501524 0.119610 0.936846
C37   C     C_R   0.999632 0.998485 0.880389 0.940193
C38   C     C_R   0.000369 0.001524 0.119610 0.936945
C39   C     C_R   0.500098 0.580693 0.000116 0.911216
C40   C     C_R   0.000098 0.080693 0.000115 0.911284
C41   C     C_R   0.501526 0.500343 0.620705 0.933655
C42   C     C_R   0.498469 0.499644 0.379289 0.936230
C43   C     C_R   0.001526 0.000343 0.620705 0.933639
C44   C     C_R   0.998469 0.999644 0.379288 0.936218
C45   C     C_R   0.999994 0.419418 0.999711 0.904050
C46   C     C_R   0.499994 0.919418 0.999711 0.904052
C47   C     C_R   0.080636 0.499987 0.080878 0.906037
C48   C     C_R   0.919364 0.499977 0.919122 0.906100
C49   C     C_R   0.580636 0.999987 0.080878 0.906088
C50   C     C_R   0.419364 0.999977 0.919122 0.906158
C51   C     C_R   0.000005 0.580685 0.000289 0.905415
C52   C     C_R   0.500005 0.080685 0.000289 0.905544
C53   C     C_R   0.974855 0.728484 0.017325 -0.178267
C54   C     C_R   0.024864 0.728084 0.984284 -0.178185
C55   C     C_R   0.477219 0.228525 0.022537 -0.178223
C56   C     C_R   0.522468 0.228042 0.978976 -0.178121
C57   C     C_R   0.999912 0.706660 0.000969 0.166170
C58   C     C_R   0.499897 0.206660 0.000921 0.166019
C59   C     C_R   0.522363 0.271456 0.978640 -0.179172
C60   C     C_R   0.477116 0.271949 0.022204 -0.178195
C61   C     C_R   0.024760 0.771498 0.983944 -0.179158
C62   C     C_R   0.974752 0.771907 0.016987 -0.178101
C63   C     C_R   0.499682 0.293325 0.000240 0.167201
C64   C     C_R   0.999698 0.793326 0.000277 0.166989
C65   C     C_1   0.999934 0.662244 0.001031 -0.066596
C66   C     C_1   0.499927 0.162243 0.001010 -0.066640
C67   C     C_1   0.499644 0.337740 0.999987 -0.067413
C68   C     C_1   0.999650 0.837740 0.000004 -0.067446
C69   C     C_1   0.499708 0.375044 0.999863 -0.175842
C70   C     C_1   0.999709 0.875043 0.999868 -0.175854
C71   C     C_2   0.528080 0.475478 0.811488 -0.154432
C72   C     C_2   0.471925 0.524529 0.188517 -0.138908
C73   C     C_2   0.028080 0.975478 0.811488 -0.154293
C74   C     C_2   0.971925 0.024530 0.188517 -0.138794
C75   C     C_1   0.999967 0.624937 0.000840 -0.174773
C76   C     C_1   0.499964 0.124937 0.000834 -0.174806
C77   C     C_R   0.989912 0.271403 0.935258 -0.201472
C78   C     C_R   0.011015 0.272473 0.063803 -0.201281
C79   C     C_R   0.489554 0.771401 0.935051 -0.201488
C80   C     C_R   0.511378 0.772473 0.064006 -0.201305
C81   C     C_R   0.000420 0.293493 0.999409 0.049099
C82   C     C_R   0.500423 0.793493 0.999408 0.049103
C83   C     C_R   0.511483 0.729048 0.064580 0.249820
C84   C     C_R   0.489549 0.727965 0.934935 0.250717
C85   C     C_R   0.011118 0.229047 0.064377 0.249831
C86   C     C_R   0.989910 0.227965 0.935143 0.250727
C87   C     C_R   0.500523 0.706706 0.999864 -0.005181
C88   C     C_R   0.000521 0.206706 0.999866 -0.005186
C89   C     C_1   0.000248 0.337894 0.999176 -0.009482
C90   C     C_1   0.500250 0.837894 0.999176 -0.009505
C91   C     C_1   0.500435 0.662200 0.000031 0.090873
C92   C     C_1   0.000434 0.162200 0.000032 0.090872
C93   C     C_1   0.500309 0.624907 0.000126 -0.113628
C94   C     C_1   0.000309 0.124907 0.000126 -0.113640
C95   C     C_1   0.000113 0.375187 0.999248 -0.172760
C96   C     C_1   0.500114 0.875187 0.999248 -0.172786
C97   C     C_2   0.497762 0.494054 0.812765 -0.321680
C98   C     C_2   0.502239 0.505951 0.187237 -0.327784
C99   C     C_2   0.997763 0.994054 0.812765 -0.321622
C100  C     C_2   0.002238 0.005950 0.187237 -0.327786
C101  C     C_2   0.524439 0.471833 0.741001 -0.155785
C102  C     C_2   0.475562 0.528157 0.259001 -0.141773
C103  C     C_2   0.024439 0.971834 0.741001 -0.155717
C104  C     C_2   0.975562 0.028158 0.259001 -0.141733
C105  C     C_2   0.505939 0.502186 0.690879 -0.326601
C106  C     C_2   0.494036 0.497786 0.309095 -0.340006
C107  C     C_2   0.005939 0.002186 0.690879 -0.326600
C108  C     C_2   0.994035 0.997786 0.309095 -0.340025
C109  C     C_R   0.227741 0.472834 0.188858 -0.175530
C110  C     C_R   0.771941 0.474836 0.812185 -0.175664
C111  C     C_R   0.727742 0.972687 0.189078 -0.175534
C112  C     C_R   0.271940 0.974739 0.812064 -0.175675
C113  C     C_R   0.206628 0.499508 0.207866 0.164930
C114  C     C_R   0.793371 0.500052 0.792332 0.164893
C115  C     C_R   0.706628 0.999509 0.207869 0.164939
C116  C     C_R   0.293370 0.000051 0.792331 0.164930
C117  C     C_R   0.228768 0.526123 0.269993 -0.177299
C118  C     C_R   0.771548 0.525381 0.729450 -0.177098
C119  C     C_R   0.728767 0.026271 0.269779 -0.177255
C120  C     C_R   0.271550 0.025476 0.729568 -0.177061
H1    H     H_    0.554675 0.461652 0.861332 0.167233
H2    H     H_    0.445337 0.538371 0.138681 0.171243
H3    H     H_    0.054675 0.961653 0.861333 0.167220
H4    H     H_    0.945339 0.038372 0.138682 0.171290
H5    H     H_    0.955481 0.711970 0.030234 0.144105
H6    H     H_    0.044289 0.711260 0.971559 0.143656
H7    H     H_    0.459693 0.212044 0.039531 0.144199
H8    H     H_    0.540048 0.211185 0.962173 0.143785
H9    H     H_    0.981706 0.287875 0.885439 0.182029
H10   H     H_    0.019142 0.289775 0.113428 0.182147
H11   H     H_    0.481069 0.787874 0.885074 0.182011
H12   H     H_    0.519784 0.789777 0.113790 0.182129
H13   H     H_    0.468994 0.503544 0.761462 0.161970
H14   H     H_    0.531002 0.496448 0.238538 0.160090
H15   H     H_    0.968994 0.003544 0.761462 0.161940
H16   H     H_    0.031001 0.996447 0.238538 0.160087
H17   H     H_    0.538218 0.445214 0.731556 0.167322
H18   H     H_    0.461810 0.554791 0.268474 0.173916
H19   H     H_    0.038219 0.945214 0.731556 0.167369
H20   H     H_    0.961811 0.054792 0.268475 0.173981
H21   H     H_    0.496499 0.530966 0.703961 0.167642
H22   H     H_    0.503454 0.468999 0.295990 0.158101
H23   H     H_    0.996499 0.030966 0.703961 0.167672
H24   H     H_    0.003453 0.968998 0.295989 0.158166
H25   H     H_    0.287439 0.452149 0.217187 0.144272
H26   H     H_    0.712003 0.455382 0.784515 0.142974
H27   H     H_    0.787441 0.951887 0.217573 0.144288
H28   H     H_    0.212002 0.955212 0.784299 0.142982
H29   H     H_    0.210668 0.452199 0.140741 0.145433
H30   H     H_    0.788766 0.455200 0.860887 0.144991
H31   H     H_    0.710670 0.951937 0.141128 0.145419
H32   H     H_    0.288764 0.955030 0.860671 0.144973
H33   H     H_    0.212495 0.546832 0.284824 0.144974
H34   H     H_    0.788069 0.544961 0.713965 0.145356
H35   H     H_    0.712493 0.047094 0.284443 0.144971
H36   H     H_    0.288071 0.045129 0.714177 0.145360
H37   H     H_    0.289271 0.546780 0.361279 0.146301
H38   H     H_    0.711287 0.545140 0.637569 0.146851
H39   H     H_    0.789269 0.047043 0.360897 0.146309
H40   H     H_    0.211289 0.045309 0.637782 0.146854
H41   H     H_    0.459529 0.288811 0.038986 0.143451
H42   H     H_    0.539882 0.287932 0.961622 0.142158
H43   H     H_    0.955318 0.788736 0.029683 0.143667
H44   H     H_    0.044123 0.788007 0.971001 0.142326
O1    O     O_R   0.439010 0.534430 0.439020 -0.615879
O2    O     O_R   0.560990 0.534430 0.560980 -0.610494
O3    O     O_R   0.939010 0.034430 0.439020 -0.615877
O4    O     O_R   0.060990 0.034430 0.560980 -0.610485
O5    O     O_R   0.060990 0.500040 0.112010 -0.614141
O6    O     O_R   0.939010 0.500040 0.887990 -0.614247
O7    O     O_R   0.560990 0.000040 0.112010 -0.614158
O8    O     O_R   0.439010 0.000040 0.887990 -0.614264
O9    O     O_R   0.060980 0.499970 0.009870 -0.614567
O10   O     O_R   0.939020 0.499970 0.990130 -0.614566
O11   O     O_R   0.560980 0.999970 0.009870 -0.614560
O12   O     O_R   0.439020 0.999970 0.990130 -0.614560
O13   O     O_R   0.000010 0.561020 0.051000 -0.615538
O14   O     O_R   0.999990 0.561020 0.949000 -0.615080
O15   O     O_R   0.500010 0.061020 0.051000 -0.615619
O16   O     O_R   0.499990 0.061020 0.949000 -0.615170
O17   O     O_R   0.439010 0.465570 0.438980 -0.615398
O18   O     O_R   0.560990 0.465570 0.561020 -0.620287
O19   O     O_R   0.939010 0.965570 0.438980 -0.615382
O20   O     O_R   0.060990 0.965570 0.561020 -0.620270
O21   O     O_R   0.500010 0.534430 0.590460 -0.616677
O22   O     O_R   0.499990 0.534430 0.409540 -0.611797
O23   O     O_R   0.000010 0.034430 0.590460 -0.616654
O24   O     O_R   0.999990 0.034430 0.409540 -0.611790
O25   O     O_R   0.500010 0.465570 0.590420 -0.617446
O26   O     O_R   0.499990 0.465570 0.409580 -0.623684
O27   O     O_R   0.000010 0.965570 0.590420 -0.617420
O28   O     O_R   0.999990 0.965570 0.409580 -0.623641
O29   O     O_R   0.534430 0.439010 0.034350 -0.620502
O30   O     O_R   0.465570 0.439010 0.965650 -0.615512
O31   O     O_R   0.034430 0.939010 0.034350 -0.620579
O32   O     O_R   0.965570 0.939010 0.965650 -0.615594
O33   O     O_R   0.534420 0.500000 0.943920 -0.615719
O34   O     O_R   0.465580 0.500000 0.056080 -0.617950
O35   O     O_R   0.034420 1.000000 0.943920 -0.615706
O36   O     O_R   0.965580 0.000000 0.056080 -0.617940
O37   O     O_R   0.465560 0.500000 0.875080 -0.619776
O38   O     O_R   0.534440 0.500000 0.124920 -0.618777
O39   O     O_R   0.965560 1.000000 0.875080 -0.619809
O40   O     O_R   0.034440 0.000000 0.124920 -0.618803
O41   O     O_R   0.534430 0.560990 0.034430 -0.608032
O42   O     O_R   0.465570 0.560990 0.965570 -0.613311
O43   O     O_R   0.034430 0.060990 0.034430 -0.608068
O44   O     O_R   0.965570 0.060990 0.965570 -0.613352
O45   O     O_R   1.000000 0.439050 0.051090 -0.612696
O46   O     O_R   1.000000 0.439050 0.948910 -0.613203
O47   O     O_R   0.500000 0.939050 0.051090 -0.612701
O48   O     O_R   0.500000 0.939050 0.948910 -0.613207
Zn1   Zn    Zn3+2 0.500000 0.545980 0.500000 0.990170
Zn2   Zn    Zn3+2 0.000000 0.045980 0.500000 0.990286
Zn3   Zn    Zn3+2 0.500000 0.454020 0.500000 0.968332
Zn4   Zn    Zn3+2 0.000000 0.954020 0.500000 0.968513
Zn5   Zn    Zn3+2 0.545980 0.500000 0.045940 0.984743
Zn6   Zn    Zn3+2 0.454020 0.500000 0.954060 0.983356
Zn7   Zn    Zn3+2 0.045980 0.000000 0.045940 0.984626
Zn8   Zn    Zn3+2 0.954020 0.000000 0.954060 0.983230
Zn9   Zn    Zn3+2 0.000010 0.500050 0.068180 0.981481
Zn10  Zn    Zn3+2 0.999990 0.500050 0.931820 0.981350
Zn11  Zn    Zn3+2 0.500010 0.000050 0.068180 0.981364
Zn12  Zn    Zn3+2 0.499990 0.000050 0.931820 0.981229
Br1   Br    Br    0.474340 0.698918 0.845174 -0.503748
Br2   Br    Br    0.526683 0.701510 0.154599 -0.503182
Br3   Br    Br    0.975202 0.198921 0.845669 -0.503720
Br4   Br    Br    0.025818 0.201509 0.154108 -0.503253

loop_
_geom_bond_atom_site_label_1
_geom_bond_atom_site_label_2
_ccdc_geom_bond_type
C34   O31   A    
O44   Zn8   S    
C74   H4    S    
C40   O44   A    
C80   H12   S    
O12   Zn11  S    
C87   C91   S    
C61   H44   S    
O45   Zn9   S    
C83   C87   A    
C84   C87   A    
C13   H25   S    
C19   C31   T    
C54   C57   A    
C18   C114  S    
O31   Zn7   S    
C17   C113  S    
O30   Zn6   S    
C77   C81   A    
C72   C98   D    
C10   C22   S    
O29   Zn5   S    
C54   H6    S    
C15   C111  A    
O41   Zn5   S    
C12   C16   A    
C41   C105  S    
O39   Zn8   S    
C29   C47   S    
C60   C63   A    
O46   Zn10  S    
C64   C68   S    
O38   Zn5   S    
C30   C48   S    
C51   C75   S    
O37   Zn6   S    
C2    O18   A    
C79   C84   A    
C86   C88   A    
O20   Zn4   S    
C112  C116  A    
C7    H39   S    
C84   Br1   S    
C46   O47   A    
C39   O42   A    
C73   C99   D    
C120  H36   S    
C17   C29   T    
C50   O12   A    
C12   C24   S    
C102  H18   S    
O4    Zn2   S    
C9    C13   A    
C39   C93   S    
C13   C109  A    
O25   Zn3   S    
C47   O5    A    
O6    Zn10  S    
C11   C15   A    
C58   C66   S    
O5    Zn9   S    
C88   C92   S    
O21   Zn1   S    
C73   H3    S    
C62   C64   A    
O11   Zn12  S    
C112  H32   S    
C106  H22   S    
C18   C30   T    
C119  H35   S    
C23   C27   T    
C51   O14   A    
O26   Zn3   S    
C2    O2    A    
C109  C113  A    
C81   C89   S    
C42   O22   A    
C37   O35   A    
C71   C101  S    
C40   O43   A    
C43   O27   A    
C38   O40   A    
C55   C60   A    
C1    C25   S    
C86   Br3   S    
O34   Zn6   S    
O10   Zn9   S    
C36   O38   A    
C31   C49   S    
C80   C83   A    
O33   Zn5   S    
O9    Zn10  S    
O32   Zn8   S    
C20   C32   T    
C7    C11   A    
C48   O10   A    
C44   C108  S    
C101  C105  D    
C97   H13   S    
C99   H15   S    
C63   C67   S    
C101  H17   S    
O40   Zn7   S    
C3    O3    A    
C7    C119  A    
O35   Zn7   S    
C38   C100  S    
C21   C25   T    
C10   C14   A    
C40   C94   S    
C20   C116  S    
C53   C57   A    
C35   O37   A    
C74   C100  D    
C52   C76   S    
C43   C107  S    
O42   Zn6   S    
C116  C120  A    
C115  C119  A    
C5    C117  A    
C67   C69   T    
C89   C95   T    
C61   C64   A    
C109  H29   S    
C52   O16   A    
C5    C9    A    
O8    Zn12  S    
C103  H19   S    
O27   Zn4   S    
C91   C93   T    
C71   C97   D    
C53   C62   A    
C42   O26   A    
O7    Zn11  S    
C62   H43   S    
C16   C112  A    
C19   C115  S    
C8    C12   A    
C79   H11   S    
C92   C94   T    
C60   H41   S    
C37   O39   A    
C41   O21   A    
C2    C26   S    
C85   Br4   S    
C77   H9    S    
C82   C90   S    
C4    O20   A    
C42   C106  S    
C32   C50   S    
C114  C118  A    
C53   H5    S    
C44   O24   A    
C48   O6    A    
C78   C85   A    
O1    Zn1   S    
C108  H24   S    
C55   H7    S    
C33   O30   A    
C118  H34   S    
C5    H37   S    
C77   C86   A    
C117  H33   S    
O18   Zn3   S    
O36   Zn8   S    
C113  C117  A    
C59   C63   A    
C55   C58   A    
C107  H23   S    
C8    H40   S    
C110  C114  A    
C104  C108  D    
C35   O33   A    
C74   C104  S    
O48   Zn12  S    
C85   C88   A    
C34   O32   A    
O19   Zn4   S    
C14   C110  A    
C8    C120  A    
C34   C70   S    
C4    C28   S    
C1    O17   A    
C72   H2    S    
C1    O1    A    
C4    O4    A    
C49   O7    A    
C71   H1    S    
C24   C28   T    
C57   C65   S    
O22   Zn1   S    
C110  H30   S    
C111  H31   S    
C43   O23   A    
C6    H38   S    
C79   C82   A    
C50   O8    A    
O24   Zn2   S    
O17   Zn3   S    
C90   C96   T    
C54   C61   A    
C33   C69   S    
C98   H14   S    
O43   Zn7   S    
C45   O46   A    
C65   C75   T    
C56   C59   A    
C41   O25   A    
C16   H28   S    
C103  C107  D    
C3    C27   S    
C78   H10   S    
C52   O15   A    
C59   H42   S    
C51   O13   A    
C83   Br2   S    
C44   O28   A    
C15   H27   S    
C78   C81   A    
C9    C21   S    
C72   C102  S    
O47   Zn11  S    
C46   O48   A    
C39   O41   A    
C11   C23   S    
C80   C82   A    
C56   C58   A    
O16   Zn12  S    
C38   O36   A    
C56   H8    S    
C36   O34   A    
C105  H21   S    
C45   O45   A    
O23   Zn2   S    
C6    C10   A    
O2    Zn1   S    
C33   O29   A    
C104  H20   S    
C73   C103  S    
C46   C96   S    
C111  C115  A    
C37   C99   S    
C22   C26   T    
C102  C106  D    
O15   Zn11  S    
C68   C70   T    
C14   H26   S    
O14   Zn10  S    
C36   C98   S    
C47   O9    A    
O3    Zn2   S    
O13   Zn9   S    
C35   C97   S    
C3    O19   A    
O28   Zn4   S    
C66   C76   T    
C100  H16   S    
C6    C118  A    
C49   O11   A    
C45   C95   S    
