data_mof_unit_60213.cif
_audit_creation_date              2012-12-10T19:35:19-0500
_audit_creation_method            fapswitch 2.2
_symmetry_space_group_name_H-M    P1
_symmetry_Int_Tables_number       1
_space_group_crystal_system       triclinic
_cell_length_a                    16.398131
_cell_length_b                    16.866879
_cell_length_c                    19.140697
_cell_angle_alpha                 90.961989
_cell_angle_beta                  93.431669
_cell_angle_gamma                 88.940881
_cell_volume                      5282.98731557

loop_
_atom_site_label
_atom_site_type_symbol
_atom_type_description
_atom_site_fract_x
_atom_site_fract_y
_atom_site_fract_z
_atom_type_partial_charge
C1    C     C_R   0.489300 0.652289 0.502606 0.872134
C2    C     C_R   0.510795 0.347732 0.501614 0.881110
C3    C     C_R   0.484481 0.735933 0.522466 -0.046376
C4    C     C_R   0.516864 0.262802 0.512876 -0.040092
C5    C     C_R   0.555421 0.773120 0.549716 -0.165190
C6    C     C_R   0.445635 0.218424 0.514274 -0.177592
C7    C     C_R   0.551147 0.848648 0.578154 -0.148651
C8    C     C_R   0.450701 0.139396 0.532655 -0.150214
C9    C     C_R   0.476631 0.890729 0.575160 0.198217
C10   C     C_R   0.527179 0.104119 0.550399 0.201802
C11   C     C_R   0.405009 0.853518 0.549652 -0.164843
C12   C     C_R   0.598424 0.147780 0.547172 -0.172552
C13   C     C_R   0.408760 0.775981 0.523756 -0.199782
C14   C     C_R   0.593423 0.226859 0.528655 -0.197697
C15   C     C_2   0.474944 0.976502 0.586610 -0.232712
C16   C     C_2   0.535528 0.019596 0.563824 -0.223539
C17   C     C_R   0.757223 0.464354 0.463228 -0.066267
C18   C     C_R   0.241946 0.539461 0.533121 -0.068014
C19   C     C_R   0.842463 0.461977 0.466751 -0.313998
C20   C     C_R   0.156744 0.541875 0.528198 -0.314469
C21   C     C_R   0.886506 0.507451 0.517693 0.150735
C22   C     C_R   0.113709 0.492901 0.479341 0.150184
C23   C     C_R   0.500428 0.498884 0.634489 0.876786
C24   C     C_R   0.499725 0.498591 0.365489 0.877111
C25   C     C_R   0.843495 0.556774 0.563676 0.083429
C26   C     C_R   0.157587 0.440004 0.436997 0.080388
C27   C     C_R   0.757315 0.556246 0.558676 0.373410
C28   C     C_R   0.243748 0.439896 0.443833 0.374822
C29   C     C_2   0.976729 0.499550 0.525538 -0.198735
C30   C     C_2   0.023541 0.500154 0.470633 -0.199793
C31   C     C_R   0.427393 0.484932 0.742726 -0.194784
C32   C     C_R   0.574083 0.479602 0.257656 -0.195286
C33   C     C_R   0.427653 0.470623 0.813776 -0.159347
C34   C     C_R   0.574456 0.465134 0.186198 -0.158842
C35   C     C_R   0.501903 0.461410 0.853301 0.083877
C36   C     C_R   0.500513 0.460055 0.145776 0.082873
C37   C     C_R   0.575970 0.466509 0.820669 -0.163075
C38   C     C_R   0.426139 0.469203 0.177916 -0.156323
C39   C     C_R   0.575697 0.480704 0.749444 -0.159227
C40   C     C_R   0.425780 0.483715 0.249445 -0.154599
C41   C     C_R   0.501367 0.489864 0.710074 -0.033372
C42   C     C_R   0.499757 0.488911 0.289727 -0.038546
C43   C     C_R   0.501094 0.450754 0.069853 0.292884
C44   C     C_R   0.501858 0.451563 0.928914 0.292921
H1    H     H_    0.369156 0.491480 0.713393 0.159017
H2    H     H_    0.632057 0.482669 0.287745 0.156605
H3    H     H_    0.723445 0.428028 0.424860 0.151112
H4    H     H_    0.275058 0.578587 0.569607 0.151816
H5    H     H_    0.995149 0.504766 0.418068 0.163139
H6    H     H_    0.005580 0.494589 0.577923 0.164412
H7    H     H_    0.124615 0.583460 0.560939 0.160718
H8    H     H_    0.873779 0.422956 0.431244 0.159518
H9    H     H_    0.369608 0.467479 0.837662 0.152299
H10   H     H_    0.632710 0.458593 0.162712 0.151816
H11   H     H_    0.634139 0.459942 0.850059 0.154979
H12   H     H_    0.368179 0.466045 0.147858 0.155105
H13   H     H_    0.633565 0.483497 0.725219 0.184963
H14   H     H_    0.367644 0.490506 0.273094 0.183124
H15   H     H_    0.614514 0.743815 0.549938 0.201245
H16   H     H_    0.385916 0.244787 0.501819 0.188268
H17   H     H_    0.649310 0.260006 0.527976 0.162493
H18   H     H_    0.352901 0.747799 0.504287 0.157452
H19   H     H_    0.591125 0.991166 0.546963 0.150305
H20   H     H_    0.418692 0.004508 0.602423 0.149241
H21   H     H_    0.347025 0.885509 0.547011 0.129747
H22   H     H_    0.657935 0.120594 0.559050 0.132101
H23   H     H_    0.394910 0.106041 0.531092 0.131709
H24   H     H_    0.606896 0.875174 0.599901 0.139095
N1    N     N_R   0.573084 0.450169 0.968628 -0.175897
N2    N     N_R   0.429936 0.449839 0.030084 -0.176280
N3    N     N_R   0.572695 0.449774 0.037906 -0.177297
N4    N     N_R   0.430325 0.450217 0.960830 -0.177826
N5    N     N_R   0.716290 0.510230 0.508970 -0.124991
N6    N     N_R   0.283710 0.489770 0.491030 -0.126188
O1    O     O_R   0.422340 0.612130 0.496770 -0.627199
O2    O     O_R   0.577660 0.387870 0.503230 -0.632470
O3    O     O_R   0.561240 0.618700 0.502530 -0.585585
O4    O     O_R   0.438760 0.381300 0.497470 -0.579617
O5    O     O_R   0.430520 0.496720 0.598980 -0.633439
O6    O     O_R   0.569480 0.503280 0.401020 -0.630822
O7    O     O_R   0.569430 0.503290 0.604740 -0.577882
O8    O     O_R   0.430570 0.496710 0.395260 -0.580000
Zn1   Zn    Zn3+2 0.407250 0.495620 0.496160 0.983726
Zn2   Zn    Zn3+2 0.592750 0.504380 0.503840 0.981683
Br1   Br    Br    0.304746 0.369473 0.385577 -0.543044
Br2   Br    Br    0.698205 0.619772 0.623542 -0.560943
C45   C     C_3   0.887204 0.611076 0.616903 -0.869416
H25   H     H_    0.954001 0.613315 0.611820 0.227811
H26   H     H_    0.863785 0.672814 0.610059 0.265427
H27   H     H_    0.876237 0.591562 0.670597 0.262180
C46   C     C_3   0.114831 0.382690 0.385897 -0.866431
H28   H     H_    0.047563 0.383138 0.388425 0.228744
H29   H     H_    0.129153 0.397166 0.331652 0.260817
H30   H     H_    0.136100 0.321173 0.397509 0.265890

loop_
_geom_bond_atom_site_label_1
_geom_bond_atom_site_label_2
_ccdc_geom_bond_type
O5    Zn1   S    
C45   H25   S    
C24   C42   S    
N6    Zn1   S    
O6    Zn2   S    
C28   N6    A    
O2    Zn2   S    
C39   C41   A    
C35   C37   A    
C20   H7    S    
C15   C16   D    
C39   H13   S    
C25   C45   S    
C1    O3    A    
N1    N3    A    
C24   O8    A    
C33   C35   A    
C7    H24   S    
C19   H8    S    
C24   O6    A    
C13   H18   S    
C15   H20   S    
C31   C33   A    
C16   H19   S    
C31   C41   A    
N5    Zn2   S    
C18   C20   A    
C3    C13   A    
C40   C42   A    
C18   N6    A    
C17   N5    A    
O4    Zn1   S    
C29   H6    S    
C33   H9    S    
C40   H14   S    
C5    H15   S    
C1    O1    A    
C6    H16   S    
C4    C6    A    
C46   H28   S    
C5    C7    A    
C6    C8    A    
O3    Zn2   S    
C26   C46   S    
C14   H17   S    
C21   C29   S    
C1    C3    S    
C32   C34   A    
C27   Br2   S    
C2    C4    S    
C29   C30   D    
C2    O4    A    
C46   H29   S    
C44   N1    A    
C35   C44   S    
C9    C11   A    
C10   C12   A    
C30   H5    S    
C20   C22   A    
C34   H10   S    
C43   N2    A    
C45   H26   S    
C31   H1    S    
O7    Zn2   S    
C2    O2    A    
C7    C9    A    
C21   C25   A    
C43   N3    A    
C22   C30   S    
C19   C21   A    
C32   H2    S    
C23   O7    A    
C17   H3    S    
C12   C14   A    
C3    C5    A    
C18   H4    S    
C25   C27   A    
C26   C28   A    
C23   C41   S    
C36   C38   A    
C9    C15   S    
C37   C39   A    
C10   C16   S    
C46   H30   S    
C38   C40   A    
C11   C13   A    
O1    Zn1   S    
C12   H22   S    
C17   C19   A    
C44   N4    A    
C34   C36   A    
C4    C14   A    
C37   H11   S    
C38   H12   S    
C8    H23   S    
C8    C10   A    
O8    Zn1   S    
C22   C26   A    
C45   H27   S    
C28   Br1   S    
C32   C42   A    
C36   C43   S    
N2    N4    A    
C23   O5    A    
C27   N5    A    
C11   H21   S    
