data_mof_unit_35528.cif
_audit_creation_date              2012-12-11T14:57:51-0500
_audit_creation_method            fapswitch 2.2
_symmetry_space_group_name_H-M    P1
_symmetry_Int_Tables_number       1
_space_group_crystal_system       triclinic
_cell_length_a                    6.938992
_cell_length_b                    16.777061
_cell_length_c                    17.046298
_cell_angle_alpha                 100.505673
_cell_angle_beta                  90.385701
_cell_angle_gamma                 90.48837
_cell_volume                      1951.05403962

loop_
_atom_site_label
_atom_site_type_symbol
_atom_type_description
_atom_site_fract_x
_atom_site_fract_y
_atom_site_fract_z
_atom_type_partial_charge
O1    O     O_R   0.506180 0.438940 0.579430 -0.537214
O2    O     O_R   0.170520 0.406230 0.413590 -0.537359
O3    O     O_R   0.005180 0.561060 0.420570 -0.537644
C1    C     C_R   0.339118 0.383392 0.385011 0.696910
O4    O     O_R   0.176140 0.429310 0.578370 -0.547374
O5    O     O_R   0.010830 0.584300 0.586530 -0.535648
C2    C     C_R   0.343343 0.413521 0.605181 0.696836
O6    O     O_R   0.500520 0.415700 0.413470 -0.534971
O7    O     O_3   0.340830 0.550820 0.502480 -0.367637
V1    V     V_3+5 0.064040 0.490570 0.499540 1.413607
O8    O     O_R   0.681400 0.593770 0.586410 -0.537883
C3    C     C_R   0.851247 0.616563 0.614749 0.698447
O9    O     O_R   0.675790 0.570690 0.421630 -0.546951
C4    C     C_R   0.842625 0.586477 0.394806 0.696817
V2    V     V_3+5 0.564650 0.509430 0.500460 1.415852
O10   O     O_3   0.837730 0.449180 0.497520 -0.367758
C5    C     C_R   0.928714 0.860322 0.166340 -0.066315
C6    C     C_R   0.837767 0.639583 0.333489 -0.066267
C7    C     C_R   0.645263 0.698584 0.237790 -0.208442
C8    C     C_R   0.665710 0.643600 0.289641 -0.167714
C9    C     C_R   0.991435 0.691561 0.322933 -0.244777
C10   C     C_R   0.970672 0.748024 0.271259 0.162315
C11   C     C_R   0.795842 0.751874 0.228562 0.162321
C12   C     C_R   0.775061 0.808343 0.176900 -0.244789
C13   C     C_R   0.100797 0.856297 0.210167 -0.167645
C14   C     C_R   0.121257 0.801311 0.262020 -0.208452
H1    H     H_    0.642514 0.809925 0.143207 0.123009
H2    H     H_    0.222519 0.895205 0.203515 0.123448
H3    H     H_    0.510490 0.699952 0.205584 0.121652
H4    H     H_    0.256038 0.799939 0.294218 0.121643
H5    H     H_    0.543979 0.604691 0.296278 0.123395
H6    H     H_    0.123967 0.689986 0.356637 0.122969
C15   C     C_R   0.785619 0.908752 0.729847 -0.138704
C16   C     C_R   0.721130 0.923006 0.656124 -0.126384
C17   C     C_R   0.704178 0.859285 0.591711 -0.118261
C18   C     C_R   0.751369 0.780839 0.600573 -0.135732
C19   C     C_R   0.815183 0.764312 0.674995 0.067366
C20   C     C_R   0.832862 0.829631 0.741008 0.071218
C21   C     C_R   0.865054 0.684656 0.683906 -0.185529
C22   C     C_R   0.932682 0.670376 0.758859 0.071230
C23   C     C_R   0.950378 0.735696 0.824870 0.067361
C24   C     C_R   0.900529 0.815352 0.815956 -0.185469
C25   C     C_R   0.979900 0.591254 0.770025 -0.138583
C26   C     C_R   0.044415 0.577003 0.843746 -0.126412
C27   C     C_R   0.061406 0.640726 0.908154 -0.118264
C28   C     C_R   0.014216 0.719172 0.899290 -0.135715
H7    H     H_    0.799630 0.960577 0.777613 0.099789
H8    H     H_    0.685503 0.983952 0.648829 0.118554
H9    H     H_    0.655396 0.870742 0.534370 0.115677
H10   H     H_    0.965850 0.539427 0.722264 0.099854
H11   H     H_    0.080034 0.516057 0.851042 0.118585
H12   H     H_    0.027159 0.766340 0.951597 0.104403
H13   H     H_    0.565579 0.487703 0.151066 0.118613
C29   C     C_R   0.240748 0.217081 0.396507 -0.139931
C30   C     C_R   0.200980 0.137583 0.405128 -0.117344
C31   C     C_R   0.230991 0.073910 0.341980 -0.127088
C32   C     C_R   0.301067 0.089232 0.269711 -0.135941
C33   C     C_R   0.341050 0.169319 0.258693 0.073953
C34   C     C_R   0.310155 0.234677 0.323588 0.066823
C35   C     C_R   0.414056 0.184448 0.185007 -0.186747
C36   C     C_R   0.456484 0.265265 0.176612 0.066889
C37   C     C_R   0.425590 0.330623 0.241505 0.073935
C38   C     C_R   0.352551 0.315500 0.315184 -0.186884
C39   C     C_R   0.525902 0.282852 0.103704 -0.139998
C40   C     C_R   0.565724 0.362333 0.095105 -0.117365
C41   C     C_R   0.535723 0.426006 0.158252 -0.127187
C42   C     C_R   0.465603 0.410701 0.230499 -0.136103
H14   H     H_    0.217017 0.264293 0.447759 0.106584
H15   H     H_    0.147668 0.125301 0.461329 0.115934
H16   H     H_    0.201180 0.012199 0.349182 0.118563
H17   H     H_    0.325722 0.037515 0.223007 0.097509
H18   H     H_    0.549616 0.235645 0.052447 0.106682
H19   H     H_    0.619071 0.374597 0.038921 0.115977
H20   H     H_    0.440961 0.462419 0.277203 0.097464
C43   C     C_R   0.427222 0.139745 0.833705 -0.066637
C44   C     C_R   0.338500 0.360389 0.666490 -0.066491
C45   C     C_R   0.147301 0.301359 0.762341 -0.207320
C46   C     C_R   0.167915 0.356329 0.710439 -0.168331
C47   C     C_R   0.490548 0.308475 0.676997 -0.243497
C48   C     C_R   0.469535 0.252024 0.728703 0.161819
C49   C     C_R   0.296170 0.248126 0.771511 0.161836
C50   C     C_R   0.275173 0.191672 0.823222 -0.243540
C51   C     C_R   0.597777 0.143800 0.789732 -0.168251
C52   C     C_R   0.618396 0.198784 0.737854 -0.207353
H21   H     H_    0.143820 0.190042 0.856991 0.122961
H22   H     H_    0.718224 0.104904 0.796267 0.123276
H23   H     H_    0.013703 0.299963 0.794646 0.121783
H24   H     H_    0.751986 0.200179 0.705539 0.121770
H25   H     H_    0.047461 0.395207 0.703866 0.123259
H26   H     H_    0.621913 0.310101 0.643235 0.123013
O11   O     O_R   0.265840 0.084300 0.086750 -0.535123
O12   O     O_R   0.589750 0.070740 0.921690 -0.547455
O13   O     O_R   0.755020 0.915730 0.913400 -0.535687
C53   C     C_R   0.422476 0.086573 0.894983 0.696497
O14   O     O_R   0.595830 0.093740 0.086480 -0.537315
O15   O     O_R   0.761150 0.938890 0.079360 -0.537625
C54   C     C_R   0.427315 0.116574 0.115157 0.697202
O16   O     O_R   0.259710 0.061140 0.920790 -0.537063
O17   O     O_3   0.425260 0.949200 0.997610 -0.367657
V3    V     V_3+5 0.702060 0.009430 0.000450 1.413529
O18   O     O_R   0.090530 0.929220 0.078150 -0.546755
C55   C     C_R   0.923760 0.913449 0.105044 0.697013
O19   O     O_R   0.084440 0.906220 0.913360 -0.538107
C56   C     C_R   0.914516 0.883452 0.885100 0.698243
V4    V     V_3+5 0.201450 0.990520 0.999290 1.415939
O20   O     O_3   0.928380 0.050800 0.002390 -0.367771
H27   H     H_    0.738450 0.733672 0.548263 0.104431
H28   H     H_    0.110214 0.629273 0.965491 0.115705

loop_
_geom_bond_atom_site_label_1
_geom_bond_atom_site_label_2
_ccdc_geom_bond_type
C30   C31   A    
O18   C55   A    
O15   C55   A    
C6    C9    A    
C23   C24   A    
C4    C6    S    
O2    C1    A    
C7    C8    A    
C44   C47   A    
C48   C52   A    
C49   C50   A    
C45   C46   A    
C13   H2    S    
C1    C38   S    
C19   C20   A    
O16   V4    S    
C37   C42   A    
C18   C19   A    
C44   C46   A    
C20   C24   A    
O5    C3    A    
C29   H14   S    
C53   O16   A    
C33   C35   A    
V2    O10   S    
C28   H12   S    
C40   H19   S    
C31   C32   A    
C16   C17   A    
O11   V4    S    
C47   H26   S    
O8    V2    S    
C22   C25   A    
O17   V3    S    
C17   H9    S    
C23   C28   A    
C12   H1    S    
O1    V2    S    
O7    V1    S    
C5    C55   S    
C1    O6    A    
C41   C42   A    
O9    C4    A    
C18   H27   S    
O13   C56   A    
C29   C34   A    
C46   H25   S    
O18   V4    S    
O17   V4    S    
C9    H6    S    
C5    C12   A    
C35   C54   S    
C21   C22   A    
O4    C2    A    
O14   V3    S    
C33   C34   A    
C27   C28   A    
C32   H17   S    
C35   C36   A    
C17   C18   A    
C36   C39   A    
C7    C11   A    
C25   C26   A    
C37   C38   A    
C51   C52   A    
C45   C49   A    
C11   C12   A    
O12   C53   A    
C15   C16   A    
O19   V4    S    
C42   H20   S    
O14   C54   A    
O11   C54   A    
H13   C41   S    
O13   V3    S    
C30   H15   S    
O3    C4    A    
C26   H11   S    
C22   C23   A    
C14   H4    S    
O6    V2    S    
C31   H16   S    
O9    V2    S    
C10   C14   A    
C15   H7    S    
C16   H8    S    
O2    V1    S    
C26   C27   A    
O12   V3    S    
C29   C30   A    
O1    C2    A    
V3    O20   S    
C52   H24   S    
C48   C49   A    
C24   C56   S    
O5    V1    S    
O8    C3    A    
C27   H28   S    
C25   H10   S    
C2    C44   S    
C50   H21   S    
V4    O20   S    
C34   C38   A    
C15   C20   A    
C5    C13   A    
C39   C40   A    
C3    C21   S    
C13   C14   A    
O4    V1    S    
C19   C21   A    
O3    V1    S    
V1    O10   S    
C43   C51   A    
C32   C33   A    
O15   V3    S    
C6    C8    A    
C39   H18   S    
O7    V2    S    
C36   C37   A    
C47   C48   A    
C51   H22   S    
C45   H23   S    
C40   C41   A    
C43   C50   A    
O19   C56   A    
C10   C11   A    
C9    C10   A    
C43   C53   S    
C8    H5    S    
C7    H3    S    
