data_mof_unit_5777.cif
_audit_creation_date              2012-12-10T18:45:09-0500
_audit_creation_method            fapswitch 2.2
_symmetry_space_group_name_H-M    P1
_symmetry_Int_Tables_number       1
_space_group_crystal_system       triclinic
_cell_length_a                    10.702397
_cell_length_b                    9.868051
_cell_length_c                    10.765451
_cell_angle_alpha                 92.896716
_cell_angle_beta                  91.1829
_cell_angle_gamma                 90.544071
_cell_volume                      1135.20068362

loop_
_atom_site_label
_atom_site_type_symbol
_atom_type_description
_atom_site_fract_x
_atom_site_fract_y
_atom_site_fract_z
_atom_type_partial_charge
C1    C     C_R   0.260468 0.499733 0.499612 0.982789
C2    C     C_R   0.498078 0.504030 0.740922 0.927971
C3    C     C_R   0.666909 0.689620 0.141015 -0.359269
C4    C     C_R   0.592681 0.746312 0.901554 -0.335294
C5    C     C_R   0.707597 0.810416 0.091528 0.513031
C6    C     C_R   0.666857 0.841083 0.972806 0.520111
C7    C     C_R   0.557503 0.618866 0.947597 0.053241
C8    C     C_R   0.585219 0.598353 0.072826 0.048496
C9    C     C_R   0.531499 0.486357 0.128398 -0.134811
C10   C     C_R   0.495199 0.511390 0.875662 -0.087879
C11   C     C_R   0.476870 0.377466 0.056444 -0.206272
C12   C     C_R   0.739424 0.500467 0.501249 0.855337
C13   C     C_R   0.449222 0.394877 0.932305 -0.215506
C14   C     C_R   0.061638 0.442359 0.395402 -0.094293
C15   C     C_R   0.931672 0.443735 0.395951 -0.062125
C16   C     C_R   0.871875 0.501126 0.500737 -0.178476
C17   C     C_R   0.127857 0.500638 0.499679 -0.179236
C18   C     C_2   0.454998 0.241294 0.106882 1.005758
C19   C     C_2   0.368023 0.290634 0.863856 1.050648
C20   C     C_2   0.126560 0.383439 0.284179 0.971090
C21   C     C_2   0.858617 0.390871 0.284701 0.921772
C22   C     C_2   0.872440 0.605966 0.719205 0.945322
C23   C     C_R   0.937891 0.559346 0.604570 -0.059341
C24   C     C_2   0.138677 0.638483 0.705735 0.960815
C25   C     C_R   0.067667 0.563741 0.602447 -0.083809
C26   C     C_R   0.592089 0.074193 0.562697 0.495929
C27   C     C_R   0.408457 0.065729 0.436762 0.478570
C28   C     C_R   0.592284 0.931224 0.560124 -0.119795
C29   C     C_R   0.408049 0.922823 0.439101 -0.034840
C30   C     C_R   0.511127 0.496024 0.260707 0.933438
H1    H     H_    0.700674 0.666605 0.232984 0.177912
H2    H     H_    0.817598 0.406965 0.102426 0.352866
H3    H     H_    0.847649 0.583939 0.902338 0.350454
H4    H     H_    0.154040 0.806717 0.819877 0.373907
H5    H     H_    0.658711 0.230901 0.655208 0.385209
H6    H     H_    0.344589 0.214144 0.348747 0.389259
H7    H     H_    0.560779 0.779747 0.813500 0.208922
H8    H     H_    0.665680 0.879530 0.608493 0.215541
H9    H     H_    0.335077 0.864170 0.389679 0.190251
H10   H     H_    0.638536 0.204857 0.126839 0.359541
H11   H     H_    0.210254 0.394204 0.898398 0.351801
H12   H     H_    0.803624 0.866291 0.241116 0.344071
H13   H     H_    0.665184 0.972210 0.843497 0.353598
H14   H     H_    0.125413 0.237405 0.145685 0.401154
N1    N     N_R   0.500000 0.857200 0.500000 -0.170235
N2    N     N_R   0.500000 0.142810 0.500000 -0.195905
O1    O     O_R   0.316770 0.614620 0.499990 -0.612162
O2    O     O_R   0.554934 0.163199 0.146414 -0.706905
O3    O     O_2   0.413489 0.184621 0.823512 -0.571163
O4    O     O_R   0.239397 0.309588 0.850746 -0.704856
O5    O     O_3   0.784534 0.901889 0.158391 -0.646856
O6    O     O_3   0.701677 0.964381 0.928150 -0.653305
O7    O     O_2   0.213701 0.444395 0.239974 -0.642858
O8    O     O_R   0.084196 0.260225 0.227739 -0.702121
O9    O     O_2   0.792949 0.289664 0.290995 -0.548540
O10   O     O_R   0.870105 0.453468 0.171845 -0.803552
O11   O     O_2   0.801241 0.701743 0.717090 -0.620545
O12   O     O_R   0.683230 0.614620 0.500010 -0.613523
O13   O     O_R   0.896363 0.542591 0.830340 -0.766691
O14   O     O_2   0.231377 0.588803 0.752169 -0.657630
O15   O     O_R   0.098579 0.766228 0.749771 -0.740585
O16   O     O_3   0.687375 0.139898 0.629430 -0.711372
O17   O     O_3   0.315216 0.123365 0.368664 -0.689828
O18   O     O_R   0.316800 0.385290 0.500000 -0.611173
O19   O     O_R   0.683200 0.385290 0.500000 -0.586003
O20   O     O_R   0.500010 0.614690 0.316770 -0.605895
O21   O     O_R   0.499990 0.614690 0.683230 -0.602872
O22   O     O_R   0.500040 0.385360 0.316770 -0.635289
O23   O     O_R   0.499960 0.385360 0.683230 -0.648762
O24   O     O_2   0.349415 0.194224 0.109014 -0.559581
Zn1   Zn    Zn3+2 0.500000 0.653120 0.500000 0.998602
Zn2   Zn    Zn3+2 0.500000 0.346880 0.500000 1.041750

loop_
_geom_bond_atom_site_label_1
_geom_bond_atom_site_label_2
_ccdc_geom_bond_type
C18   O24   D    
O23   Zn2   S    
C18   O2    S    
C11   C18   S    
C24   O15   S    
C22   O13   S    
H14   O8    S    
N1    Zn1   S    
O19   Zn2   S    
C9    C11   A    
C12   O19   A    
C19   O3    D    
C26   C28   A    
O20   Zn1   S    
C19   O4    S    
C28   H8    S    
H12   O5    S    
O22   Zn2   S    
C17   C25   A    
C29   H9    S    
C22   O11   D    
O18   Zn2   S    
C26   O16   S    
C12   O12   A    
C7    C8    A    
H3    O13   S    
C24   C25   S    
C3    H1    S    
C11   C13   A    
C14   C17   A    
O1    Zn1   S    
C30   O20   A    
C27   O17   S    
C9    C30   S    
C4    C7    A    
C27   N2    A    
C20   O8    S    
H5    O16   S    
C3    C8    A    
C16   C23   A    
O21   Zn1   S    
N2    Zn2   S    
C23   C25   A    
C5    C6    A    
O12   Zn1   S    
C30   O22   A    
H13   O6    S    
C27   C29   A    
C26   N2    A    
C15   C16   A    
C2    O23   A    
C1    O18   A    
C14   C20   S    
H11   O4    S    
C15   C21   S    
C4    H7    S    
C8    C9    A    
C4    C6    A    
C2    O21   A    
H4    O15   S    
C7    C10   A    
C21   O10   S    
H10   O2    S    
C28   N1    A    
C13   C19   S    
C14   C15   A    
C1    O1    A    
C21   O9    D    
C24   O14   D    
C6    O6    S    
C22   C23   S    
C1    C17   S    
H2    O10   S    
H6    O17   S    
C5    O5    S    
C12   C16   S    
C29   N1    A    
C20   O7    D    
C3    C5    A    
C10   C13   A    
C2    C10   S    
