data_mof_unit_59510.cif
_audit_creation_date              2012-12-11T16:04:59-0500
_audit_creation_method            fapswitch 2.2
_symmetry_space_group_name_H-M    P1
_symmetry_Int_Tables_number       1
_space_group_crystal_system       triclinic
_cell_length_a                    10.637362
_cell_length_b                    10.674305
_cell_length_c                    16.897667
_cell_angle_alpha                 99.152378
_cell_angle_beta                  98.766298
_cell_angle_gamma                 61.87344
_cell_volume                      1663.93167495

loop_
_atom_site_label
_atom_site_type_symbol
_atom_type_description
_atom_site_fract_x
_atom_site_fract_y
_atom_site_fract_z
_atom_type_partial_charge
C1    C     C_R   0.355867 0.774092 0.398882 0.570379
C2    C     C_3   0.697318 0.420534 0.257964 -0.159949
C3    C     C_3   0.819971 0.344439 0.321636 0.063106
C4    C     C_3   0.871452 0.206794 0.265555 0.385394
C5    C     C_3   0.970977 0.250767 0.232935 -0.118934
C6    C     C_3   0.916862 0.390833 0.289542 -0.154952
C7    C     C_3   0.795243 0.467078 0.225248 -0.116576
C8    C     C_3   0.848267 0.327892 0.169648 0.000119
C9    C     C_3   0.439558 0.729604 0.206026 -0.148512
C10   C     C_3   0.326139 0.719112 0.248272 -0.141586
C11   C     C_3   0.348742 0.815485 0.321012 0.050708
C12   C     C_R   0.370832 0.346602 0.358876 0.536141
C13   C     C_3   0.462946 0.824765 0.280080 0.100560
C14   C     C_3   0.343630 0.959657 0.244293 -0.126218
C15   C     C_3   0.230888 0.948835 0.287039 -0.122702
C16   C     C_3   0.206418 0.853765 0.213825 -0.065377
C17   C     C_3   0.320300 0.862923 0.172254 0.025980
C18   C     C_3   0.459814 0.263642 0.775869 0.383597
C19   C     C_3   0.403154 0.404402 0.738611 -0.110562
C20   C     C_3   0.341464 0.338931 0.664814 -0.008585
C21   C     C_3   0.401090 0.198105 0.701509 -0.068768
C22   C     C_3   0.257960 0.257858 0.738436 0.034640
C23   C     C_R   0.780156 0.374538 0.402977 0.568382
C24   C     C_3   0.198616 0.399387 0.700601 -0.120879
C25   C     C_3   0.259606 0.463242 0.776515 -0.185757
C26   C     C_3   0.319000 0.321501 0.813286 0.050742
C27   C     C_1   0.763948 0.370574 0.716417 -0.009305
C28   C     C_1   0.807701 0.332460 0.783207 0.048594
C29   C     C_1   0.360069 0.760066 0.715089 -0.025320
C30   C     C_1   0.329133 0.805507 0.783158 -0.013721
C31   C     C_R   0.889284 0.311837 0.089714 0.543329
C32   C     C_R   0.319449 0.299982 0.120032 0.532061
C33   C     C_R   0.291617 0.896640 0.090319 0.540925
C34   C     C_R   0.379939 0.714495 0.631426 0.535129
C35   C     C_R   0.876195 0.303088 0.862926 0.591798
C36   C     C_R   0.308114 0.293172 0.891781 0.574495
C37   C     C_R   0.283907 0.877167 0.860649 0.559228
C38   C     C_R   0.368425 0.347341 0.585991 0.536380
C39   C     C_R   0.717113 0.411360 0.635718 0.522105
C40   C     C_1   0.344557 0.336314 0.275070 -0.051378
C41   C     C_1   0.332314 0.327099 0.203775 -0.049922
C42   C     C_3   0.750848 0.280924 0.200841 -0.101372
Cr1   Cr    Cr6+3 0.608340 0.611040 0.520430 1.059029
Cr2   Cr    Cr6+3 0.287650 0.601120 0.489350 1.057193
Cr3   Cr    Cr6+3 0.604040 0.287870 0.490280 1.100340
Cr4   Cr    Cr6+3 0.054020 0.052700 0.970850 1.081897
Cr5   Cr    Cr6+3 0.059230 0.375120 0.993390 1.043760
Cr6   Cr    Cr6+3 0.374950 0.061200 0.992340 1.070274
H1    H     H_    0.585499 0.485554 0.273318 0.120731
H2    H     H_    0.351700 0.058063 0.239844 0.134810
H3    H     H_    0.154136 0.035413 0.326565 0.173660
H4    H     H_    0.100871 0.864507 0.185678 0.192477
H5    H     H_    0.464665 0.463445 0.736580 0.083707
H6    H     H_    0.458467 0.089693 0.669927 0.159822
H7    H     H_    0.091581 0.453705 0.667460 0.167200
H8    H     H_    0.203065 0.571017 0.808893 0.145048
H9    H     H_    0.682451 0.237638 0.163046 0.143189
H10   H     H_    0.082353 0.185985 0.216935 0.107053
H11   H     H_    0.985727 0.433705 0.327223 0.147111
H12   H     H_    0.764977 0.572403 0.205226 0.167784
H13   H     H_    0.317926 0.620238 0.251572 0.125334
H14   H     H_    0.518281 0.644041 0.167025 0.112203
O1    O     O_R   0.751220 0.499230 0.435170 -0.501013
O2    O     O_R   0.297880 0.469080 0.560050 -0.517437
O3    O     O_R   0.489720 0.254590 0.564810 -0.508155
O4    O     O_R   0.725220 0.304230 0.585080 -0.466415
O5    O     O_3   0.500010 0.500010 0.500020 -0.323421
O6    O     O_R   0.171830 0.913880 0.057510 -0.528558
O7    O     O_R   0.940690 0.186050 0.054730 -0.497064
O8    O     O_R   0.920470 0.405720 0.075010 -0.513852
O9    O     O_R   0.196690 0.370460 0.084120 -0.498598
O10   O     O_R   0.412990 0.180750 0.091610 -0.507390
O11   O     O_R   0.366620 0.943130 0.065760 -0.500469
O12   O     O_R   0.477220 0.727600 0.436870 -0.482698
O13   O     O_R   0.160510 0.906330 0.879210 -0.492912
O14   O     O_R   0.930190 0.179050 0.889450 -0.444949
O15   O     O_R   0.909140 0.398170 0.896710 -0.518461
O16   O     O_R   0.186190 0.363460 0.918830 -0.504346
O17   O     O_R   0.401670 0.173200 0.913310 -0.459464
O18   O     O_R   0.356120 0.936130 0.900470 -0.485506
O19   O     O_3   0.162740 0.163010 0.985530 -0.272665
O20   O     O_R   0.258650 0.745120 0.411470 -0.483498
O21   O     O_R   0.297070 0.467240 0.395960 -0.505015
O22   O     O_R   0.488830 0.252610 0.387790 -0.472989
O23   O     O_R   0.724400 0.302390 0.420980 -0.454317
O24   O     O_R   0.752100 0.501210 0.612190 -0.502651
O25   O     O_R   0.478040 0.729440 0.600970 -0.493961
O26   O     O_R   0.259530 0.747110 0.588490 -0.468399
F1    F     F_    0.594144 0.195449 0.815985 -0.618333
I1    I     I_    0.141533 0.139143 0.720313 -0.311095
F2    F     F_    0.906960 0.074796 0.288726 -0.626930
I2    I     I_    0.658221 0.822801 0.336131 -0.285483

loop_
_geom_bond_atom_site_label_1
_geom_bond_atom_site_label_2
_ccdc_geom_bond_type
C18   C21   S    
C3    C23   S    
C2    C7    S    
C1    C11   S    
C25   H8    S    
C3    C6    S    
Cr4   O14   S    
Cr1   O1    S    
C7    C8    S    
C32   O10   A    
C14   H2    S    
Cr2   O2    S    
C24   H7    S    
C5    H10   S    
C1    O12   A    
Cr6   O17   S    
C8    C42   S    
Cr2   O20   S    
C5    C6    S    
C15   C16   S    
Cr6   O19   S    
C12   O22   A    
C18   C19   S    
C9    C13   S    
Cr4   O7    S    
C11   C15   S    
C31   O8    A    
C20   C24   S    
C28   C35   S    
C27   C39   S    
C16   C17   S    
C18   C26   S    
Cr3   O5    S    
C32   C41   S    
C15   H3    S    
C9    C10   S    
C4    F2    S    
Cr2   O21   S    
Cr1   O12   S    
C23   O1    A    
C37   O13   A    
C13   C14   S    
C18   F1    S    
C14   C17   S    
C17   C33   S    
Cr6   O10   S    
Cr6   O11   S    
C42   H9    S    
Cr4   O13   S    
C32   O9    A    
C38   O2    A    
C37   O18   A    
C35   O14   A    
C9    H14   S    
C24   C25   S    
C1    O20   A    
C29   C34   S    
C35   O15   A    
C12   O21   A    
C12   C40   S    
Cr3   O23   S    
Cr5   O8    S    
Cr4   O6    S    
C29   C30   T    
C2    H1    S    
Cr4   O19   S    
C20   C38   S    
C38   O3    A    
C22   I1    S    
C34   O26   A    
C9    C17   S    
Cr5   O9    S    
C33   O11   A    
C40   C41   T    
C13   I2    S    
Cr3   O3    S    
C39   O4    A    
C22   C24   S    
C10   H13   S    
Cr5   O15   S    
C3    C4    S    
C7    H12   S    
Cr3   O4    S    
C26   C36   S    
C8    C31   S    
C6    H11   S    
C16   H4    S    
C4    C5    S    
C36   O17   A    
C5    C8    S    
C6    C7    S    
C39   O24   A    
Cr1   O25   S    
Cr6   O18   S    
C19   C20   S    
C2    C3    S    
C25   C26   S    
C23   O23   A    
C36   O16   A    
C11   C13   S    
C19   H5    S    
C21   H6    S    
C4    C42   S    
C2    C42   S    
Cr2   O26   S    
C34   O25   A    
Cr5   O19   S    
C19   C25   S    
Cr1   O24   S    
C10   C11   S    
Cr3   O22   S    
C31   O7    A    
C20   C21   S    
C30   C37   S    
Cr1   O5    S    
C22   C26   S    
C27   C28   T    
C14   C15   S    
Cr2   O5    S    
C10   C16   S    
Cr5   O16   S    
C21   C22   S    
C33   O6    A    
