data_mof_unit_47839.cif
_audit_creation_date              2012-12-10T18:45:09-0500
_audit_creation_method            fapswitch 2.2
_symmetry_space_group_name_H-M    P1
_symmetry_Int_Tables_number       1
_space_group_crystal_system       triclinic
_cell_length_a                    10.762309
_cell_length_b                    9.937992
_cell_length_c                    10.705257
_cell_angle_alpha                 87.89602
_cell_angle_beta                  93.760623
_cell_angle_gamma                 87.738353
_cell_volume                      1140.74607419

loop_
_atom_site_label
_atom_site_type_symbol
_atom_type_description
_atom_site_fract_x
_atom_site_fract_y
_atom_site_fract_z
_atom_type_partial_charge
C1    C     C_R   0.261259 0.501653 0.507656 0.893465
C2    C     C_R   0.487639 0.499051 0.738384 0.909984
C3    C     C_R   0.503948 0.762937 0.099557 -0.081261
C4    C     C_R   0.384101 0.734622 0.865054 -0.114643
C5    C     C_R   0.454237 0.876383 0.030289 -0.068845
C6    C     C_R   0.388552 0.861459 0.915886 -0.065125
C7    C     C_R   0.446147 0.621183 0.928978 0.107170
C8    C     C_R   0.489096 0.631855 0.054122 0.100436
C9    C     C_R   0.516709 0.510233 0.126244 -0.139171
C10   C     C_R   0.472574 0.498894 0.870581 -0.091500
C11   C     C_R   0.531849 0.387784 0.067908 -0.190386
C12   C     C_R   0.740517 0.496591 0.498670 0.883271
C13   C     C_R   0.511676 0.382616 0.940800 -0.156491
C14   C     C_R   0.075831 0.387128 0.569783 -0.077904
C15   C     C_R   0.948213 0.373534 0.544989 -0.114576
C16   C     C_R   0.874768 0.489277 0.498587 -0.118099
C17   C     C_R   0.130078 0.503033 0.521432 -0.106811
C18   C     C_2   0.153182 0.281279 0.644911 1.002434
C19   C     C_2   0.898700 0.236978 0.560098 1.061369
C20   C     C_2   0.628706 0.122651 0.703258 0.896676
C21   C     C_2   0.342232 0.157714 0.321411 1.011257
C22   C     C_2   0.678764 0.842549 0.656344 1.006272
C23   C     C_R   0.931038 0.607019 0.460942 -0.153691
C24   C     C_2   0.305215 0.876059 0.358930 0.914954
C25   C     C_R   0.058007 0.612621 0.469831 -0.160168
C26   C     C_R   0.571187 0.064054 0.588993 -0.032906
C27   C     C_R   0.421223 0.078844 0.418137 -0.026210
C28   C     C_R   0.579664 0.921100 0.580650 -0.033952
C29   C     C_R   0.414236 0.935603 0.424845 -0.074577
C30   C     C_R   0.508356 0.502901 0.260233 0.903684
H1    H     H_    0.560209 0.295331 0.120569 0.214803
H2    H     H_    0.099974 0.701311 0.433526 0.192367
H3    H     H_    0.669771 0.100409 0.890087 0.344539
H4    H     H_    0.314364 0.216253 0.139239 0.352598
H5    H     H_    0.860227 0.782439 0.675667 0.343893
H6    H     H_    0.120209 0.894989 0.312157 0.342567
H7    H     H_    0.529349 0.288107 0.897385 0.195608
H8    H     H_    0.557658 0.780951 0.185545 0.165977
H9    H     H_    0.333759 0.726418 0.774931 0.147983
H10   H     H_    0.465733 0.975701 0.066054 0.185247
H11   H     H_    0.345515 0.948726 0.864220 0.147846
H12   H     H_    0.221605 0.088928 0.660259 0.331982
H13   H     H_    0.893464 0.067400 0.669144 0.366840
H14   H     H_    0.876836 0.694345 0.421255 0.203183
N1    N     N_R   0.500000 0.857200 0.500000 -0.171098
N2    N     N_R   0.500000 0.142810 0.500000 -0.156025
O1    O     O_R   0.316770 0.614620 0.499990 -0.623712
O2    O     O_R   0.163900 0.150076 0.602632 -0.724241
O3    O     O_2   0.844346 0.185876 0.470983 -0.582705
O4    O     O_R   0.923236 0.162621 0.673208 -0.770367
O5    O     O_2   0.684742 0.226145 0.697133 -0.579630
O6    O     O_R   0.620490 0.056458 0.819834 -0.819976
O7    O     O_2   0.241610 0.207242 0.346244 -0.546039
O8    O     O_R   0.377680 0.163862 0.198432 -0.863588
O9    O     O_2   0.657882 0.791216 0.757831 -0.579322
O10   O     O_R   0.799060 0.835719 0.614890 -0.825018
O11   O     O_2   0.318158 0.782625 0.290000 -0.605859
O12   O     O_R   0.683230 0.614620 0.500010 -0.621766
O13   O     O_R   0.186100 0.933629 0.370983 -0.764718
O14   O     O_R   0.316800 0.385290 0.500000 -0.596964
O15   O     O_R   0.683200 0.385290 0.500000 -0.564937
O16   O     O_R   0.500010 0.614690 0.316770 -0.596555
O17   O     O_R   0.499990 0.614690 0.683230 -0.613733
O18   O     O_R   0.500040 0.385360 0.316770 -0.614113
O19   O     O_R   0.499960 0.385360 0.683230 -0.592056
O20   O     O_2   0.210963 0.311185 0.741423 -0.653291
Zn1   Zn    Zn3+2 0.500000 0.653120 0.500000 0.999762
Zn2   Zn    Zn3+2 0.500000 0.346880 0.500000 1.045862

loop_
_geom_bond_atom_site_label_1
_geom_bond_atom_site_label_2
_ccdc_geom_bond_type
N1    Zn1   S    
C7    C10   A    
C15   C19   S    
H13   O4    S    
N2    Zn2   S    
C22   O9    D    
C30   O18   A    
C18   O20   D    
C11   C13   A    
C19   O3    D    
C26   C28   A    
O15   Zn2   S    
C4    H9    S    
C22   O10   S    
C13   H7    S    
O19   Zn2   S    
C12   O12   A    
C2    O19   A    
C25   H2    S    
C30   O16   A    
C21   C27   S    
C17   C25   A    
C7    C8    A    
C20   O6    S    
H12   O2    S    
H3    O6    S    
C21   O7    D    
C12   O15   A    
C9    C11   A    
C19   O4    S    
C5    C6    A    
C20   C26   S    
C9    C30   S    
C4    C7    A    
O18   Zn2   S    
C27   N2    A    
O1    Zn1   S    
H4    O8    S    
C16   C23   A    
C23   C25   A    
C21   O8    S    
O17   Zn1   S    
C28   N1    A    
C5    H10   S    
O16   Zn1   S    
C26   N2    A    
C11   H1    S    
C15   C16   A    
C2    C10   S    
O12   Zn1   S    
C24   C29   S    
C2    O17   A    
O14   Zn2   S    
C4    C6    A    
C3    C8    A    
C24   O11   D    
C1    O14   A    
C27   C29   A    
C14   C18   S    
C20   O5    D    
C1    O1    A    
C22   C28   S    
C14   C17   A    
H5    O10   S    
C14   C15   A    
H6    O13   S    
C1    C17   S    
C10   C13   A    
C24   O13   S    
C23   H14   S    
C12   C16   S    
C3    H8    S    
C29   N1    A    
C8    C9    A    
C3    C5    A    
C6    H11   S    
C18   O2    S    
