data_mof_unit_34537.cif
_audit_creation_date              2012-12-10T21:00:47-0500
_audit_creation_method            fapswitch 2.2
_symmetry_space_group_name_H-M    P1
_symmetry_Int_Tables_number       1
_space_group_crystal_system       triclinic
_cell_length_a                    18.113601
_cell_length_b                    18.168492
_cell_length_c                    18.339381
_cell_angle_alpha                 120.06526
_cell_angle_beta                  89.998275
_cell_angle_gamma                 119.930748
_cell_volume                      4268.0106475

loop_
_atom_site_label
_atom_site_type_symbol
_atom_type_description
_atom_site_fract_x
_atom_site_fract_y
_atom_site_fract_z
_atom_type_partial_charge
C1    C     C_R   0.111971 0.220133 0.609573 0.492898
C2    C     C_3   0.450552 0.897432 0.947412 0.064186
C3    C     C_R   0.849115 0.821702 0.037728 -0.118474
C4    C     C_R   0.862509 0.781143 0.955142 -0.102420
C5    C     C_R   0.865119 0.694256 0.917289 -0.086761
C6    C     C_R   0.855845 0.648811 0.962659 -0.124013
C7    C     C_R   0.844611 0.690645 0.046148 -0.071898
C8    C     C_3   0.445509 0.031957 0.021281 -0.110880
C9    C     C_3   0.554384 0.968039 0.978765 -0.111986
C10   C     C_3   0.412950 0.436245 0.448169 -0.110058
C11   C     C_3   0.586957 0.563817 0.551695 -0.109312
C12   C     C_3   0.477505 0.402961 0.443140 -0.126050
C13   C     C_3   0.522404 0.597099 0.556729 -0.124463
C14   C     C_3   0.550750 0.500150 0.449378 0.069445
C15   C     C_3   0.449169 0.499911 0.550513 0.068403
C16   C     C_3   0.487151 0.533505 0.453608 -0.125114
C17   C     C_R   0.887857 0.779843 0.390378 0.507539
C18   C     C_3   0.512769 0.466549 0.546255 -0.127719
C19   C     C_R   0.277204 0.208059 0.769735 -0.125352
C20   C     C_R   0.725853 0.840323 0.254126 -0.147867
C21   C     C_R   0.392925 0.781169 0.888270 0.498233
C22   C     C_R   0.607058 0.218827 0.111744 0.496857
C23   C     C_R   0.216291 0.155326 0.686546 -0.125053
C24   C     C_R   0.790027 0.885892 0.332402 -0.157699
C25   C     C_R   0.123104 0.102130 0.672061 0.053501
C26   C     C_R   0.873090 0.899188 0.331106 0.049099
C27   C     C_R   0.090862 0.101919 0.742179 0.301396
C28   C     C_3   0.983786 0.430617 0.413892 -0.110260
C29   C     C_R   0.892381 0.867503 0.250301 0.326093
C30   C     C_R   0.152885 0.154123 0.826054 0.012819
C31   C     C_R   0.826013 0.818785 0.170790 0.016939
C32   C     C_R   0.245813 0.207660 0.839051 -0.141142
C33   C     C_R   0.743676 0.807007 0.173734 -0.146001
C34   C     C_R   0.002859 0.943629 0.529600 -0.117690
C35   C     C_R   0.996880 0.056291 0.470682 -0.157563
C36   C     C_R   0.943707 0.892160 0.445522 0.031367
C37   C     C_R   0.056720 0.107726 0.554237 0.007035
C38   C     C_R   0.940020 0.948713 0.415614 0.003767
C39   C     C_3   0.016188 0.569355 0.586112 -0.109673
C40   C     C_R   0.059932 0.051253 0.584533 -0.007586
C41   C     C_R   0.627406 0.512662 0.754116 -0.120165
C42   C     C_R   0.370876 0.484496 0.245001 -0.129085
C43   C     C_R   0.585399 0.485515 0.808916 -0.100126
C44   C     C_R   0.415301 0.513992 0.192349 -0.103481
C45   C     C_R   0.111276 0.501232 0.890094 0.500629
C46   C     C_R   0.888966 0.499003 0.110100 0.502957
C47   C     C_R   0.579864 0.557691 0.884790 0.056964
C48   C     C_R   0.420000 0.442278 0.115261 0.050121
C49   C     C_R   0.618251 0.657856 0.906036 -0.035600
C50   C     C_3   0.444319 0.965788 0.925288 -0.121731
C51   C     C_R   0.378734 0.340402 0.090884 -0.049778
C52   C     C_R   0.658389 0.683896 0.849981 -0.084516
C53   C     C_R   0.335131 0.311520 0.144165 -0.085219
C54   C     C_R   0.663442 0.611563 0.774375 -0.096586
C55   C     C_R   0.331112 0.383486 0.221113 -0.102438
C56   C     C_R   0.586695 0.527210 0.999382 -0.157665
C57   C     C_R   0.414106 0.475165 0.002181 -0.161964
C58   C     C_R   0.550127 0.499170 0.055616 0.026581
C59   C     C_R   0.450336 0.502281 0.945392 0.020679
C60   C     C_R   0.462627 0.471917 0.056964 -0.042140
C61   C     C_3   0.555559 0.034190 0.074760 -0.122706
C62   C     C_R   0.537946 0.529799 0.944215 -0.044819
C63   C     C_R   0.204419 0.851646 0.044942 -0.109410
C64   C     C_R   0.799307 0.155493 0.967981 -0.102089
C65   C     C_R   0.163972 0.766957 0.050808 -0.083531
C66   C     C_R   0.836351 0.238263 0.959688 -0.087309
C67   C     C_R   0.083499 0.672285 0.984122 0.063728
C68   C     C_R   0.920998 0.331227 0.019807 0.060837
C69   C     C_R   0.392394 0.500025 0.607687 0.504832
C70   C     C_R   0.607595 0.500012 0.392293 0.504912
C71   C     C_R   0.043494 0.663571 0.912071 -0.050468
C72   C     C_3   0.548840 0.037867 0.957385 -0.124219
C73   C     C_R   0.968472 0.340268 0.087703 -0.060525
C74   C     C_R   0.084307 0.748321 0.906304 -0.090035
C75   C     C_R   0.930770 0.257713 0.096284 -0.094338
C76   C     C_R   0.164761 0.842262 0.972646 -0.089507
C77   C     C_R   0.846313 0.165330 0.036394 -0.085570
C78   C     C_R   0.986483 0.578850 0.042934 -0.163071
C79   C     C_R   0.015027 0.422505 0.958414 -0.159795
C80   C     C_R   0.945575 0.497838 0.053709 0.014488
C81   C     C_R   0.055202 0.502930 0.946939 0.016294
C82   C     C_R   0.960556 0.418894 0.011295 -0.035147
C83   C     C_3   0.451025 0.962111 0.042650 -0.123759
C84   C     C_R   0.041029 0.582521 0.990055 -0.039033
C85   C     C_R   0.394088 0.499562 0.888047 0.508933
C86   C     C_R   0.605988 0.500698 0.112156 0.510507
C87   C     C_R   0.108914 0.500256 0.607773 0.502055
C88   C     C_R   0.891076 0.499733 0.392228 0.502303
C89   C     C_3   0.078394 0.526559 0.483532 -0.125411
C90   C     C_3   0.921579 0.473414 0.516472 -0.125644
C91   C     C_3   0.042584 0.595278 0.517639 -0.122927
C92   C     C_3   0.957390 0.404695 0.482366 -0.125205
C93   C     C_3   0.948802 0.499374 0.448855 0.066566
C94   C     C_3   0.549352 0.102555 0.052631 0.064278
C95   C     C_3   0.051173 0.500600 0.551148 0.065795
C96   C     C_3   0.974381 0.118534 0.754907 -0.102481
C97   C     C_3   0.034797 0.967505 0.254185 -0.131298
C98   C     C_R   0.121646 0.154862 0.900915 0.034933
C99   C     C_R   0.057251 0.061093 0.889867 -0.065719
C100  C     C_R   0.027796 0.062421 0.960730 -0.118592
C101  C     C_R   0.062115 0.157086 0.042903 -0.106197
C102  C     C_R   0.125810 0.250681 0.054342 -0.106851
C103  C     C_R   0.155826 0.249737 0.983853 -0.104363
C104  C     C_R   0.840607 0.776875 0.083895 0.038964
H1    H     H_    0.076714 0.673499 0.531228 0.107265
H2    H     H_    0.992660 0.100165 0.449009 0.124025
H3    H     H_    0.696114 0.632529 0.732050 0.096410
H4    H     H_    0.296546 0.360732 0.261792 0.096859
H5    H     H_    0.631977 0.457009 0.695890 0.093276
H6    H     H_    0.367042 0.539870 0.304212 0.095216
H7    H     H_    0.557487 0.408592 0.792527 0.092156
H8    H     H_    0.445482 0.592285 0.211190 0.098083
H9    H     H_    0.615882 0.715020 0.965162 0.096322
H10   H     H_    0.380894 0.283785 0.031081 0.099640
H11   H     H_    0.143648 0.548426 0.470888 0.103570
H12   H     H_    0.923262 0.326475 0.468779 0.104390
H13   H     H_    0.856326 0.451549 0.529119 0.103011
H14   H     H_    0.686946 0.760730 0.865980 0.090754
H15   H     H_    0.303767 0.233112 0.125376 0.099693
H16   H     H_    0.653470 0.546367 0.997674 0.138467
H17   H     H_    0.347385 0.456242 0.003898 0.130355
H18   H     H_    0.196334 0.907796 0.968099 0.097504
H19   H     H_    0.817376 0.101320 0.042877 0.093892
H20   H     H_    0.266518 0.924551 0.096404 0.092354
H21   H     H_    0.734223 0.083684 0.921367 0.092891
H22   H     H_    0.195377 0.774888 0.106921 0.096878
H23   H     H_    0.294092 0.248279 0.902796 0.111374
H24   H     H_    0.799294 0.230083 0.906694 0.088138
H25   H     H_    0.981444 0.590943 0.860094 0.088811
H26   H     H_    0.034072 0.411408 0.134248 0.094532
H27   H     H_    0.053588 0.741135 0.850390 0.087950
H28   H     H_    0.967120 0.265298 0.149246 0.086420
H29   H     H_    0.976868 0.640748 0.076644 0.153073
H30   H     H_    0.025537 0.361262 0.925619 0.129977
H31   H     H_    0.969813 0.373632 0.342417 0.116315
H32   H     H_    0.030164 0.626339 0.657587 0.115320
H33   H     H_    0.589196 0.070308 0.922716 0.099038
H34   H     H_    0.692456 0.769988 0.113317 0.114229
H35   H     H_    0.410463 0.929666 0.077229 0.101878
H36   H     H_    0.398046 0.936507 0.863136 0.106017
H37   H     H_    0.601826 0.063462 0.136911 0.105161
H38   H     H_    0.400935 0.058897 0.039202 0.112274
H39   H     H_    0.598961 0.941100 0.960857 0.111303
H40   H     H_    0.460109 0.323396 0.395491 0.105449
H41   H     H_    0.539808 0.676667 0.604386 0.107572
H42   H     H_    0.340592 0.383775 0.406704 0.114763
H43   H     H_    0.659384 0.616372 0.592939 0.119851
H44   H     H_    0.478365 0.561698 0.415124 0.111368
H45   H     H_    0.349063 0.249657 0.780661 0.113556
H46   H     H_    0.521533 0.438263 0.584657 0.110101
H47   H     H_    0.982277 0.145246 0.710791 0.137795
H48   H     H_    0.013523 0.186551 0.825918 0.123235
H49   H     H_    0.902006 0.077276 0.748988 0.131434
H50   H     H_    0.048599 0.037965 0.317280 0.112145
H51   H     H_    0.011338 0.963962 0.195773 0.114919
H52   H     H_    0.099606 0.975371 0.254485 0.143540
H53   H     H_    0.030441 0.987079 0.826737 0.132640
H54   H     H_    0.978419 0.990053 0.951978 0.094576
H55   H     H_    0.039200 0.157888 0.097634 0.094896
H56   H     H_    0.661753 0.829977 0.255612 0.115862
H57   H     H_    0.151985 0.324009 0.117868 0.108366
H58   H     H_    0.204789 0.322884 0.993603 0.106481
H59   H     H_    0.845910 0.888157 0.065878 0.087215
H60   H     H_    0.869201 0.815837 0.919666 0.093190
H61   H     H_    0.873945 0.661924 0.852669 0.097041
H62   H     H_    0.857220 0.581092 0.933135 0.100180
H63   H     H_    0.837263 0.654843 0.080659 0.168740
H64   H     H_    0.241692 0.156832 0.633486 0.101226
H65   H     H_    0.775000 0.910774 0.394236 0.109046
H66   H     H_    0.006038 0.899867 0.552000 0.146417
O1    O     O_3   0.251620 0.500000 0.748430 -0.433895
O2    O     O_R   0.570330 0.268390 0.136490 -0.551281
O3    O     O_R   0.134680 0.268390 0.572240 -0.550757
O4    O     O_R   0.865320 0.731610 0.427760 -0.551191
O5    O     O_R   0.306670 0.731630 0.863510 -0.536318
O6    O     O_R   0.693330 0.268370 0.136490 -0.537846
O7    O     O_R   0.135450 0.439270 0.865360 -0.560985
O8    O     O_R   0.864550 0.560730 0.134640 -0.563981
O9    O     O_R   0.429670 0.560710 0.692610 -0.538928
O10   O     O_R   0.570330 0.439290 0.307390 -0.539044
O11   O     O_R   0.308540 0.439240 0.865360 -0.547008
O12   O     O_3   0.748380 0.500000 0.251570 -0.439566
O13   O     O_R   0.691460 0.560760 0.134640 -0.563319
O14   O     O_R   0.133580 0.439310 0.571150 -0.546651
O15   O     O_R   0.866420 0.560690 0.428850 -0.544743
O16   O     O_R   0.430770 0.560690 0.864590 -0.542934
O17   O     O_R   0.569230 0.439310 0.135410 -0.540316
O18   O     O_R   0.133580 0.560760 0.692610 -0.549742
O19   O     O_R   0.866420 0.439240 0.307390 -0.548263
O20   O     O_3   0.998920 0.048605 0.727869 -0.585302
O21   O     O_3   0.972538 0.876064 0.248065 -0.556659
O22   O     O_R   0.134680 0.560740 0.864590 -0.534559
O23   O     O_R   0.865320 0.439260 0.135410 -0.531479
O24   O     O_R   0.306670 0.439270 0.571150 -0.551354
O25   O     O_R   0.693330 0.560730 0.428850 -0.548042
O26   O     O_R   0.135450 0.268370 0.694460 -0.548276
O27   O     O_R   0.864550 0.731630 0.305540 -0.512777
O28   O     O_R   0.429670 0.731610 0.863510 -0.551388
Zn1   Zn    Zn3+2 0.207400 0.586780 0.791530 0.930870
Zn2   Zn    Zn3+2 0.792600 0.413220 0.208470 0.932936
Zn3   Zn    Zn3+2 0.208510 0.413230 0.792630 0.914847
Zn4   Zn    Zn3+2 0.791490 0.586770 0.207370 0.932951
Zn5   Zn    Zn3+2 0.383150 0.586740 0.791530 0.926262
Zn6   Zn    Zn3+2 0.616850 0.413260 0.208470 0.926152
Zn7   Zn    Zn3+2 0.207400 0.413250 0.618010 0.916086
Zn8   Zn    Zn3+2 0.792600 0.586750 0.381990 0.928690

loop_
_geom_bond_atom_site_label_1
_geom_bond_atom_site_label_2
_ccdc_geom_bond_type
C3    C104  A    
C15   C18   S    
C49   H9    S    
C89   H11   S    
C11   C18   S    
C89   C95   S    
C101  C102  A    
O10   Zn6   S    
C28   H31   S    
C73   C75   A    
C64   C77   A    
C46   O8    A    
C66   C68   A    
C9    C72   S    
C13   H41   S    
C21   O28   A    
C70   O10   A    
C50   C72   S    
C47   C62   S    
C63   C65   A    
C63   H20   S    
C9    H39   S    
C47   C49   A    
C75   H28   S    
C6    H62   S    
C1    O3    A    
C74   C76   A    
C54   H3    S    
C90   C93   S    
O12   Zn6   S    
C32   H23   S    
C35   C37   A    
C24   C26   A    
C37   C40   A    
C10   C15   S    
C25   C40   S    
C5    C6    A    
C11   C14   S    
C78   C80   A    
C57   C59   A    
C71   H25   S    
C63   C76   A    
C58   C60   A    
C98   C103  A    
C96   H48   S    
C22   C94   S    
C97   H52   S    
C96   O20   S    
O2    Zn6   S    
C91   H1    S    
C100  C101  A    
O1    Zn1   S    
C2    C50   S    
C71   C74   A    
C73   H26   S    
C8    H38   S    
C48   C51   A    
C20   C24   A    
C66   H24   S    
C70   O25   A    
C65   C67   A    
O24   Zn7   S    
C87   C95   S    
C31   C33   A    
C17   O27   A    
C28   C89   S    
C27   O20   S    
C5    H61   S    
O1    Zn7   S    
C39   C90   S    
C67   C71   A    
C34   H66   S    
C1    C37   S    
C72   C94   S    
C97   H51   S    
C86   O17   A    
C41   H5    S    
C74   H27   S    
C27   C30   A    
C41   C43   A    
C2    C83   S    
C14   C70   S    
C42   C44   A    
O6    Zn2   S    
C19   C32   A    
C58   C86   S    
C83   H35   S    
C52   C54   A    
C48   C60   S    
C39   H32   S    
C53   C55   A    
C88   O19   A    
C15   C69   S    
C45   C81   S    
C51   H10   S    
C50   H36   S    
C90   H13   S    
C1    O26   A    
C8    C94   S    
C80   C82   A    
C61   C83   S    
C87   O14   A    
C79   C81   A    
C61   C94   S    
C26   C38   S    
O7    Zn3   S    
C59   C62   A    
O18   Zn1   S    
C21   O5    A    
C68   C73   A    
C96   H47   S    
O17   Zn6   S    
C92   C95   S    
O14   Zn7   S    
C12   H40   S    
C28   C93   S    
O12   Zn8   S    
C64   C66   A    
O1    Zn3   S    
C19   C23   A    
C59   C85   S    
C9    C61   S    
C78   C84   A    
C42   C55   A    
C91   C93   S    
C92   H12   S    
C45   O22   A    
C90   C92   S    
C96   H49   S    
C13   C15   S    
C33   H34   S    
C49   C52   A    
O5    Zn1   S    
C35   C38   A    
C2    C21   S    
C29   O21   S    
O12   Zn2   S    
O27   Zn4   S    
C28   C92   S    
C97   H50   S    
C24   H65   S    
C75   C77   A    
C39   C95   S    
C87   O18   A    
C10   C12   S    
C10   H42   S    
C20   C33   A    
C44   H8    S    
O19   Zn2   S    
C61   H37   S    
C88   O15   A    
C17   C36   S    
O9    Zn5   S    
C98   C99   A    
C7    C104  A    
C99   H53   S    
C86   O13   A    
C56   C62   A    
C89   C91   S    
C3    C4    A    
C8    C50   S    
O22   Zn1   S    
C81   C84   A    
C17   O4    A    
C46   O23   A    
C85   O16   A    
C79   H30   S    
C7    H63   S    
C88   C93   S    
C72   H33   S    
C103  H58   S    
C85   O11   A    
C14   C16   S    
O12   Zn4   S    
O13   Zn4   S    
O15   Zn8   S    
C39   C91   S    
O11   Zn3   S    
C8    C83   S    
C12   C14   S    
C4    C5    A    
C57   C60   A    
C79   C82   A    
C22   O6    A    
C53   H15   S    
C6    C7    A    
C56   H16   S    
C3    H59   S    
C25   C27   A    
O23   Zn2   S    
C30   C98   S    
C99   C100  A    
C55   H4    S    
C16   H44   S    
C76   H18   S    
C31   C104  S    
O8    Zn4   S    
C42   H6    S    
C68   C82   S    
C29   C31   A    
C35   H2    S    
C10   C16   S    
C65   H22   S    
C30   C32   A    
C45   O7    A    
C11   C13   S    
C11   H43   S    
O25   Zn8   S    
C67   C84   S    
C102  H57   S    
C36   C38   A    
C69   O24   A    
C19   H45   S    
C56   C58   A    
O16   Zn5   S    
C34   C36   A    
C4    H60   S    
C23   C25   A    
O1    Zn5   S    
C102  C103  A    
C78   H29   S    
C41   C54   A    
C69   O9    A    
C57   H17   S    
C23   H64   S    
C43   H7    S    
C100  H54   S    
C97   O21   S    
C101  H55   S    
C26   C29   A    
C64   H21   S    
C20   H56   S    
C13   C16   S    
C12   C18   S    
O28   Zn5   S    
O4    Zn8   S    
C34   C40   A    
O3    Zn7   S    
C46   C80   S    
C51   C53   A    
O26   Zn3   S    
C18   H46   S    
C2    C9    S    
C43   C47   A    
C22   O2    A    
C44   C48   A    
C77   H19   S    
C52   H14   S    
