data_mof_unit_28905.cif
_audit_creation_date              2012-12-11T14:07:18-0500
_audit_creation_method            fapswitch 2.2
_symmetry_space_group_name_H-M    P1
_symmetry_Int_Tables_number       1
_space_group_crystal_system       triclinic
_cell_length_a                    19.707841
_cell_length_b                    17.419753
_cell_length_c                    15.44513
_cell_angle_alpha                 90.115049
_cell_angle_beta                  54.111874
_cell_angle_gamma                 89.865319
_cell_volume                      4295.76088964

loop_
_atom_site_label
_atom_site_type_symbol
_atom_type_description
_atom_site_fract_x
_atom_site_fract_y
_atom_site_fract_z
_atom_type_partial_charge
C1    C     C_R   0.363859 0.190078 0.004060 0.488289
C2    C     C_R   0.379777 0.803449 0.987835 0.381968
C3    C     C_R   0.863845 0.690074 0.004079 0.488283
C4    C     C_R   0.879777 0.303449 0.987835 0.381971
C5    C     C_R   0.639451 0.896873 0.097861 -0.086037
C6    C     C_R   0.664698 0.088257 0.059993 -0.089201
C7    C     C_R   0.139459 0.396877 0.097852 -0.086038
C8    C     C_R   0.164699 0.588256 0.059991 -0.089208
C9    C     C_R   0.701014 0.155029 0.998124 0.155682
C10   C     C_R   0.660799 0.821178 0.060022 0.143332
C11   C     C_R   0.201016 0.655027 0.998120 0.155686
C12   C     C_R   0.160810 0.321184 0.060007 0.143317
C13   C     C_R   0.629306 0.821045 0.690534 0.089684
C14   C     C_R   0.629277 0.177685 0.688916 0.117444
C15   C     C_R   0.129319 0.321048 0.690530 0.089673
C16   C     C_R   0.129274 0.677685 0.688916 0.117442
C17   C     C_3   0.217897 0.133080 0.524501 0.998706
C18   C     C_3   0.269706 0.840246 0.512275 0.915624
C19   C     C_3   0.717895 0.633082 0.524500 0.998686
C20   C     C_3   0.769715 0.340244 0.512274 0.915607
C21   C     C_3   0.169529 0.181731 0.629991 -0.600910
C22   C     C_3   0.188216 0.802012 0.605060 -0.564123
C23   C     C_3   0.669523 0.681730 0.629991 -0.600874
C24   C     C_3   0.688224 0.302013 0.605061 -0.564076
C25   C     C_3   0.323839 0.247963 0.431474 0.121774
C26   C     C_3   0.355341 0.717189 0.445943 0.205511
C27   C     C_3   0.823838 0.747964 0.431483 0.121775
C28   C     C_3   0.855343 0.217182 0.445936 0.205491
C29   C     C_3   0.699206 0.738470 0.422363 0.361644
C30   C     C_3   0.755709 0.243340 0.394598 0.283612
C31   C     C_3   0.199199 0.238462 0.422370 0.361557
C32   C     C_3   0.255711 0.743335 0.394597 0.283616
C33   C     C_3   0.266355 0.189508 0.421505 -0.320803
C34   C     C_3   0.319148 0.781565 0.412498 -0.236946
C35   C     C_3   0.766357 0.689511 0.421506 -0.320820
C36   C     C_3   0.819151 0.281563 0.412495 -0.236927
C37   C     C_3   0.675491 0.768318 0.599751 -0.176610
C38   C     C_3   0.695691 0.214849 0.588558 -0.183832
C39   C     C_3   0.175500 0.268319 0.599749 -0.176604
C40   C     C_3   0.195688 0.714849 0.588558 -0.183830
C41   C     C_3   0.771126 0.786756 0.541343 0.190965
C42   C     C_3   0.783774 0.189384 0.559694 0.170155
C43   C     C_3   0.271135 0.286753 0.541335 0.190984
C44   C     C_3   0.283770 0.689390 0.559699 0.170148
C45   C     C_R   0.404075 0.803064 0.209924 0.406073
C46   C     C_R   0.360435 0.180648 0.217289 0.476603
C47   C     C_R   0.904077 0.303063 0.209922 0.406067
C48   C     C_R   0.860440 0.680650 0.217290 0.476636
C49   C     C_3   0.637928 0.772861 0.533499 0.218507
C50   C     C_3   0.687968 0.198435 0.495214 0.306339
C51   C     C_3   0.137934 0.272864 0.533501 0.218586
C52   C     C_3   0.187970 0.698430 0.495212 0.306346
C53   C     C_2   0.264973 0.701020 0.989070 -0.246088
C54   C     C_2   0.210828 0.268974 0.073152 -0.333520
C55   C     C_2   0.764971 0.201020 0.989074 -0.246095
C56   C     C_2   0.710801 0.768960 0.073190 -0.333522
C57   C     C_2   0.806295 0.255871 0.913637 0.539588
C58   C     C_2   0.724670 0.696451 0.035874 0.460724
C59   C     C_2   0.306296 0.755871 0.913634 0.539587
C60   C     C_2   0.224688 0.196463 0.035850 0.460726
C61   C     C_R   0.362092 0.891002 0.900068 -0.099250
C62   C     C_R   0.334742 0.091613 0.941074 -0.168402
C63   C     C_R   0.862091 0.391002 0.900068 -0.099260
C64   C     C_R   0.834734 0.591607 0.941090 -0.168403
C65   C     C_R   0.348384 0.073463 0.302827 0.468574
C66   C     C_R   0.411252 0.894861 0.301901 0.529933
C67   C     C_R   0.848386 0.573465 0.302829 0.468579
C68   C     C_R   0.911255 0.394860 0.301899 0.529936
C69   C     C_R   0.306230 0.162374 0.989373 -0.083706
C70   C     C_R   0.344370 0.816294 0.935602 -0.108110
C71   C     C_R   0.806212 0.662363 0.989404 -0.083683
C72   C     C_R   0.844369 0.316293 0.935603 -0.108103
C73   C     C_R   0.389079 0.819213 0.308657 -0.055576
C74   C     C_R   0.317643 0.147683 0.317469 -0.021043
C75   C     C_R   0.889083 0.319211 0.308655 -0.055584
C76   C     C_R   0.817649 0.647687 0.317470 -0.021040
C77   C     C_R   0.651956 0.183645 0.969314 -0.021344
C78   C     C_R   0.632443 0.804783 0.999459 0.021893
C79   C     C_R   0.151958 0.683643 0.969310 -0.021341
C80   C     C_R   0.132449 0.304786 0.999450 0.021909
C81   C     C_R   0.612728 0.805460 0.788138 -0.114097
C82   C     C_R   0.614507 0.193281 0.786443 -0.108126
C83   C     C_R   0.112734 0.305462 0.788136 -0.114087
C84   C     C_R   0.114503 0.693282 0.786443 -0.108146
C85   C     C_R   0.597225 0.105944 0.695222 0.582783
C86   C     C_R   0.608313 0.898162 0.689262 0.603091
C87   C     C_R   0.097223 0.605943 0.695223 0.582776
C88   C     C_R   0.108321 0.398165 0.689259 0.603091
H1    H     H_    0.603114 0.663911 0.686554 0.293080
H2    H     H_    0.632319 0.322767 0.610795 0.299633
H3    H     H_    0.103119 0.163916 0.686557 0.293081
H4    H     H_    0.132315 0.822762 0.610786 0.299635
H5    H     H_    0.195022 0.170699 0.676512 0.166981
H6    H     H_    0.172843 0.819584 0.682745 0.167457
H7    H     H_    0.695014 0.670699 0.676514 0.166975
H8    H     H_    0.672858 0.319584 0.682746 0.167453
H9    H     H_    0.376224 0.217511 0.423074 0.113160
H10   H     H_    0.405875 0.741887 0.449126 0.175756
H11   H     H_    0.876219 0.717512 0.423094 0.113164
H12   H     H_    0.905882 0.241874 0.449114 0.175744
H13   H     H_    0.789812 0.759423 0.589105 0.116980
H14   H     H_    0.792002 0.219622 0.616529 0.181469
H15   H     H_    0.289824 0.259417 0.589091 0.116977
H16   H     H_    0.291994 0.719630 0.616537 0.181464
H17   H     H_    0.731508 0.788608 0.369891 0.111929
H18   H     H_    0.790286 0.199578 0.329849 0.118211
H19   H     H_    0.231495 0.288595 0.369880 0.111926
H20   H     H_    0.290292 0.699572 0.329850 0.118217
H21   H     H_    0.625950 0.829712 0.517245 0.105829
H22   H     H_    0.699757 0.136293 0.475005 0.103224
H23   H     H_    0.125965 0.329716 0.517241 0.105800
H24   H     H_    0.199762 0.636289 0.475006 0.103210
H25   H     H_    0.265784 0.699376 0.058772 0.128802
H26   H     H_    0.252695 0.297305 0.086595 0.205050
H27   H     H_    0.765782 0.199377 0.058777 0.128803
H28   H     H_    0.752657 0.797284 0.086660 0.205034
H29   H     H_    0.355076 0.917102 0.842234 0.140196
H30   H     H_    0.308802 0.054174 0.911516 0.158267
H31   H     H_    0.855075 0.417101 0.842235 0.140193
H32   H     H_    0.808794 0.554166 0.911534 0.158272
H33   H     H_    0.654853 0.238824 0.935777 0.137803
H34   H     H_    0.636191 0.752366 0.959819 0.167503
H35   H     H_    0.154855 0.738822 0.935771 0.137804
H36   H     H_    0.136201 0.252370 0.959806 0.167489
H37   H     H_    0.617828 0.751353 0.817915 0.170145
H38   H     H_    0.626597 0.245051 0.813409 0.148998
H39   H     H_    0.117834 0.251354 0.817913 0.170139
H40   H     H_    0.126592 0.745054 0.813409 0.148991
H41   H     H_    0.647531 0.923530 0.154536 0.145998
H42   H     H_    0.684509 0.057515 0.102398 0.131417
H43   H     H_    0.147542 0.423535 0.154522 0.146000
H44   H     H_    0.184511 0.557515 0.102395 0.131415
N1    N     N_R   0.408680 0.130160 0.995800 -0.078903
N2    N     N_R   0.408680 0.869840 0.995800 -0.071359
N3    N     N_R   0.908680 0.630160 0.995800 -0.078907
N4    N     N_R   0.908680 0.369840 0.995800 -0.071361
N5    N     N_R   0.421680 0.867580 0.153120 -0.100873
N6    N     N_R   0.421680 0.132420 0.153120 -0.118904
N7    N     N_R   0.921680 0.367580 0.153120 -0.100876
N8    N     N_R   0.921680 0.632420 0.153120 -0.118917
N9    N     N_R   0.403730 0.921770 0.935950 -0.074968
N10   N     N_R   0.403730 0.078230 0.935950 -0.092571
N11   N     N_R   0.903730 0.421770 0.935950 -0.074969
N12   N     N_R   0.903730 0.578230 0.935950 -0.092577
N13   N     N_R   0.426630 0.075970 0.212960 -0.135798
N14   N     N_R   0.426630 0.924030 0.212960 -0.099711
N15   N     N_R   0.926630 0.575970 0.212960 -0.135798
N16   N     N_R   0.926630 0.424030 0.212960 -0.099709
N17   N     N_R   0.591320 0.134600 0.004200 -0.056555
N18   N     N_R   0.591320 0.865400 0.004200 -0.067383
N19   N     N_R   0.091320 0.634600 0.004200 -0.056557
N20   N     N_R   0.091320 0.365400 0.004200 -0.067383
N21   N     N_R   0.578320 0.867660 0.846880 -0.077223
N22   N     N_R   0.578320 0.132340 0.846880 -0.074771
N23   N     N_R   0.078320 0.367660 0.846880 -0.077224
N24   N     N_R   0.078320 0.632340 0.846880 -0.074770
N25   N     N_R   0.573370 0.074390 0.787040 -0.115668
N26   N     N_R   0.573370 0.925610 0.787040 -0.105558
N27   N     N_R   0.073370 0.574390 0.787040 -0.115668
N28   N     N_R   0.073370 0.425610 0.787040 -0.105559
N29   N     N_R   0.596270 0.927870 0.064040 -0.062623
N30   N     N_R   0.596270 0.072130 0.064040 -0.059327
N31   N     N_R   0.096270 0.427870 0.064040 -0.062625
N32   N     N_R   0.096270 0.572130 0.064040 -0.059326
Ni1   Ni    Ni4+2 0.500000 0.131190 0.000000 0.320134
Ni2   Ni    Ni4+2 0.500000 0.868810 0.000000 0.323444
Ni3   Ni    Ni4+2 0.000000 0.631190 0.000000 0.320126
Ni4   Ni    Ni4+2 1.000000 0.368810 0.000000 0.323445
Ni5   Ni    Ni4+2 0.488650 0.000000 0.862740 0.248753
Ni6   Ni    Ni4+2 0.988650 0.500000 0.862740 0.248750
Ni7   Ni    Ni4+2 0.511350 0.000000 0.137260 0.277358
Ni8   Ni    Ni4+2 0.011350 0.500000 0.137260 0.277362
Cl1   Cl    Cl    0.416534 0.276777 0.941339 -0.569918
Cl2   Cl    Cl    0.433294 0.716402 0.964983 -0.560912
Cl3   Cl    Cl    0.916504 0.776778 0.941361 -0.569899
Cl4   Cl    Cl    0.933295 0.216402 0.964981 -0.560898
Cl5   Cl    Cl    0.137840 0.080158 0.527842 -0.297166
Cl6   Cl    Cl    0.234692 0.923574 0.484439 -0.446080
Cl7   Cl    Cl    0.637845 0.580161 0.527826 -0.297152
Cl8   Cl    Cl    0.734703 0.423576 0.484444 -0.446099
O1    O     O_3   0.658371 0.695334 0.386887 -0.510895
C89   C     C_3   0.625784 0.743683 0.345832 0.091076
H45   H     H_    0.675816 0.777376 0.276815 0.094917
H46   H     H_    0.577041 0.783308 0.407848 0.141545
H47   H     H_    0.596141 0.707417 0.317566 0.198227
O2    O     O_3   0.719910 0.300875 0.367092 -0.521179
C90   C     C_3   0.710670 0.274481 0.287801 0.102277
H48   H     H_    0.677572 0.218522 0.309214 0.115734
H49   H     H_    0.772302 0.269094 0.209309 0.069168
H50   H     H_    0.673112 0.317148 0.279265 0.185086
O3    O     O_3   0.158344 0.195318 0.386929 -0.510897
C91   C     C_3   0.125765 0.243660 0.345858 0.091310
H51   H     H_    0.175846 0.277200 0.276674 0.095035
H52   H     H_    0.077167 0.283431 0.407793 0.141244
H53   H     H_    0.095940 0.207396 0.317833 0.198289
O4    O     O_3   0.219911 0.800865 0.367085 -0.521184
C92   C     C_3   0.210674 0.774464 0.287794 0.102287
H54   H     H_    0.177590 0.718499 0.309200 0.115720
H55   H     H_    0.272305 0.769089 0.209301 0.069184
H56   H     H_    0.173104 0.817121 0.279265 0.185079
Cl9   Cl    Cl    0.532589 0.735769 0.606817 -0.439618
Cl10  Cl    Cl    0.584179 0.220493 0.531309 -0.556413
Cl11  Cl    Cl    0.032588 0.235785 0.606831 -0.439604
Cl12  Cl    Cl    0.084183 0.720482 0.531300 -0.556417
Cl13  Cl    Cl    0.382341 0.319521 0.330547 -0.442866
Cl14  Cl    Cl    0.405374 0.638724 0.352836 -0.394318
Cl15  Cl    Cl    0.882353 0.819517 0.330552 -0.442852
Cl16  Cl    Cl    0.905366 0.138716 0.352829 -0.394346
Cl17  Cl    Cl    0.445954 0.714488 0.147859 -0.479280
Cl18  Cl    Cl    0.349185 0.271187 0.177124 -0.590751
Cl19  Cl    Cl    0.945958 0.214488 0.147854 -0.479267
Cl20  Cl    Cl    0.849191 0.771192 0.177128 -0.590710
Cl21  Cl    Cl    0.803910 0.881542 0.550582 -0.479549
Cl22  Cl    Cl    0.793391 0.090524 0.584628 -0.473987
Cl23  Cl    Cl    0.303923 0.381537 0.550574 -0.479552
Cl24  Cl    Cl    0.293392 0.590532 0.584635 -0.473988
Cl25  Cl    Cl    0.817985 0.256763 0.791070 -0.611064
Cl26  Cl    Cl    0.644146 0.636680 0.055706 -0.505232
Cl27  Cl    Cl    0.317986 0.756766 0.791068 -0.611070
Cl28  Cl    Cl    0.144156 0.136691 0.055708 -0.505230
Cl29  Cl    Cl    0.280749 0.013607 0.292878 -0.481202
Cl30  Cl    Cl    0.458846 0.933997 0.358741 -0.684651
Cl31  Cl    Cl    0.780749 0.513609 0.292884 -0.481197
Cl32  Cl    Cl    0.958850 0.433997 0.358737 -0.684634
O5    O     O_3   0.573264 0.081347 0.631863 -0.626818
C93   C     C_3   0.485725 0.075324 0.691359 -0.012033
H57   H     H_    0.454225 0.129144 0.736504 0.139870
H58   H     H_    0.463163 0.024193 0.743565 0.112913
H59   H     H_    0.468956 0.066759 0.634868 0.165387
O6    O     O_3   0.596477 0.932011 0.618176 -0.655890
C94   C     C_3   0.673593 0.959198 0.527180 0.002622
H60   H     H_    0.717466 0.913030 0.475293 0.147312
H61   H     H_    0.704918 0.998212 0.549672 0.209976
H62   H     H_    0.660881 0.991676 0.476366 0.178942
O7    O     O_3   0.073261 0.581345 0.631866 -0.626803
C95   C     C_3   0.985722 0.575322 0.691364 -0.012002
H63   H     H_    0.954222 0.629141 0.736513 0.139858
H64   H     H_    0.963161 0.524189 0.743568 0.112904
H65   H     H_    0.968951 0.566760 0.634875 0.165382
O8    O     O_3   0.096488 0.432014 0.618170 -0.655882
C96   C     C_3   0.173605 0.459203 0.527178 0.002613
H66   H     H_    0.217479 0.413036 0.475290 0.147341
H67   H     H_    0.204928 0.498215 0.549676 0.209964
H68   H     H_    0.160896 0.491684 0.476365 0.178946
O9    O     O_3   0.266461 0.073183 0.526999 -0.584169
C97   C     C_3   0.338237 0.093964 0.520889 -0.215840
H69   H     H_    0.329310 0.143505 0.570763 0.094001
H70   H     H_    0.393304 0.099127 0.436579 0.165350
H71   H     H_    0.354309 0.046394 0.552683 0.202818
O10   O     O_3   0.324775 0.859536 0.541068 -0.628677
C98   C     C_3   0.289409 0.903597 0.635553 -0.019265
H72   H     H_    0.262394 0.865541 0.705788 0.142151
H73   H     H_    0.241959 0.946020 0.649078 0.181014
H74   H     H_    0.340628 0.934531 0.630536 0.161143
O11   O     O_3   0.766457 0.573184 0.527002 -0.584160
C99   C     C_3   0.838231 0.593966 0.520900 -0.215823
H75   H     H_    0.829302 0.643509 0.570773 0.093996
H76   H     H_    0.893301 0.599126 0.436591 0.165357
H77   H     H_    0.854298 0.546397 0.552701 0.202790
O12   O     O_3   0.824788 0.359525 0.541064 -0.628675
C100  C     C_3   0.789431 0.403595 0.635542 -0.019255
H78   H     H_    0.762413 0.365545 0.705785 0.142159
H79   H     H_    0.741983 0.446020 0.649066 0.181002
H80   H     H_    0.840657 0.434526 0.630514 0.161149

loop_
_geom_bond_atom_site_label_1
_geom_bond_atom_site_label_2
_ccdc_geom_bond_type
C61   C70   A    
C84   H40   S    
C39   C51   S    
N13   Ni7   S    
C32   C34   S    
C26   Cl14  S    
N27   Ni6   S    
C47   Cl19  S    
N21   Ni2   S    
C22   H6    S    
C48   C76   A    
C20   C36   S    
C19   C23   S    
C34   C73   S    
C50   H22   S    
C6    H42   S    
C43   Cl23  S    
C25   C43   S    
C6    C9    A    
C65   Cl29  S    
C44   H16   S    
C87   O7    S    
C98   H72   S    
C20   Cl8   S    
C54   C60   D    
O1    C89   S    
C68   C75   A    
C1    Cl1   S    
N1    N10   A    
C2    N2    A    
C29   O1    S    
C23   H7    S    
N6    Ni1   S    
N28   Ni6   S    
C30   O2    S    
C26   H10   S    
C23   H1    S    
C38   C42   S    
N4    N11   A    
C24   H8    S    
C80   H36   S    
C100  H78   S    
N19   Ni3   S    
C58   C71   S    
C98   H73   S    
C83   N23   A    
C52   H24   S    
N6    N13   A    
C17   Cl5   S    
C88   O8    S    
C99   H77   S    
C31   O3    S    
C16   C84   A    
C81   N21   A    
C95   H63   S    
C45   C73   A    
C96   H66   S    
C64   C71   A    
N21   N26   A    
C92   H55   S    
C89   H45   S    
C32   C52   S    
C90   H50   S    
N25   Ni5   S    
C97   H69   S    
C26   C34   S    
C82   H38   S    
N30   Ni7   S    
C20   C24   S    
C87   N27   A    
C99   H76   S    
C13   C86   A    
C8    H44   S    
C16   C87   A    
C24   C38   S    
O7    C95   S    
N2    Ni2   S    
N22   Ni1   S    
N7    Ni4   S    
C4    Cl4   S    
C9    C55   S    
C56   C58   D    
C10   C56   S    
C7    H43   S    
C68   N16   A    
C66   Cl30  S    
C4    N4    A    
C28   H12   S    
N8    Ni3   S    
C5    H41   S    
C30   C50   S    
C22   H4    S    
C44   Cl24  S    
O9    C97   S    
C30   H18   S    
C57   Cl25  S    
C29   H17   S    
C11   C53   S    
C92   H54   S    
C85   N25   A    
C32   O4    S    
C62   N10   A    
C1    N1    A    
C2    C70   A    
C42   H14   S    
N8    N15   A    
N9    Ni5   S    
N5    Ni2   S    
N20   Ni4   S    
C53   H25   S    
C97   H70   S    
C50   Cl10  S    
C53   C59   D    
C7    C12   A    
C35   C76   S    
C49   Cl9   S    
N7    N16   A    
C51   Cl11  S    
N18   Ni2   S    
C66   N14   A    
C31   C33   S    
C48   N8    A    
C95   H64   S    
C26   C44   S    
O3    C91   S    
C86   O6    S    
C91   H53   S    
C6    N30   A    
N5    N14   A    
N17   Ni1   S    
C14   C85   A    
N22   N25   A    
C94   H61   S    
C8    N32   A    
C77   N17   A    
C100  H79   S    
O12   C100  S    
C98   H74   S    
C29   C49   S    
C12   C80   A    
C64   N12   A    
N24   Ni3   S    
C27   C35   S    
O10   C98   S    
C46   Cl18  S    
C66   C73   A    
C61   H29   S    
C45   Cl17  S    
C65   C74   A    
C62   C69   A    
C84   N24   A    
C96   H67   S    
C89   H47   S    
C5    N29   A    
C92   H56   S    
C3    C71   A    
C42   Cl22  S    
C36   C75   S    
N1    Ni1   S    
C14   C38   S    
C86   N26   A    
C27   C41   S    
C78   H34   S    
C21   C39   S    
C17   O9    S    
N23   Ni4   S    
C3    Cl3   S    
C13   C81   A    
C22   C40   S    
C99   H75   S    
C4    C72   A    
C45   N5    A    
O5    C93   S    
C56   H28   S    
C59   Cl27  S    
C17   C33   S    
C9    C77   A    
C67   Cl31  S    
N31   Ni8   S    
C18   C34   S    
C15   C39   S    
C37   C49   S    
C11   C79   A    
C20   O12   S    
N10   Ni5   S    
C48   Cl20  S    
C61   N9    A    
N3    N12   A    
C16   C40   S    
C93   H57   S    
C93   H58   S    
C55   C57   D    
C67   N15   A    
C13   C37   S    
C28   Cl16  S    
N32   Ni8   S    
C85   O5    S    
C14   C82   A    
C65   N13   A    
O11   C99   S    
C19   Cl7   S    
C46   C74   A    
N12   Ni6   S    
N15   Ni8   S    
C78   N18   A    
C79   N19   A    
C21   H3    S    
C83   H39   S    
C25   H9    S    
C5    C10   A    
C80   N20   A    
N18   N29   A    
C68   Cl32  S    
C51   H23   S    
C89   H46   S    
C81   H37   S    
N23   N28   A    
C18   C22   S    
C31   H19   S    
N24   N27   A    
C79   H35   S    
N11   Ni6   S    
C31   C51   S    
O4    C92   S    
C43   H15   S    
C24   H2    S    
C100  H80   S    
C39   C43   S    
N26   Ni5   S    
C38   C50   S    
C18   Cl6   S    
C93   H59   S    
N4    Ni4   S    
C29   C35   S    
C21   H5    S    
C64   H32   S    
C95   H65   S    
C30   C36   S    
C96   H68   S    
C91   H51   S    
C60   Cl28  S    
C49   H21   S    
C47   C75   A    
C90   H48   S    
C7    N31   A    
C40   C52   S    
C2    Cl2   S    
N2    N9    A    
C58   Cl26  S    
C55   H27   S    
C60   C69   S    
C18   O10   S    
C8    C11   A    
C15   C83   A    
C54   H26   S    
C19   O11   S    
C28   C42   S    
O8    C96   S    
N16   Ni8   S    
C23   C37   S    
C41   H13   S    
C10   C78   A    
C94   H62   S    
C3    N3    A    
C88   N28   A    
C57   C72   S    
C37   C41   S    
O6    C94   S    
C27   H11   S    
C1    C69   A    
C90   H49   S    
N20   N31   A    
C77   H33   S    
C41   Cl21  S    
C59   C70   S    
C82   N22   A    
C33   C74   S    
C40   C44   S    
N29   Ni7   S    
C63   C72   A    
C28   C36   S    
C27   Cl15  S    
N19   N32   A    
C32   H20   S    
C47   N7    A    
C94   H60   S    
C63   H31   S    
N3    Ni3   S    
C46   N6    A    
C15   C88   A    
C19   C35   S    
N17   N30   A    
C52   Cl12  S    
O2    C90   S    
N14   Ni7   S    
C25   C33   S    
C25   Cl13  S    
C12   C54   S    
C62   H30   S    
C67   C76   A    
C91   H52   S    
C63   N11   A    
C97   H71   S    
C17   C21   S    
