data_mof_unit_56469.cif
_audit_creation_date              2012-12-11T15:18:41-0500
_audit_creation_method            fapswitch 2.2
_symmetry_space_group_name_H-M    P1
_symmetry_Int_Tables_number       1
_space_group_crystal_system       triclinic
_cell_length_a                    6.940672
_cell_length_b                    19.870347
_cell_length_c                    23.854233
_cell_angle_alpha                 93.708766
_cell_angle_beta                  91.304134
_cell_angle_gamma                 88.42502
_cell_volume                      3280.96619512

loop_
_atom_site_label
_atom_site_type_symbol
_atom_type_description
_atom_site_fract_x
_atom_site_fract_y
_atom_site_fract_z
_atom_type_partial_charge
O1    O     O_R   0.620100 0.812200 0.810870 -0.540022
O2    O     O_R   0.379900 0.187800 0.189130 -0.541941
O3    O     O_R   0.296960 0.671650 0.794750 -0.537944
O4    O     O_R   0.703040 0.328350 0.205250 -0.537708
O5    O     O_R   0.120160 0.687800 0.689130 -0.542194
O6    O     O_R   0.879840 0.312200 0.310870 -0.541502
C1    C     C_R   0.469136 0.647409 0.805328 0.710484
C2    C     C_R   0.530876 0.352601 0.194678 0.707042
O7    O     O_R   0.290810 0.810670 0.817290 -0.544335
O8    O     O_R   0.709190 0.189330 0.182710 -0.543988
O9    O     O_R   0.113980 0.827820 0.711840 -0.536377
O10   O     O_R   0.886020 0.172180 0.288160 -0.535761
C3    C     C_R   0.459343 0.831741 0.834306 0.713410
C4    C     C_R   0.540656 0.168213 0.165725 0.711056
O11   O     O_R   0.626290 0.672180 0.788160 -0.534489
O12   O     O_R   0.373710 0.327820 0.211840 -0.536302
O13   O     O_3   0.451520 0.755460 0.715370 -0.370702
O14   O     O_3   0.548480 0.244540 0.284630 -0.368972
V1    V     V_3+5 0.179200 0.748980 0.756420 1.453312
V2    V     V_3+5 0.820800 0.251020 0.243580 1.446157
O15   O     O_R   0.783880 0.828350 0.705250 -0.539456
O16   O     O_R   0.216120 0.171650 0.294750 -0.538825
C5    C     C_R   0.949473 0.853138 0.695775 0.715774
C6    C     C_R   0.050527 0.146860 0.304222 0.717479
O17   O     O_R   0.790030 0.689320 0.682700 -0.544357
O18   O     O_R   0.209970 0.310680 0.317300 -0.543640
C7    C     C_R   0.959095 0.668189 0.665673 0.728445
C8    C     C_R   0.040905 0.331811 0.334327 0.730344
V3    V     V_3+5 0.678400 0.751010 0.743570 1.450184
V4    V     V_3+5 0.321600 0.248990 0.256430 1.442043
O19   O     O_3   0.955950 0.744540 0.784620 -0.367461
O20   O     O_3   0.044050 0.255460 0.215380 -0.370611
C9    C     C_R   0.180998 0.425925 0.396354 -0.210399
C10   C     C_R   0.819003 0.574074 0.603647 -0.210433
C11   C     C_R   0.030613 0.380856 0.383909 -0.073911
C12   C     C_R   0.969387 0.619143 0.616091 -0.073459
C13   C     C_R   0.868317 0.383694 0.418454 -0.175223
C14   C     C_R   0.131684 0.616304 0.581547 -0.175338
C15   C     C_R   0.856295 0.430371 0.465143 0.084093
C16   C     C_R   0.143706 0.569627 0.534858 0.084130
C17   C     C_R   0.006289 0.476067 0.476799 0.056357
C18   C     C_R   0.993712 0.523931 0.523202 0.056328
C19   C     C_R   0.168686 0.474052 0.442083 0.091712
C20   C     C_R   0.831315 0.525946 0.557918 0.091677
C21   C     C_R   0.696804 0.432223 0.500410 -0.176172
C22   C     C_R   0.303198 0.567774 0.499591 -0.176249
C23   C     C_R   0.684597 0.479495 0.546420 -0.165803
C24   C     C_R   0.315405 0.520503 0.453581 -0.165880
H1    H     H_    0.305831 0.424475 0.369739 0.123693
H2    H     H_    0.694169 0.575524 0.630262 0.123455
H3    H     H_    0.752179 0.348980 0.409368 0.136058
H4    H     H_    0.247822 0.651019 0.590632 0.135837
H5    H     H_    0.580626 0.397360 0.492204 0.141738
H6    H     H_    0.419376 0.602637 0.507798 0.141674
H7    H     H_    0.559472 0.480006 0.572814 0.143517
H8    H     H_    0.440530 0.519992 0.427187 0.143475
C25   C     C_R   0.947665 0.913228 0.662660 -0.087879
C26   C     C_R   0.052335 0.086769 0.337335 -0.088015
C27   C     C_R   0.844463 0.029594 0.657313 -0.144829
C28   C     C_R   0.155545 0.970403 0.342682 -0.145124
C29   C     C_R   0.881721 0.974137 0.688643 -0.163760
C30   C     C_R   0.118295 0.025861 0.311352 -0.163935
C31   C     C_R   0.986810 0.908606 0.604475 -0.097260
C32   C     C_R   0.013169 0.091388 0.395520 -0.097283
C33   C     C_R   0.970857 0.967863 0.572919 0.040614
C34   C     C_R   0.029119 0.032130 0.427073 0.040618
C35   C     C_R   0.882300 0.026351 0.599788 0.122560
C36   C     C_R   0.117686 0.973643 0.400205 0.122770
C37   C     C_R   0.028715 0.971424 0.515499 0.052817
C38   C     C_R   0.971253 0.028568 0.484493 0.052759
C39   C     C_R   0.851538 0.078562 0.511286 -0.163896
C40   C     C_R   0.148426 0.921428 0.488706 -0.163893
C41   C     C_R   0.819800 0.079867 0.568455 -0.178454
C42   C     C_R   0.180176 0.920125 0.431538 -0.178643
H9    H     H_    0.737057 0.121851 0.587869 0.138513
H10   H     H_    0.262923 0.878142 0.412124 0.138392
H11   H     H_    0.152515 0.022517 0.267146 0.119342
H12   H     H_    0.847515 0.977483 0.732851 0.119676
H13   H     H_    0.781150 0.074857 0.677947 0.130557
H14   H     H_    0.218867 0.925141 0.322048 0.130138
H15   H     H_    0.776356 0.116854 0.488778 0.148779
H16   H     H_    0.223601 0.883135 0.511214 0.148758
C43   C     C_R   0.490918 0.585572 0.836527 -0.074010
C44   C     C_R   0.509175 0.414413 0.163430 -0.073236
C45   C     C_R   0.594910 0.467643 0.837058 -0.000860
C46   C     C_R   0.405014 0.532316 0.162728 -0.001216
C47   C     C_R   0.564063 0.526789 0.808769 -0.200857
C48   C     C_R   0.435449 0.473182 0.191070 -0.198925
C49   C     C_R   0.460199 0.586695 0.894568 -0.137457
C50   C     C_R   0.540841 0.413280 0.105437 -0.149452
C51   C     C_R   0.508965 0.529833 0.925975 0.095661
C52   C     C_R   0.492148 0.470070 0.073937 0.101264
C53   C     C_R   0.556191 0.468208 0.895394 0.038865
C54   C     C_R   0.444529 0.531724 0.104443 0.040835
C55   C     C_R   0.502938 0.531198 0.986381 0.001188
C56   C     C_R   0.498525 0.468637 0.013528 -0.000728
C57   C     C_R   0.497308 0.407372 0.978959 -0.033268
C58   C     C_R   0.504559 0.592458 0.020980 -0.028961
C59   C     C_R   0.544366 0.407875 0.922291 -0.165039
C60   C     C_R   0.456834 0.592052 0.077544 -0.167913
H17   H     H_    0.548819 0.360265 0.897551 0.182432
H18   H     H_    0.452337 0.639687 0.102244 0.183321
H19   H     H_    0.604515 0.367785 0.085764 0.113677
H20   H     H_    0.396989 0.632211 0.914359 0.114525
H21   H     H_    0.402457 0.472868 0.235286 0.135111
H22   H     H_    0.596407 0.527119 0.764508 0.135084
C61   C     C_R   0.682853 0.072153 0.105325 -0.180229
C62   C     C_R   0.316931 0.927631 0.894826 -0.177627
C63   C     C_R   0.530530 0.118814 0.116418 -0.087833
C64   C     C_R   0.469376 0.881039 0.883682 -0.088589
C65   C     C_R   0.366754 0.117430 0.080906 -0.175310
C66   C     C_R   0.633032 0.882358 0.919241 -0.200224
C67   C     C_R   0.355734 0.071146 0.034080 0.110829
C68   C     C_R   0.643883 0.928553 0.966129 0.102201
C69   C     C_R   0.506599 0.023231 0.023699 0.101183
C70   C     C_R   0.492990 0.976454 0.976522 0.105388
C71   C     C_R   0.670184 0.022026 0.060604 0.045875
C72   C     C_R   0.329443 0.977684 0.939605 0.045098
C73   C     C_R   0.196072 0.072948 0.997239 -0.200874
C74   C     C_R   0.803461 0.926714 0.003001 -0.216030
C75   C     C_R   0.182567 0.028140 0.949351 -0.022808
C76   C     C_R   0.816978 0.971533 0.050883 -0.019434
H23   H     H_    0.810268 0.075568 0.132077 0.153695
H24   H     H_    0.189554 0.924235 0.868059 0.153638
H25   H     H_    0.249391 0.153681 0.088968 0.119255
H26   H     H_    0.750438 0.846133 0.911157 0.132532
H27   H     H_    0.083269 0.111063 0.005038 0.154381
H28   H     H_    0.916245 0.888589 0.995207 0.157131
C77   C     C_2   0.675607 0.407235 0.804771 0.757733
O21   O     O_2   0.630590 0.396386 0.755194 -0.551028
O22   O     O_R   0.809061 0.364218 0.830267 -0.653521
H29   H     H_    0.854755 0.325439 0.803724 0.313063
C78   C     C_2   0.323881 0.592741 0.194895 0.756983
O23   O     O_2   0.368043 0.603585 0.244535 -0.551312
O24   O     O_R   0.190981 0.635781 0.169206 -0.653021
H30   H     H_    0.144825 0.674554 0.195683 0.312622
C79   C     C_2   0.419546 0.343581 0.997360 0.755723
O25   O     O_2   0.491972 0.289199 0.981004 -0.545740
O26   O     O_R   0.259161 0.345657 0.031964 -0.655136
H31   H     H_    0.219590 0.299091 0.041550 0.294543
C80   C     C_2   0.582736 0.656323 0.002956 0.751052
O27   O     O_2   0.724072 0.654864 0.973131 -0.551550
O28   O     O_R   0.499118 0.718290 0.021834 -0.650641
H32   H     H_    0.565912 0.758078 0.007023 0.304103
C81   C     C_2   0.018355 0.038670 0.909410 0.763345
O29   O     O_2   0.860638 0.057329 0.927277 -0.553633
O30   O     O_R   0.045915 0.031560 0.851424 -0.669355
H33   H     H_    0.923746 0.041365 0.828959 0.294721
C82   C     C_2   0.981168 0.961011 0.090824 0.756703
O31   O     O_2   0.138862 0.942303 0.072973 -0.557292
O32   O     O_R   0.953609 0.968200 0.148811 -0.669923
H34   H     H_    0.075761 0.958393 0.171282 0.294267
C83   C     C_1   0.993716 0.158693 0.422481 0.260825
N1    N     N_1   0.979347 0.212651 0.443634 -0.364736
C84   C     C_1   0.006237 0.841301 0.577514 0.260515
N2    N     N_1   0.020590 0.787343 0.556361 -0.364935

loop_
_geom_bond_atom_site_label_1
_geom_bond_atom_site_label_2
_ccdc_geom_bond_type
C26   C30   A    
C4    C63   S    
C43   C47   A    
C31   C33   A    
O13   V3    S    
C17   C18   A    
C52   C54   A    
C30   H11   S    
C1    C43   S    
C55   C56   A    
C61   H23   S    
O4    C2    A    
V1    O19   S    
C66   C68   A    
C81   O29   D    
C55   C58   A    
O24   H30   S    
C15   C17   A    
C34   C38   A    
C16   C22   A    
C79   O26   S    
O9    V1    S    
C18   C20   A    
C11   C13   A    
O3    C1    A    
C82   O32   S    
C13   H3    S    
C46   C48   A    
C14   H4    S    
C34   C36   A    
C36   C42   A    
C69   C70   A    
C52   C56   A    
C28   C30   A    
C21   C23   A    
O7    C3    A    
C46   C54   A    
C63   C65   A    
C27   C35   A    
C67   C73   A    
C45   C53   A    
O7    V1    S    
O6    C8    A    
O30   H33   S    
C8    C11   S    
O8    V2    S    
C69   C71   A    
C65   H25   S    
O32   H34   S    
O3    V1    S    
C38   C39   A    
C35   C41   A    
C49   C51   A    
C19   C24   A    
C53   C59   A    
C66   H26   S    
C24   H8    S    
C20   C23   A    
C15   C21   A    
C45   C77   S    
C45   C47   A    
C21   H5    S    
C2    O12   A    
O5    C7    A    
C26   C32   A    
C41   H9    S    
C22   H6    S    
C44   C50   A    
C62   H24   S    
C57   C79   S    
C81   O30   S    
C74   C76   A    
O11   V3    S    
C73   C75   A    
O17   V3    S    
C43   C49   A    
C22   C24   A    
C27   C29   A    
C10   H2    S    
C9    C19   A    
C76   C82   S    
C62   C72   A    
C10   C20   A    
C40   C42   A    
C57   C59   A    
C27   H13   S    
C39   C41   A    
C1    O11   A    
C33   C35   A    
O15   V3    S    
C32   C83   S    
C72   C75   A    
C32   C34   A    
C37   C40   A    
C71   C76   A    
C3    C64   S    
V4    O20   S    
C51   C53   A    
C46   C78   S    
C50   C52   A    
C54   C60   A    
C29   H12   S    
C56   C57   A    
O10   V2    S    
C60   H18   S    
C65   C67   A    
C68   C74   A    
C77   O22   S    
C42   H10   S    
C70   C72   A    
O14   V4    S    
C6    C26   S    
C59   H17   S    
O18   V4    S    
C58   C60   A    
O15   C5    A    
C49   H20   S    
O8    C4    A    
C78   O23   D    
C75   C81   S    
O16   C6    A    
O1    C3    A    
O12   V4    S    
C12   C14   A    
C23   H7    S    
C77   O21   D    
V2    O20   S    
C5    C25   S    
C28   H14   S    
O16   V4    S    
C2    C44   S    
C17   C19   A    
C44   C48   A    
C25   C31   A    
C16   C18   A    
C68   C70   A    
O26   H31   S    
C74   H28   S    
C25   C29   A    
O5    V1    S    
C7    C12   S    
O17   C7    A    
O6    V2    S    
C79   O25   D    
O10   C6    A    
O18   C8    A    
O2    V4    S    
C80   O28   S    
O28   H32   S    
C31   C84   S    
C58   C80   S    
C82   O31   D    
C14   C16   A    
C48   H21   S    
C9    C11   A    
O1    V3    S    
C61   C63   A    
C47   H22   S    
C33   C37   A    
O9    C5    A    
O13   V1    S    
C10   C12   A    
C62   C64   A    
O14   V2    S    
C37   C38   A    
O2    C4    A    
C64   C66   A    
C50   H19   S    
C51   C55   A    
O4    V2    S    
C13   C15   A    
C28   C36   A    
V3    O19   S    
C84   N2    T    
C78   O24   S    
C39   H15   S    
C83   N1    T    
C80   O27   D    
C9    H1    S    
C61   C71   A    
C40   H16   S    
O22   H29   S    
C67   C69   A    
C73   H27   S    
