data_mof_unit_55259.cif
_audit_creation_date              2012-12-10T19:50:02-0500
_audit_creation_method            fapswitch 2.2
_symmetry_space_group_name_H-M    P1
_symmetry_Int_Tables_number       1
_space_group_crystal_system       triclinic
_cell_length_a                    14.190435
_cell_length_b                    14.99134
_cell_length_c                    15.480719
_cell_angle_alpha                 90.152927
_cell_angle_beta                  67.715479
_cell_angle_gamma                 89.863747
_cell_volume                      3047.27126091

loop_
_atom_site_label
_atom_site_type_symbol
_atom_type_description
_atom_site_fract_x
_atom_site_fract_y
_atom_site_fract_z
_atom_type_partial_charge
C1    C     C_R   0.500967 0.672498 0.497179 0.891605
C2    C     C_R   0.500072 0.328104 0.500280 0.931289
C3    C     C_R   0.384579 0.574739 0.101420 -0.251026
C4    C     C_R   0.624052 0.552522 0.893347 -0.224951
C5    C     C_R   0.312471 0.579635 0.061032 -0.229534
C6    C     C_R   0.696713 0.551670 0.933193 -0.244087
C7    C     C_R   0.432942 0.908513 0.465490 -0.264356
C8    C     C_R   0.543961 0.091764 0.545310 -0.270738
C9    C     C_R   0.428669 0.816150 0.468951 0.535346
C10   C     C_R   0.541436 0.184216 0.552181 0.518987
C11   C     C_R   0.505374 0.768632 0.486825 -0.156233
C12   C     C_R   0.503205 0.232863 0.495321 -0.131152
C13   C     C_R   0.589702 0.813665 0.491682 -0.267990
C14   C     C_R   0.473479 0.190918 0.429123 -0.283822
C15   C     C_R   0.595407 0.905245 0.483940 -0.184722
C16   C     C_R   0.481086 0.099350 0.419459 -0.171059
C17   C     C_R   0.515635 0.953011 0.473752 0.072043
C18   C     C_R   0.515246 0.049522 0.478231 0.076014
C19   C     C_R   0.863424 0.526708 0.577680 -0.293266
C20   C     C_R   0.120350 0.428052 0.463432 -0.289269
C21   C     C_R   0.764694 0.527055 0.576936 -0.031434
C22   C     C_R   0.219173 0.429106 0.464163 -0.031908
C23   C     C_R   0.436445 0.501171 0.676347 0.913632
C24   C     C_R   0.563556 0.501688 0.323709 0.875203
C25   C     C_R   0.827082 0.473127 0.421912 -0.118011
C26   C     C_R   0.190040 0.571549 0.535064 -0.093687
C27   C     C_R   0.928224 0.474174 0.418240 0.443225
C28   C     C_R   0.091031 0.574661 0.533646 0.432353
C29   C     C_R   0.947560 0.500280 0.497973 0.045160
C30   C     C_R   0.054006 0.501082 0.498481 0.038342
C31   C     C_R   0.397751 0.514631 0.777433 -0.090166
C32   C     C_R   0.602794 0.513903 0.222549 -0.116134
C33   C     C_R   0.266694 0.561401 0.924361 0.221567
C34   C     C_R   0.739954 0.535179 0.072059 0.217901
C35   C     C_R   0.296414 0.538048 0.829788 -0.267915
C36   C     C_R   0.706848 0.521535 0.168471 -0.220242
C37   C     C_R   0.468744 0.514223 0.819371 -0.258434
C38   C     C_R   0.531965 0.523795 0.181082 -0.280403
C39   C     C_R   0.443518 0.543336 0.910724 0.043451
C40   C     C_R   0.561744 0.542761 0.086639 0.060891
C41   C     C_R   0.340104 0.562023 0.965796 0.141084
C42   C     C_R   0.667206 0.543225 0.029954 0.103170
C43   C     C_R   0.518904 0.549983 0.949323 0.091346
C44   C     C_R   0.487978 0.555759 0.046900 0.094776
H1    H     H_    0.234475 0.594738 0.105590 0.168137
H2    H     H_    0.775894 0.555022 0.886848 0.158191
H3    H     H_    0.873566 0.546375 0.640931 0.193416
H4    H     H_    0.095629 0.369706 0.436552 0.197060
H5    H     H_    0.701746 0.548926 0.638583 0.140445
H6    H     H_    0.269189 0.372633 0.436310 0.148459
H7    H     H_    0.812464 0.451357 0.361492 0.146956
H8    H     H_    0.217082 0.627065 0.563949 0.184914
H9    H     H_    0.452592 0.513363 0.223123 0.174650
H10   H     H_    0.544477 0.489579 0.779771 0.164490
H11   H     H_    0.762442 0.515976 0.200607 0.164004
H12   H     H_    0.241148 0.540287 0.797072 0.161395
H13   H     H_    0.358141 0.589564 0.175156 0.144305
H14   H     H_    0.651980 0.558795 0.818327 0.139001
H15   H     H_    0.370348 0.945150 0.458456 0.151634
H16   H     H_    0.565881 0.053086 0.593735 0.149665
H17   H     H_    0.650983 0.778416 0.502588 0.185161
H18   H     H_    0.446496 0.229277 0.383771 0.162356
H19   H     H_    0.660932 0.938977 0.488255 0.142115
H20   H     H_    0.459815 0.067466 0.366663 0.142032
N1    N     N_R   0.747530 0.500020 0.500000 -0.108707
N2    N     N_R   0.252470 0.499980 0.500000 -0.115707
O1    O     O_R   0.420530 0.630930 0.499990 -0.573323
O2    O     O_R   0.579470 0.369070 0.500010 -0.588974
O3    O     O_R   0.579480 0.630940 0.499990 -0.624796
O4    O     O_R   0.420520 0.369060 0.500010 -0.630610
O5    O     O_R   0.375120 0.499990 0.632240 -0.614318
O6    O     O_R   0.624880 0.500010 0.367760 -0.627989
O7    O     O_R   0.534080 0.500000 0.632240 -0.620565
O8    O     O_R   0.465920 0.500000 0.367760 -0.620119
Zn1   Zn    Zn3+2 0.393860 0.499990 0.500000 0.954200
Zn2   Zn    Zn3+2 0.606140 0.500010 0.500000 0.948375
O9    O     O_3   0.006856 0.446466 0.337857 -0.618446
C45   C     C_3   0.035130 0.518306 0.274735 -0.315689
H21   H     H_    0.063140 0.575691 0.304010 0.149661
H22   H     H_    0.971274 0.539601 0.254312 0.159878
H23   H     H_    0.098444 0.495995 0.210383 0.205410
O10   O     O_3   0.029723 0.648224 0.569739 -0.617348
C46   C     C_3   0.057546 0.715936 0.501783 -0.321245
H24   H     H_    0.053124 0.692611 0.435039 0.145049
H25   H     H_    0.134922 0.741703 0.489569 0.197909
H26   H     H_    0.003266 0.772320 0.527933 0.197273
N3    N     N_2   0.163747 0.585736 0.976855 -0.321246
H27   H     H_    0.111835 0.552927 0.956364 0.234184
C47   C     C_3   0.146099 0.681083 0.985575 -0.829878
H28   H     H_    0.068126 0.694664 0.037096 0.244797
H29   H     H_    0.153897 0.709707 0.917047 0.249169
H30   H     H_    0.200759 0.714505 0.010721 0.252285
N4    N     N_2   0.846326 0.541171 0.019259 -0.314458
H31   H     H_    0.872035 0.501456 0.960374 0.219236
C48   C     C_3   0.883485 0.631737 0.002242 -0.807155
H32   H     H_    0.965132 0.631244 0.955933 0.244856
H33   H     H_    0.874521 0.664829 0.069218 0.251002
H34   H     H_    0.841575 0.670536 0.967039 0.245029
O11   O     O_3   0.346344 0.773642 0.460276 -0.612604
C49   C     C_3   0.368161 0.759377 0.364478 -0.330773
H35   H     H_    0.304844 0.720936 0.357242 0.178245
H36   H     H_    0.439027 0.719282 0.330954 0.168081
H37   H     H_    0.374020 0.823744 0.327179 0.156592
O12   O     O_3   0.565288 0.226984 0.620675 -0.607281
C50   C     C_3   0.670897 0.219275 0.599173 -0.279914
H38   H     H_    0.691005 0.262831 0.647617 0.193237
H39   H     H_    0.716318 0.242098 0.526850 0.164270
H40   H     H_    0.692199 0.149832 0.609339 0.147173

loop_
_geom_bond_atom_site_label_1
_geom_bond_atom_site_label_2
_ccdc_geom_bond_type
C38   C40   A    
N3    H27   S    
N4    H31   S    
C27   C29   A    
C48   H32   S    
C1    C11   S    
C34   N4    S    
O6    Zn2   S    
C2    C12   S    
C25   H7    S    
C48   H34   S    
C39   C41   A    
C20   C30   A    
O9    C45   S    
C50   H39   S    
N1    Zn2   S    
C32   C36   A    
C19   C21   A    
C2    O2    A    
C45   H22   S    
C14   H18   S    
O3    Zn2   S    
C7    C9    A    
C7    H15   S    
C22   N2    A    
C1    O1    A    
O11   C49   S    
C7    C17   A    
C34   C42   A    
C14   C16   A    
C32   C38   A    
C47   H29   S    
C22   H6    S    
C40   C42   A    
N4    C48   S    
C23   O7    A    
C21   H5    S    
O12   C50   S    
C50   H40   S    
C3    C44   A    
O8    Zn1   S    
C28   O10   S    
C26   N2    A    
C23   O5    A    
C25   N1    A    
C4    C6    A    
C45   H21   S    
C39   C43   A    
C27   O9    S    
C5    H1    S    
C49   H37   S    
C1    O3    A    
C31   C37   A    
C23   C31   S    
C43   C44   A    
C24   C32   S    
C29   C30   S    
C26   H8    S    
C46   H24   S    
C49   H36   S    
C17   C18   S    
O1    Zn1   S    
C47   H30   S    
C9    C11   A    
C20   H4    S    
C10   C12   A    
C37   H10   S    
C3    H13   S    
C16   C18   A    
C46   H25   S    
C12   C14   A    
C13   C15   A    
O7    Zn2   S    
C31   C35   A    
O2    Zn2   S    
C19   C29   A    
C24   O6    A    
C15   C17   A    
C5    C41   A    
C6    H2    S    
C21   N1    A    
C35   H12   S    
C20   C22   A    
C3    C5    A    
C48   H33   S    
C4    C43   A    
C25   C27   A    
C50   H38   S    
C9    O11   S    
C26   C28   A    
C33   C41   A    
C28   C30   A    
C33   N3    S    
C37   C39   A    
C36   H11   S    
C8    H16   S    
O5    Zn1   S    
C11   C13   A    
C45   H23   S    
C24   O8    A    
C38   H9    S    
N2    Zn1   S    
C10   O12   S    
C49   H35   S    
C33   C35   A    
C34   C36   A    
C8    C18   A    
C40   C44   A    
C46   H26   S    
C13   H17   S    
C8    C10   A    
O10   C46   S    
C6    C42   A    
C19   H3    S    
C4    H14   S    
O4    Zn1   S    
N3    C47   S    
C15   H19   S    
C16   H20   S    
C47   H28   S    
C2    O4    A    
