data_mof_unit_39490.cif
_audit_creation_date              2012-12-10T17:53:14-0500
_audit_creation_method            fapswitch 2.2
_symmetry_space_group_name_H-M    P1
_symmetry_Int_Tables_number       1
_space_group_crystal_system       triclinic
_cell_length_a                    23.412041
_cell_length_b                    10.670158
_cell_length_c                    9.973723
_cell_angle_alpha                 91.001764
_cell_angle_beta                  88.791968
_cell_angle_gamma                 93.672756
_cell_volume                      2485.54273398

loop_
_atom_site_label
_atom_site_type_symbol
_atom_type_description
_atom_site_fract_x
_atom_site_fract_y
_atom_site_fract_z
_atom_type_partial_charge
Br1   Br    Br    0.595982 0.678644 0.154960 -0.462720
Br2   Br    Br    0.056478 0.175089 0.242192 -0.359493
Br3   Br    Br    0.393641 0.263057 0.271128 -0.549715
Br4   Br    Br    0.804913 0.577005 0.216947 -0.399931
C1    C     C_R   0.505346 0.261603 0.498865 0.881146
C2    C     C_R   0.121516 0.589004 0.567771 0.527032
C3    C     C_R   0.243586 0.603329 0.451722 -0.060167
C4    C     C_R   0.389854 0.499298 0.501186 0.876633
C5    C     C_R   0.302685 0.601756 0.454639 -0.197763
C6    C     C_R   0.328041 0.496662 0.502761 -0.102661
C7    C     C_R   0.294156 0.390200 0.546252 -0.056262
C8    C     C_R   0.234653 0.394834 0.546536 -0.052610
C9    C     C_R   0.209512 0.500287 0.498440 0.229979
C10   C     C_R   0.763535 0.527621 0.377483 0.327105
C11   C     C_R   0.704182 0.526653 0.378939 -0.211519
C12   C     C_R   0.966341 0.309951 0.349901 -0.170636
C13   C     C_R   0.672717 0.497313 0.496632 -0.098246
C14   C     C_R   0.701145 0.466308 0.612745 -0.179185
C15   C     C_R   0.760357 0.464772 0.610887 -0.117462
C16   C     C_R   0.504436 0.739668 0.500725 0.878035
C17   C     C_R   0.791623 0.495672 0.493806 0.224168
C18   C     C_R   0.585048 0.145092 0.679794 -0.157502
C19   C     C_R   0.619805 0.086148 0.767660 -0.227963
C20   C     C_R   0.620826 0.955463 0.767006 0.024191
C21   C     C_R   0.585454 0.883764 0.678928 -0.146738
C22   C     C_R   0.548509 0.941984 0.592039 0.066812
C23   C     C_R   0.025876 0.310366 0.345605 0.314990
C24   C     C_R   0.548876 0.074076 0.591201 0.104079
C25   C     C_R   0.515351 0.130406 0.495202 -0.118313
C26   C     C_R   0.490422 0.059396 0.391191 -0.162699
C27   C     C_R   0.487095 0.932207 0.396292 -0.170295
C28   C     C_R   0.610504 0.499660 0.498822 0.874366
C29   C     C_R   0.512993 0.873135 0.499878 -0.097902
C30   C     C_R   0.402142 0.382268 0.131033 0.311364
C31   C     C_R   0.353477 0.358961 0.053291 -0.157909
C32   C     C_R   0.359578 0.344356 0.916497 -0.219031
C33   C     C_R   0.412588 0.370386 0.856567 -0.113828
C34   C     C_R   0.058992 0.404849 0.416937 -0.101502
C35   C     C_R   0.456502 0.435282 0.927137 0.118619
C36   C     C_R   0.454528 0.436893 0.071491 0.035402
C37   C     C_R   0.540732 0.566650 0.069475 0.310771
C38   C     C_R   0.540869 0.565170 0.927216 -0.136824
C39   C     C_R   0.882696 0.588051 0.563849 0.548588
C40   C     C_R   0.878704 0.402171 0.426274 0.585623
C41   C     C_R   0.938396 0.402017 0.422529 -0.076341
C42   C     C_R   0.970456 0.496308 0.493317 -0.013854
C43   C     C_R   0.942368 0.589793 0.565875 -0.013787
C44   C     C_2   0.660530 0.895726 0.855973 0.468894
C45   C     C_R   0.030600 0.497091 0.492053 -0.053719
C46   C     C_2   0.319844 0.272121 0.583176 0.423756
C47   C     C_R   0.062091 0.590471 0.566546 -0.001096
C48   C     C_R   0.033650 0.682480 0.639174 -0.124828
C49   C     C_R   0.974338 0.682591 0.638183 -0.128494
C50   C     C_R   0.119246 0.411717 0.417276 0.550585
H1    H     H_    0.941885 0.236817 0.295348 0.221924
H2    H     H_    0.312847 0.326489 0.098898 0.208990
H3    H     H_    0.324074 0.304704 0.858795 0.200224
H4    H     H_    0.418412 0.340209 0.755162 0.196232
H5    H     H_    0.573829 0.619744 0.872548 0.204789
H6    H     H_    0.057126 0.755015 0.696684 0.204499
H7    H     H_    0.953664 0.755147 0.694751 0.203608
H8    H     H_    0.224177 0.684312 0.412876 0.171205
H9    H     H_    0.328799 0.682410 0.418963 0.156874
H10   H     H_    0.207331 0.315450 0.580679 0.194159
H11   H     H_    0.685795 0.952809 0.926950 0.088265
H12   H     H_    0.682987 0.550584 0.288611 0.224969
H13   H     H_    0.365558 0.263218 0.572855 0.075835
H14   H     H_    0.677694 0.442403 0.704531 0.177763
H15   H     H_    0.782137 0.440110 0.700514 0.171529
H16   H     H_    0.471181 0.100896 0.307481 0.217797
H17   H     H_    0.589140 0.246409 0.678474 0.166959
H18   H     H_    0.647473 0.143269 0.833380 0.145281
H19   H     H_    0.589014 0.783354 0.675418 0.180029
H20   H     H_    0.462954 0.880001 0.319655 0.181185
N1    N     N_R   0.852427 0.495388 0.494417 -0.350629
N2    N     N_R   0.148614 0.500836 0.493918 -0.361118
N3    N     N_R   0.499460 0.498800 0.142780 -0.137769
N4    N     N_R   0.499440 0.498720 0.857170 -0.139175
O1    O     O_R   0.500000 0.316780 0.614690 -0.653748
O2    O     O_R   0.583850 0.500050 0.614640 -0.639654
O3    O     O_R   0.583840 0.500030 0.385310 -0.583293
O4    O     O_2   0.855000 0.678300 0.629959 -0.515893
O5    O     O_2   0.666018 0.782716 0.850472 -0.545553
O6    O     O_2   0.290037 0.182013 0.623864 -0.538279
O7    O     O_2   0.847002 0.310265 0.362433 -0.521972
O8    O     O_2   0.148868 0.331746 0.341290 -0.481320
O9    O     O_2   0.152165 0.674194 0.643257 -0.530996
O10   O     O_R   0.500000 0.316750 0.385360 -0.576793
O11   O     O_R   0.416160 0.499970 0.614690 -0.635486
O12   O     O_R   0.416150 0.499950 0.385360 -0.581868
O13   O     O_R   0.500000 0.683250 0.614640 -0.619265
O14   O     O_R   0.500000 0.683220 0.385310 -0.586988
Zn1   Zn    Zn3+2 0.500000 0.500020 0.653130 0.948012
Zn2   Zn    Zn3+2 0.500000 0.499980 0.346870 1.018532

loop_
_geom_bond_atom_site_label_1
_geom_bond_atom_site_label_2
_ccdc_geom_bond_type
C37   C38   A    
C31   C32   A    
C46   O6    D    
C34   C45   A    
C41   C42   A    
C48   C49   A    
C28   O3    A    
C16   O14   A    
C42   C45   A    
C30   C36   A    
C10   C17   A    
C24   C25   A    
C15   C17   A    
O1    Zn1   S    
C37   N3    A    
C26   C27   A    
C8    H10   S    
O13   Zn1   S    
C23   C34   A    
C14   H14   S    
N3    Zn2   S    
C3    C5    A    
C30   C31   A    
C48   H6    S    
C1    O10   A    
C49   H7    S    
C45   C47   A    
C19   C20   A    
C27   C29   A    
Br2   C23   S    
C44   H11   S    
C1    O1    A    
C46   H13   S    
C33   H4    S    
C43   C49   A    
C12   C23   A    
C18   C24   A    
Br4   C10   S    
C26   H16   S    
O12   Zn2   S    
C1    C25   S    
C39   N1    A    
C16   O13   A    
O10   Zn2   S    
C47   C48   A    
C20   C44   S    
C35   N4    A    
C20   C21   A    
C32   H3    S    
C35   C36   A    
C50   O8    S    
C14   C15   A    
C27   H20   S    
Br3   C30   S    
C21   C22   A    
C11   H12   S    
C2    O9    S    
C38   H5    S    
C40   N1    A    
C3    H8    S    
C25   C26   A    
C28   O2    A    
C22   C29   A    
C34   C50   A    
C9    N2    S    
O14   Zn2   S    
C13   C14   A    
C50   N2    A    
C16   C29   S    
Br1   C37   S    
C38   N4    A    
C2    C47   A    
C15   H15   S    
C4    O12   A    
C40   O7    S    
C18   H17   S    
C40   C41   A    
C5    C6    A    
C11   C13   A    
C42   C43   A    
C32   C33   A    
C31   H2    S    
C5    H9    S    
C19   H18   S    
C10   C11   A    
C12   C41   A    
C7    C8    A    
C2    N2    A    
C17   N1    S    
C22   C24   A    
C44   O5    D    
C12   H1    S    
C33   C35   A    
C7    C46   S    
O3    Zn2   S    
C21   H19   S    
C36   N3    A    
O11   Zn1   S    
C6    C7    A    
C3    C9    A    
C8    C9    A    
C4    C6    S    
C13   C28   S    
C18   C19   A    
C4    O11   A    
N4    Zn1   S    
O2    Zn1   S    
C39   C43   A    
C39   O4    S    
