data_mof_unit_10405.cif
_audit_creation_date              2012-12-10T19:03:35-0500
_audit_creation_method            fapswitch 2.2
_symmetry_space_group_name_H-M    P1
_symmetry_Int_Tables_number       1
_space_group_crystal_system       triclinic
_cell_length_a                    15.872391
_cell_length_b                    10.812487
_cell_length_c                    9.559897
_cell_angle_alpha                 89.572368
_cell_angle_beta                  90.568387
_cell_angle_gamma                 90.221801
_cell_volume                      1640.53147505

loop_
_atom_site_label
_atom_site_type_symbol
_atom_type_description
_atom_site_fract_x
_atom_site_fract_y
_atom_site_fract_z
_atom_type_partial_charge
C1    C     C_R   0.501493 0.262452 0.500394 0.822878
C2    C     C_3   0.949464 0.407300 0.614224 0.193128
C3    C     C_3   0.917254 0.503765 0.503838 0.069823
C4    C     C_3   0.952349 0.634386 0.543229 0.224870
C5    C     C_3   0.050729 0.634191 0.537231 0.310685
C6    C     C_1   0.824875 0.504236 0.502101 0.049132
C7    C     C_1   0.175181 0.500545 0.500323 0.061692
C8    C     C_1   0.250685 0.499989 0.498785 -0.144016
C9    C     C_R   0.500790 0.062684 0.625747 -0.008783
C10   C     C_R   0.509220 0.129455 0.501265 -0.085059
C11   C     C_R   0.528029 0.065808 0.377902 -0.208897
C12   C     C_R   0.340279 0.499760 0.499505 0.836299
C13   C     C_R   0.527245 0.936991 0.377280 -0.227821
C14   C     C_R   0.508346 0.870892 0.500152 -0.043221
C15   C     C_R   0.500152 0.935248 0.625148 -0.045282
C16   C     C_3   0.432903 0.925690 0.733343 -0.548103
C17   C     C_3   0.433276 0.067457 0.735681 0.956471
C18   C     C_R   0.568808 0.540468 0.074130 0.075577
C19   C     C_R   0.436795 0.443556 0.073862 0.547653
C20   C     C_R   0.436529 0.445959 0.924337 -0.121708
C21   C     C_R   0.568758 0.540640 0.927150 0.142336
C22   C     C_3   0.608233 0.665866 0.920541 0.262448
C23   C     C_R   0.501152 0.737646 0.499665 0.777624
C24   C     C_3   0.609169 0.664875 0.080661 0.265826
C25   C     C_R   0.659732 0.500990 0.500489 0.804707
C26   C     C_3   0.049490 0.407096 0.615076 0.298432
C27   C     C_3   0.047596 0.464596 0.358487 -0.609759
C28   C     C_3   0.950300 0.468400 0.357274 -0.344941
C29   C     C_1   0.749337 0.502986 0.501497 -0.132805
C30   C     C_3   0.082878 0.501790 0.504350 0.060555
Cu1   Cu    Cu3+1 0.500000 0.499980 0.640670 0.982957
Cu2   Cu    Cu3+1 0.500000 0.500020 0.359330 0.990762
H1    H     H_    0.539692 0.114939 0.280882 0.150327
H2    H     H_    0.537802 0.890157 0.279744 0.147188
H3    H     H_    0.374286 0.883432 0.690273 0.182468
H4    H     H_    0.068605 0.314469 0.576580 0.137973
H5    H     H_    0.566581 0.734846 0.126967 0.021109
H6    H     H_    0.072050 0.528363 0.276258 0.201846
H7    H     H_    0.924926 0.376683 0.325279 0.214908
H8    H     H_    0.071213 0.694294 0.447698 0.122020
H9    H     H_    0.933496 0.652827 0.653669 0.092579
N1    N     N_R   0.500530 0.500930 0.147930 -0.255113
N2    N     N_R   0.500530 0.500890 0.852020 -0.242516
O1    O     O_R   0.500000 0.319640 0.618810 -0.558786
O2    O     O_R   0.500010 0.319680 0.381230 -0.580045
O3    O     O_R   0.379430 0.499990 0.618840 -0.574102
O4    O     O_R   0.379440 0.500030 0.381260 -0.518101
O5    O     O_R   0.499990 0.680320 0.618770 -0.578006
O6    O     O_R   0.500000 0.680360 0.381190 -0.599334
O7    O     O_R   0.620560 0.499970 0.618740 -0.550447
O8    O     O_R   0.620570 0.500010 0.381160 -0.552343
O9    O     O_3   0.918296 0.288460 0.576680 -0.571174
C31   C     C_3   0.914758 0.209475 0.694645 -0.348340
H10   H     H_    0.870359 0.245203 0.773905 0.166009
H11   H     H_    0.978327 0.194983 0.741545 0.164541
H12   H     H_    0.890824 0.117877 0.660592 0.182300
O10   O     O_3   0.094896 0.420923 0.744472 -0.562186
C32   C     C_3   0.046901 0.449378 0.863053 -0.251088
H13   H     H_    0.011989 0.537415 0.849086 0.179540
H14   H     H_    0.090821 0.462990 0.952636 0.192057
H15   H     H_    0.004782 0.371335 0.891975 0.126934
H16   H     H_    0.920995 0.436859 0.714138 0.076495
O11   O     O_3   0.921520 0.724773 0.446727 -0.580397
C33   C     C_3   0.869036 0.811011 0.512987 -0.379864
H17   H     H_    0.901696 0.856427 0.602450 0.157066
H18   H     H_    0.809776 0.765896 0.547581 0.164829
H19   H     H_    0.851990 0.884539 0.436440 0.192457
H20   H     H_    0.455615 0.882199 0.832142 0.170582
O12   O     O_3   0.359013 0.122108 0.679759 -0.592034
C34   C     C_3   0.287857 0.094003 0.762246 -0.332291
H21   H     H_    0.302935 0.071045 0.873422 0.170199
H22   H     H_    0.252702 0.015503 0.714987 0.152106
H23   H     H_    0.245487 0.175438 0.761485 0.202373
O13   O     O_3   0.456383 0.120324 0.867527 -0.605200
C35   C     C_3   0.543177 0.111855 0.901362 -0.416003
H24   H     H_    0.580777 0.174595 0.833567 0.196279
H25   H     H_    0.566670 0.015412 0.895240 0.147916
H26   H     H_    0.552689 0.142813 0.010683 0.183197
O14   O     O_3   0.368856 0.394689 0.144974 -0.559110
C36   C     C_3   0.362174 0.266805 0.119673 -0.263344
H27   H     H_    0.318226 0.226001 0.197010 0.176758
H28   H     H_    0.423661 0.218796 0.133307 0.179199
H29   H     H_    0.335068 0.249637 0.014200 0.172465
H30   H     H_    0.383993 0.406622 0.867044 0.187209
O15   O     O_3   0.689558 0.659228 0.862301 -0.507327
C37   C     C_3   0.715607 0.778593 0.820773 -0.287826
H31   H     H_    0.707243 0.847728 0.905161 0.141945
H32   H     H_    0.680918 0.808249 0.724650 0.144910
H33   H     H_    0.783739 0.775699 0.796726 0.170616
H34   H     H_    0.564965 0.735326 0.872122 0.039717
O16   O     O_3   0.691505 0.654995 0.137777 -0.505954
C38   C     C_3   0.709970 0.758759 0.220887 -0.268224
H35   H     H_    0.672348 0.756422 0.318319 0.151974
H36   H     H_    0.699256 0.846942 0.162715 0.122324
H37   H     H_    0.777487 0.755318 0.251169 0.212494
H38   H     H_    0.068979 0.369893 0.331352 0.205956
H39   H     H_    0.928176 0.536607 0.277389 0.217633
O17   O     O_3   0.085432 0.674685 0.666685 -0.563007
C39   C     C_3   0.108673 0.800588 0.659332 -0.348587
H40   H     H_    0.054981 0.859451 0.624897 0.167742
H41   H     H_    0.163121 0.813708 0.588380 0.162441
H42   H     H_    0.128486 0.831247 0.765140 0.188612

loop_
_geom_bond_atom_site_label_1
_geom_bond_atom_site_label_2
_ccdc_geom_bond_type
C28   H39   S    
C17   O12   S    
C18   C21   A    
Cu2   O2    S    
C19   C20   A    
C3    C6    S    
C7    C8    T    
C31   H10   S    
C4    O11   S    
Cu1   N2    S    
C18   C24   S    
C3    C28   S    
C18   N1    A    
C16   H3    S    
C37   H32   S    
C23   O6    A    
C4    H9    S    
C27   H6    S    
C32   H14   S    
C15   C16   S    
C22   O15   S    
C25   O7    A    
C21   N2    A    
C39   H40   S    
C16   C17   S    
Cu1   O3    S    
C34   H21   S    
C16   H20   S    
C9    C10   A    
C19   N1    A    
C32   H15   S    
C7    C30   S    
C21   C22   S    
C27   C30   S    
C27   H38   S    
C12   O4    A    
C35   H26   S    
C31   H11   S    
C25   C29   S    
Cu1   O1    S    
C33   H19   S    
C11   H1    S    
C12   O3    A    
O13   C35   S    
O16   C38   S    
C37   H31   S    
C36   H27   S    
C28   H7    S    
C32   H13   S    
O15   C37   S    
C38   H37   S    
O14   C36   S    
C33   H18   S    
C14   C23   S    
C35   H24   S    
C25   O8    A    
Cu2   O8    S    
C1    O1    A    
Cu1   Cu2   S    
C8    C12   S    
C39   H42   S    
C34   H23   S    
C38   H36   S    
C24   H5    S    
C22   H34   S    
C2    C26   S    
C19   O14   S    
C35   H25   S    
C2    O9    S    
C9    C17   S    
C39   H41   S    
C26   C30   S    
Cu1   O5    S    
C20   H30   S    
C17   O13   S    
Cu2   O4    S    
C22   C24   S    
Cu1   O7    S    
C3    C4    S    
C24   O16   S    
C20   N2    A    
O9    C31   S    
C36   H29   S    
C5    C30   S    
C31   H12   S    
C26   H4    S    
C23   O5    A    
C1    C10   S    
C4    C5    S    
C37   H33   S    
C33   H17   S    
C2    C3    S    
C9    C15   A    
C13   H2    S    
C11   C13   A    
C1    O2    A    
O10   C32   S    
C38   H35   S    
C36   H28   S    
O12   C34   S    
C26   O10   S    
Cu2   O6    S    
C10   C11   A    
O11   C33   S    
C6    C29   T    
C5    O17   S    
O17   C39   S    
C5    H8    S    
C27   C28   S    
Cu2   N1    S    
C14   C15   A    
C34   H22   S    
C13   C14   A    
C2    H16   S    
