data_mof_unit_55578.cif
_audit_creation_date              2012-12-11T15:31:39-0500
_audit_creation_method            fapswitch 2.2
_symmetry_space_group_name_H-M    P1
_symmetry_Int_Tables_number       1
_space_group_crystal_system       triclinic
_cell_length_a                    13.542586
_cell_length_b                    13.589489
_cell_length_c                    27.657007
_cell_angle_alpha                 90.582771
_cell_angle_beta                  89.957991
_cell_angle_gamma                 119.874607
_cell_volume                      4413.26510003

loop_
_atom_site_label
_atom_site_type_symbol
_atom_type_description
_atom_site_fract_x
_atom_site_fract_y
_atom_site_fract_z
_atom_type_partial_charge
C1    C     C_R   0.619748 0.898323 0.431353 0.556173
C2    C     C_R   0.182215 0.933742 0.264262 0.238808
C3    C     C_R   0.166853 0.926491 0.213673 0.282515
C4    C     C_R   0.599870 0.218537 0.431281 0.548420
C5    C     C_R   0.155689 0.742492 0.213312 -0.131058
C6    C     C_R   0.170720 0.749026 0.263401 0.214317
C7    C     C_R   0.183239 0.844271 0.289244 0.006893
C8    C     C_R   0.153790 0.830437 0.188286 -0.033701
C9    C     C_1   0.128756 0.815520 0.137171 0.019334
C10   C     C_1   0.205793 0.853376 0.340643 0.083281
C11   C     C_1   0.099093 0.795699 0.095423 0.027196
C12   C     C_R   0.574732 0.304515 0.212923 0.282081
C13   C     C_1   0.635278 0.866525 0.383649 0.049991
C14   C     C_R   0.601054 0.729970 0.268468 -0.146752
C15   C     C_R   0.605059 0.718697 0.218365 -0.161086
C16   C     C_R   0.279643 0.878884 0.430529 0.559990
C17   C     C_R   0.718470 0.923760 0.211076 0.299399
C18   C     C_R   0.711098 0.935171 0.261383 0.264493
C19   C     C_R   0.654223 0.837802 0.290177 0.007835
C20   C     C_R   0.663038 0.814973 0.189530 0.008378
C21   C     C_1   0.674327 0.800979 0.138504 -0.016707
C22   C     C_1   0.644694 0.849119 0.341565 0.030009
C23   C     C_R   0.566841 0.289821 0.263136 -0.126501
C24   C     C_1   0.691563 0.788473 0.096765 0.002421
C25   C     C_R   0.618546 0.246935 0.620024 0.044739
C26   C     C_R   0.720627 0.335004 0.638619 -0.136273
C27   C     C_R   0.735599 0.348234 0.688602 -0.077172
C28   C     C_R   0.620170 0.901043 0.569206 0.541499
C29   C     C_R   0.650538 0.270097 0.719522 0.047567
C30   C     C_R   0.550895 0.179704 0.700223 -0.135959
C31   C     C_R   0.534247 0.169624 0.650905 -0.107654
C32   C     C_R   0.566927 0.277349 0.797440 -0.142832
C33   C     C_R   0.576997 0.308622 0.845702 0.191128
C34   C     C_R   0.662832 0.312065 0.290568 -0.003497
C35   C     C_R   0.774322 0.349257 0.844914 0.219871
C36   C     C_R   0.761792 0.314901 0.796440 0.262386
C37   C     C_R   0.660382 0.286898 0.771926 -0.056376
C38   C     C_R   0.684377 0.355692 0.868841 -0.007122
C39   C     C_R   0.248372 0.873697 0.618811 0.036049
C40   C     C_R   0.600216 0.221056 0.569052 0.532080
C41   C     C_R   0.156791 0.885748 0.635233 0.221577
C42   C     C_R   0.135982 0.882081 0.684901 -0.098066
C43   C     C_R   0.208114 0.869582 0.717685 -0.004399
C44   C     C_R   0.303301 0.865416 0.700961 -0.088953
C45   C     C_R   0.678777 0.336964 0.189686 -0.000343
C46   C     C_R   0.321944 0.865324 0.651939 -0.171725
C47   C     C_R   0.170997 0.750651 0.790230 0.269392
C48   C     C_R   0.143129 0.729178 0.839071 0.265101
C49   C     C_R   0.115926 0.893213 0.843166 -0.167732
C50   C     C_R   0.152398 0.919408 0.795626 -0.172985
C51   C     C_R   0.177987 0.847429 0.768750 -0.019303
C52   C     C_R   0.280519 0.881965 0.568373 0.586466
C53   C     C_R   0.106880 0.795859 0.864788 -0.023569
C54   C     C_R   0.636731 0.863003 0.616392 -0.016285
C55   C     C_R   0.544359 0.768818 0.637978 -0.100634
C56   C     C_1   0.690111 0.360082 0.138630 -0.005513
C57   C     C_R   0.546463 0.747805 0.686918 0.234014
C58   C     C_R   0.644000 0.818944 0.714489 0.032198
C59   C     C_R   0.739325 0.907983 0.692238 -0.161690
C60   C     C_R   0.735653 0.930462 0.643536 -0.114789
C61   C     C_R   0.675872 0.891899 0.798993 -0.092288
C62   C     C_R   0.692628 0.880246 0.847875 0.219481
C63   C     C_R   0.645044 0.685042 0.831782 -0.161959
C64   C     C_1   0.631380 0.264626 0.383709 0.052969
C65   C     C_R   0.631350 0.698206 0.783102 -0.081048
C66   C     C_R   0.648420 0.802128 0.766395 0.024145
C67   C     C_1   0.649503 0.291039 0.341795 0.043559
C68   C     C_R   0.679356 0.776709 0.864211 0.030978
C69   C     C_R   0.049543 0.761292 0.048134 0.537786
C70   C     C_R   0.714056 0.435412 0.049619 0.550138
C71   C     C_R   0.723241 0.770921 0.049408 0.551026
C72   C     C_R   0.045088 0.756036 0.910635 0.552570
C73   C     C_R   0.707216 0.425875 0.912989 0.584644
C74   C     C_R   0.716824 0.765010 0.912096 0.577817
C75   C     C_R   0.767406 0.346791 0.267402 0.283912
C76   C     C_R   0.774787 0.358739 0.217063 -0.104399
C77   C     C_3   0.890176 0.049293 0.179480 0.033943
C78   C     C_1   0.699953 0.388154 0.096913 0.012098
C79   C     C_3   0.954032 0.158289 0.150918 -0.317768
C80   C     C_3   0.840878 0.209929 0.771433 0.011787
C81   C     C_3   0.949984 0.217745 0.752542 -0.353406
C82   C     C_3   0.085340 0.590747 0.743837 0.023640
C83   C     C_3   0.106953 0.516704 0.708823 -0.309888
C84   C     C_3   0.249353 0.665376 0.876130 0.022639
C85   C     C_3   0.247071 0.561664 0.897544 -0.302831
C86   C     C_3   0.470659 0.382557 0.186984 0.002694
C87   C     C_3   0.368063 0.362319 0.156960 -0.312714
C88   C     C_1   0.232883 0.862765 0.382694 0.070746
Cl1   Cl    Cl    0.890346 0.376148 0.300406 -0.437660
Cl2   Cl    Cl    0.174874 0.636607 0.292697 -0.506714
Cl3   Cl    Cl    0.772350 0.072144 0.287676 -0.497559
Cl4   Cl    Cl    0.451816 0.289085 0.874218 -0.563808
Cl5   Cl    Cl    0.905382 0.383786 0.873035 -0.499152
Cl6   Cl    Cl    0.065049 0.900520 0.594726 -0.586828
Cl7   Cl    Cl    0.730622 0.996344 0.887309 -0.581520
Cl8   Cl    Cl    0.421268 0.638914 0.713077 -0.631128
Cl9   Cl    Cl    0.201239 0.055381 0.296143 -0.514658
Cl10  Cl    Cl    0.163047 0.037008 0.182238 -0.578212
Cr1   Cr    Cr6+3 0.417720 0.831920 0.499820 1.061506
Cr2   Cr    Cr6+3 0.668190 0.085770 0.500360 1.082051
Cr3   Cr    Cr6+3 0.414060 0.082260 0.499840 1.095889
Cr4   Cr    Cr6+3 0.908000 0.821090 0.979770 1.079472
Cr5   Cr    Cr6+3 0.912420 0.571130 0.979880 1.099109
Cr6   Cr    Cr6+3 0.657970 0.566940 0.980940 1.069760
H1    H     H_    0.563802 0.634727 0.202103 0.113860
H2    H     H_    0.090462 0.946859 0.862308 0.174321
H3    H     H_    0.361256 0.858584 0.725896 0.179676
H4    H     H_    0.395912 0.861396 0.639742 0.132239
H5    H     H_    0.466745 0.715877 0.617784 0.166858
H6    H     H_    0.686228 0.971319 0.786146 0.111286
H7    H     H_    0.611621 0.628683 0.758199 0.168114
H8    H     H_    0.636234 0.605176 0.843500 0.153885
H9    H     H_    0.815656 0.961706 0.712963 0.116595
H10   H     H_    0.808006 0.003439 0.627805 0.163238
H11   H     H_    0.485567 0.261448 0.280668 0.177439
H12   H     H_    0.787009 0.393399 0.614744 0.119206
H13   H     H_    0.144470 0.667909 0.193860 0.162299
H14   H     H_    0.555727 0.654598 0.290238 0.145623
H15   H     H_    0.899263 0.981687 0.160389 0.154143
H16   H     H_    0.930489 0.064386 0.215945 0.209792
H17   H     H_    0.947313 0.227712 0.169365 0.185007
H18   H     H_    0.045314 0.183021 0.148181 0.147115
H19   H     H_    0.917497 0.145527 0.113918 0.168099
H20   H     H_    0.769427 0.152341 0.747067 0.124672
H21   H     H_    0.825754 0.173460 0.808412 0.208856
H22   H     H_    0.023810 0.280240 0.774490 0.196284
H23   H     H_    0.486620 0.250817 0.779177 0.168212
H24   H     H_    0.944692 0.133821 0.755072 0.103173
H25   H     H_    0.963007 0.244543 0.714183 0.146887
H26   H     H_    0.041237 0.628301 0.723486 0.111716
H27   H     H_    0.028576 0.536226 0.773095 0.220018
H28   H     H_    0.148017 0.475064 0.728077 0.203949
H29   H     H_    0.025022 0.450424 0.692930 0.104549
H30   H     H_    0.163473 0.569351 0.679207 0.193138
H31   H     H_    0.277851 0.732360 0.904806 0.126090
H32   H     H_    0.312031 0.696319 0.845985 0.176763
H33   H     H_    0.219745 0.493669 0.869581 0.201860
H34   H     H_    0.812291 0.419957 0.703044 0.139723
H35   H     H_    0.333439 0.584510 0.910709 0.108892
H36   H     H_    0.186702 0.529608 0.928309 0.184344
H37   H     H_    0.547871 0.455003 0.170928 0.113082
H38   H     H_    0.458979 0.405465 0.224526 0.138535
H39   H     H_    0.288831 0.293333 0.172985 0.221928
H40   H     H_    0.362295 0.441000 0.156224 0.096220
H41   H     H_    0.376606 0.338273 0.119331 0.181680
H42   H     H_    0.485345 0.117468 0.723334 0.115836
H43   H     H_    0.855784 0.386571 0.199390 0.150588
H44   H     H_    0.456390 0.099245 0.636603 0.132115
H45   H     H_    0.061957 0.885113 0.697777 0.140970
H46   H     H_    0.157408 0.993915 0.779327 0.146426
O1    O     O_R   0.302900 0.805360 0.446400 -0.482753
O2    O     O_R   0.638120 0.455970 0.034270 -0.498537
O3    O     O_R   0.667540 0.672320 0.030160 -0.502915
O4    O     O_R   0.522090 0.841370 0.450730 -0.494804
O5    O     O_R   0.814460 0.840990 0.926980 -0.458263
O6    O     O_R   0.001710 0.811400 0.930110 -0.513554
O7    O     O_R   0.023410 0.659800 0.926210 -0.434581
O8    O     O_R   0.806940 0.473170 0.931090 -0.447237
O9    O     O_R   0.633420 0.451310 0.927930 -0.454416
O10   O     O_R   0.663190 0.668000 0.931580 -0.510620
O11   O     O_3   0.826130 0.653050 0.980200 -0.284200
O12   O     O_R   0.657980 0.180990 0.549630 -0.500827
O13   O     O_R   0.693280 0.995650 0.447220 -0.470130
O14   O     O_R   0.657260 0.178740 0.451050 -0.475354
O15   O     O_R   0.502640 0.195380 0.446850 -0.497935
O16   O     O_R   0.319630 0.976590 0.450330 -0.479966
O17   O     O_R   0.303680 0.807790 0.552740 -0.514374
O18   O     O_R   0.522820 0.843620 0.549310 -0.515253
O19   O     O_R   0.694060 0.998080 0.553560 -0.502136
O20   O     O_3   0.774428 0.019296 0.182747 -0.527608
O21   O     O_3   0.853213 0.319266 0.772130 -0.563166
O22   O     O_3   0.190287 0.675448 0.763360 -0.526405
O23   O     O_R   0.503420 0.197810 0.553190 -0.502835
O24   O     O_3   0.139132 0.634870 0.859513 -0.490689
O25   O     O_3   0.479390 0.283262 0.186477 -0.497532
O26   O     O_R   0.320350 0.978840 0.548910 -0.472137
O27   O     O_3   0.499990 0.999990 0.500010 -0.281565
O28   O     O_R   0.819150 0.845650 0.033320 -0.487454
O29   O     O_R   0.006060 0.815720 0.028680 -0.485506
O30   O     O_R   0.028100 0.664460 0.032550 -0.516115
O31   O     O_R   0.811290 0.477490 0.029660 -0.494176

loop_
_geom_bond_atom_site_label_1
_geom_bond_atom_site_label_2
_ccdc_geom_bond_type
C25   C31   A    
C7    C10   S    
C63   C65   A    
C84   H31   S    
C72   O6    A    
Cr4   O6    S    
C81   H22   S    
C27   C29   A    
C41   C42   A    
Cr3   O23   S    
C35   C36   A    
C75   C76   A    
C77   H16   S    
C43   C51   S    
C52   O17   A    
C47   O22   S    
C39   C41   A    
C41   Cl6   S    
C54   C60   A    
C79   H17   S    
C12   C23   A    
C10   C88   T    
C26   C27   A    
C45   C76   A    
C5    C6    A    
C18   Cl3   S    
C32   H23   S    
C36   C37   A    
Cr1   O27   S    
C25   C40   S    
C40   O23   A    
C70   C78   S    
C80   H21   S    
Cr2   O27   S    
C68   C74   S    
C71   O3    A    
Cr1   O4    S    
C17   C20   A    
C56   C78   T    
C4    O15   A    
C16   O1    A    
Cr5   O30   S    
C63   H8    S    
C49   C50   A    
C42   H45   S    
C65   H7    S    
C83   H30   S    
C63   C68   A    
C60   H10   S    
C61   C66   A    
C58   C66   S    
C2    C7    A    
C2    Cl9   S    
C16   O16   A    
C8    C9    S    
C14   H14   S    
C57   Cl8   S    
C46   H4    S    
C74   O5    A    
C4    O14   A    
Cr6   O3    S    
C82   H26   S    
C85   H35   S    
C48   O24   S    
C61   C62   A    
C45   C56   S    
C34   C75   A    
C77   C79   S    
C39   C52   S    
C59   C60   A    
Cr5   O31   S    
C62   Cl7   S    
C55   H5    S    
Cr4   O29   S    
C4    C64   S    
C1    O4    A    
Cr6   O10   S    
C84   O24   S    
C61   H6    S    
C44   C46   A    
C30   H42   S    
Cr1   O17   S    
C35   Cl5   S    
C15   C20   A    
C79   H18   S    
C82   O22   S    
Cr5   O11   S    
C27   H34   S    
C64   C67   T    
C35   C38   A    
C70   O2    A    
C84   C85   S    
C76   H43   S    
C3    C8    A    
C33   Cl4   S    
Cr6   O11   S    
C28   C54   S    
C17   O20   S    
Cr5   O7    S    
C47   C51   A    
C50   C51   A    
C25   C26   A    
C6    Cl2   S    
Cr1   O1    S    
C73   O8    A    
C72   O7    A    
C5    H13   S    
C43   C44   A    
C40   O12   A    
C29   C30   A    
C50   H46   S    
C70   O31   A    
C81   H25   S    
C47   C48   A    
C59   H9    S    
C23   C34   A    
C19   C22   S    
C17   C18   A    
Cr2   O14   S    
C32   C37   A    
Cr3   O15   S    
C9    C11   T    
C85   H36   S    
C49   H2    S    
C12   O25   S    
C31   H44   S    
C65   C66   A    
C39   C46   A    
C81   H24   S    
Cr4   O28   S    
C21   C24   T    
C1    C13   S    
C42   C43   A    
C24   C71   S    
Cr6   O9    S    
C85   H33   S    
C86   H38   S    
Cr1   O18   S    
C80   H20   S    
C44   H3    S    
C52   O26   A    
C54   C55   A    
C84   H32   S    
C36   O21   S    
C87   H41   S    
Cr2   O19   S    
C86   C87   S    
C71   O28   A    
C14   C19   A    
C80   C81   S    
C77   H15   S    
C34   C67   S    
C5    C8    A    
C11   C69   S    
Cr5   O8    S    
C6    C7    A    
C12   C45   A    
C62   C68   A    
C48   C53   A    
C73   O9    A    
C87   H40   S    
C33   C38   A    
C74   O10   A    
C32   C33   A    
Cr6   O2    S    
C55   C57   A    
C2    C3    A    
C58   C59   A    
C83   H28   S    
C69   O30   A    
C86   O25   S    
C3    Cl10  S    
C15   H1    S    
C57   C58   A    
C30   C31   A    
C79   H19   S    
Cr4   O11   S    
C49   C53   A    
C13   C22   T    
Cr2   O13   S    
Cr3   O16   S    
C26   H12   S    
C83   H29   S    
Cr3   O27   S    
C28   O18   A    
C23   H11   S    
C28   O19   A    
C20   C21   S    
C1    O13   A    
C82   C83   S    
C75   Cl1   S    
C29   C37   S    
C16   C88   S    
C18   C19   A    
C14   C15   A    
Cr3   O26   S    
Cr2   O12   S    
C80   O21   S    
C87   H39   S    
C82   H27   S    
C77   O20   S    
C53   C72   S    
Cr4   O5    S    
C69   O29   A    
C86   H37   S    
C38   C73   S    
