data_mof_unit_59042.cif
_audit_creation_date              2012-12-11T15:24:41-0500
_audit_creation_method            fapswitch 2.2
_symmetry_space_group_name_H-M    P1
_symmetry_Int_Tables_number       1
_space_group_crystal_system       triclinic
_cell_length_a                    23.095344
_cell_length_b                    7.147798
_cell_length_c                    20.397445
_cell_angle_alpha                 90.000444
_cell_angle_beta                  93.175162
_cell_angle_gamma                 89.999897
_cell_volume                      3362.05849818

loop_
_atom_site_label
_atom_site_type_symbol
_atom_type_description
_atom_site_fract_x
_atom_site_fract_y
_atom_site_fract_z
_atom_type_partial_charge
O1    O     O_R   0.188030 0.379840 0.189340 -0.534364
O2    O     O_R   0.811970 0.620160 0.810660 -0.534074
O3    O     O_R   0.311970 0.879840 0.310660 -0.534364
O4    O     O_R   0.688030 0.120160 0.689340 -0.534066
O5    O     O_R   0.307090 0.708420 0.185790 -0.537230
O6    O     O_R   0.692910 0.291580 0.814210 -0.543378
O7    O     O_R   0.192910 0.208420 0.314210 -0.537231
O8    O     O_R   0.807090 0.791580 0.685790 -0.543379
C1    C     C_R   0.326535 0.542849 0.171172 0.714731
C2    C     C_R   0.673853 0.456755 0.829328 0.716830
C3    C     C_R   0.173466 0.042850 0.328829 0.714731
C4    C     C_R   0.826146 0.956755 0.670672 0.716822
O9    O     O_R   0.188180 0.709480 0.181650 -0.542493
O10   O     O_R   0.811820 0.290520 0.818350 -0.536968
O11   O     O_R   0.311820 0.209480 0.318350 -0.542493
O12   O     O_R   0.688180 0.790520 0.681650 -0.536962
O13   O     O_R   0.192210 0.880960 0.306500 -0.518885
O14   O     O_R   0.807790 0.119040 0.693500 -0.524999
O15   O     O_R   0.307790 0.380960 0.193500 -0.518887
O16   O     O_R   0.692210 0.619040 0.806500 -0.525002
C5    C     C_R   0.168070 0.541117 0.165877 0.706453
C6    C     C_R   0.831737 0.459255 0.834412 0.701345
C7    C     C_R   0.331930 0.041118 0.334123 0.706452
C8    C     C_R   0.668263 0.959255 0.665587 0.701338
O17   O     O_3   0.251460 0.546730 0.290970 -0.372789
O18   O     O_3   0.748540 0.453270 0.709030 -0.374630
O19   O     O_3   0.248540 0.046730 0.209030 -0.372790
O20   O     O_3   0.751460 0.953270 0.790970 -0.374637
V1    V     V_3+5 0.249730 0.821120 0.242400 1.564221
V2    V     V_3+5 0.750270 0.178880 0.757600 1.491986
V3    V     V_3+5 0.250270 0.321120 0.257600 1.564222
V4    V     V_3+5 0.749730 0.678880 0.742400 1.491988
C9    C     C_R   0.574336 0.837167 0.615715 -0.129979
C10   C     C_R   0.425630 0.166498 0.384005 -0.101053
C11   C     C_R   0.925664 0.337162 0.884284 -0.129990
C12   C     C_R   0.074370 0.666495 0.115995 -0.101041
C13   C     C_R   0.619078 0.969732 0.615827 -0.115384
C14   C     C_R   0.381207 0.032269 0.383718 -0.109552
C15   C     C_R   0.880923 0.469730 0.884172 -0.115381
C16   C     C_R   0.118794 0.532268 0.116281 -0.109546
C17   C     C_R   0.615989 0.114898 0.569510 -0.078606
C18   C     C_R   0.384354 0.887899 0.430167 -0.080970
C19   C     C_R   0.884012 0.614898 0.930489 -0.078643
C20   C     C_R   0.115649 0.387903 0.069829 -0.080969
C21   C     C_R   0.568853 0.127981 0.523190 0.092835
C22   C     C_R   0.431243 0.876407 0.476689 0.105177
C23   C     C_R   0.931147 0.627978 0.976810 0.092830
C24   C     C_R   0.068761 0.376415 0.023305 0.105167
C25   C     C_R   0.523763 0.994910 0.523243 0.031435
C26   C     C_R   0.476161 0.010257 0.476770 0.022763
C27   C     C_R   0.976239 0.494912 0.976753 0.031408
C28   C     C_R   0.023841 0.510259 0.023227 0.022738
C29   C     C_R   0.526272 0.847037 0.569813 -0.000695
C30   C     C_R   0.473581 0.158123 0.430154 -0.021382
C31   C     C_R   0.973732 0.347046 0.930180 -0.000712
C32   C     C_R   0.026419 0.658118 0.069846 -0.021391
C33   C     C_R   0.566145 0.274014 0.477327 -0.203404
C34   C     C_R   0.433848 0.730847 0.522606 -0.223428
C35   C     C_R   0.933853 0.774004 0.022677 -0.203439
C36   C     C_R   0.066159 0.230869 0.977381 -0.223459
C37   C     C_R   0.519288 0.291276 0.430914 0.446818
C38   C     C_R   0.480505 0.714512 0.569136 0.430530
C39   C     C_R   0.980710 0.791263 0.069090 0.446819
C40   C     C_R   0.019504 0.214541 0.930849 0.430527
H1    H     H_    0.577151 0.729944 0.653019 0.200654
H2    H     H_    0.422730 0.273641 0.346671 0.202275
H3    H     H_    0.922845 0.229921 0.846985 0.200651
H4    H     H_    0.077271 0.773641 0.153329 0.202273
H5    H     H_    0.650462 0.217920 0.569524 0.125782
H6    H     H_    0.350061 0.784223 0.430126 0.125713
H7    H     H_    0.849540 0.717920 0.930476 0.125776
H8    H     H_    0.149943 0.284230 0.069868 0.125710
H9    H     H_    0.601062 0.375221 0.477809 0.184204
H10   H     H_    0.399113 0.628979 0.521916 0.164964
H11   H     H_    0.898936 0.875208 0.022196 0.184206
H12   H     H_    0.100897 0.129009 0.978067 0.165009
C41   C     C_3   0.041578 0.074066 0.529464 0.326950
C42   C     C_3   0.954130 0.892614 0.464161 0.288790
C43   C     C_3   0.458421 0.574047 0.970539 0.326948
C44   C     C_3   0.545872 0.392601 0.035839 0.288777
C45   C     C_3   0.020496 0.877464 0.545929 0.270998
C46   C     C_3   0.975679 0.087587 0.447013 0.171278
C47   C     C_3   0.479504 0.377445 0.954073 0.271007
C48   C     C_3   0.524323 0.587574 0.052988 0.171282
C49   C     C_1   0.871030 0.951339 0.623765 -0.101240
C50   C     C_1   0.127160 0.044217 0.373947 -0.041483
C51   C     C_1   0.628969 0.451336 0.876233 -0.101227
C52   C     C_1   0.372842 0.544212 0.126055 -0.041482
C53   C     C_3   0.977897 0.144041 0.520845 0.309329
C54   C     C_3   0.018199 0.823678 0.471795 0.394489
C55   C     C_3   0.522102 0.644025 0.979156 0.309337
C56   C     C_3   0.481803 0.323663 0.028208 0.394498
C57   C     C_3   0.956288 0.945948 0.538348 -0.325144
C58   C     C_3   0.039537 0.021627 0.456053 -0.279456
C59   C     C_3   0.543711 0.445931 0.961652 -0.325148
C60   C     C_3   0.460465 0.521613 0.043950 -0.279454
C61   C     C_1   0.908834 0.939117 0.584836 0.228958
C62   C     C_1   0.087875 0.045398 0.411169 0.274505
C63   C     C_1   0.591165 0.439107 0.915163 0.228959
C64   C     C_1   0.412127 0.545388 0.088834 0.274512
S1    S     S_3+6 0.520785 0.478522 0.373878 -0.015937
O21   O     O_2   0.528509 0.400051 0.306560 -0.314667
O22   O     O_2   0.464698 0.585041 0.373246 -0.361497
O23   O     O_3   0.575830 0.625636 0.393904 -0.506911
H13   H     H_    0.569926 0.733464 0.363745 0.371636
S2    S     S_3+6 0.479597 0.526714 0.625619 -0.054867
O24   O     O_2   0.535298 0.419146 0.623696 -0.359355
O25   O     O_2   0.474474 0.603152 0.693739 -0.345185
O26   O     O_3   0.423989 0.380192 0.607316 -0.503446
H14   H     H_    0.390325 0.435841 0.628213 0.356029
S3    S     S_3+6 0.979212 0.978498 0.126131 -0.015926
O27   O     O_2   0.971516 0.900015 0.193452 -0.314665
O28   O     O_2   0.035290 0.085065 0.126743 -0.361496
O29   O     O_3   0.924149 0.125564 0.106128 -0.506876
H15   H     H_    0.930064 0.233426 0.136279 0.371620
S4    S     S_3+6 0.020418 0.026775 0.874354 -0.054837
O30   O     O_2   0.964743 0.919089 0.876315 -0.359332
O31   O     O_2   0.025485 0.103244 0.806231 -0.345200
O32   O     O_3   0.076066 0.880374 0.892608 -0.503442
H16   H     H_    0.109701 0.936103 0.871685 0.356056
O33   O     O_3   0.049780 0.763505 0.593820 -0.490946
C65   C     C_3   0.020962 0.764090 0.652955 0.221386
H17   H     H_    0.978614 0.691530 0.645773 0.161696
H18   H     H_    0.013604 0.909336 0.670444 0.155279
C66   C     C_3   0.057957 0.659255 0.705579 -0.243661
H19   H     H_    0.076565 0.531322 0.684123 0.270459
H20   H     H_    0.094381 0.750594 0.723669 0.220212
C67   C     C_3   0.022379 0.601272 0.763146 -0.643751
H21   H     H_    0.997281 0.721683 0.780386 0.279988
H22   H     H_    0.051593 0.549093 0.804201 0.259336
H23   H     H_    0.991542 0.488118 0.748144 0.254340
O34   O     O_3   0.958026 0.170032 0.386298 -0.565852
C68   C     C_3   0.908574 0.281474 0.391205 0.262920
H24   H     H_    0.923990 0.425543 0.397941 0.250778
H25   H     H_    0.882027 0.243883 0.433033 0.198575
C69   C     C_3   0.871627 0.269310 0.326601 -0.294795
H26   H     H_    0.894096 0.343315 0.287352 0.224273
H27   H     H_    0.866413 0.120582 0.311656 0.244603
C70   C     C_3   0.811437 0.353903 0.332549 -0.644903
H28   H     H_    0.787757 0.278314 0.370394 0.250576
H29   H     H_    0.786273 0.341549 0.284759 0.226575
H30   H     H_    0.814566 0.503982 0.345902 0.294268
O35   O     O_3   0.450217 0.263478 0.906186 -0.490936
C71   C     C_3   0.479033 0.264040 0.847050 0.221398
H31   H     H_    0.521390 0.191533 0.854236 0.161661
H32   H     H_    0.486373 0.409279 0.829545 0.155299
C72   C     C_3   0.442048 0.159107 0.794442 -0.243648
H33   H     H_    0.423475 0.031140 0.815912 0.270570
H34   H     H_    0.405599 0.250356 0.776359 0.220182
C73   C     C_3   0.477622 0.101183 0.736865 -0.643878
H35   H     H_    0.502637 0.221717 0.719565 0.280142
H36   H     H_    0.448410 0.048728 0.695848 0.259316
H37   H     H_    0.508537 0.988240 0.751882 0.254263
O36   O     O_3   0.541977 0.670023 0.113702 -0.565851
C74   C     C_3   0.591430 0.781462 0.108794 0.262922
H38   H     H_    0.576014 0.925532 0.102059 0.250778
H39   H     H_    0.617975 0.743869 0.066965 0.198575
C75   C     C_3   0.628378 0.769298 0.173397 -0.294799
H40   H     H_    0.605910 0.843303 0.212647 0.224276
H41   H     H_    0.633593 0.620570 0.188341 0.244606
C76   C     C_3   0.688568 0.853891 0.167447 -0.644903
H42   H     H_    0.712247 0.778302 0.129601 0.250577
H43   H     H_    0.713733 0.841538 0.215236 0.226576
H44   H     H_    0.685438 0.003970 0.154095 0.294268
S5    S     S_3+6 0.100977 0.183254 0.574367 0.117429
O37   O     O_2   0.092827 0.166124 0.646678 -0.307519
O38   O     O_2   0.156267 0.086982 0.558288 -0.308802
O39   O     O_3   0.104768 0.410296 0.554358 -0.403781
H45   H     H_    0.139252 0.458500 0.580023 0.385141
S6    S     S_3+6 0.890251 0.794131 0.424124 0.025584
O40   O     O_2   0.870565 0.629819 0.462724 -0.304407
O41   O     O_2   0.841643 0.933592 0.421013 -0.339929
O42   O     O_3   0.904258 0.729510 0.347310 -0.498087
H46   H     H_    0.927736 0.832425 0.330092 0.384566
S7    S     S_3+6 0.399018 0.683229 0.925642 0.117405
O43   O     O_2   0.407159 0.666071 0.853329 -0.307516
O44   O     O_2   0.343730 0.586971 0.941733 -0.308815
O45   O     O_3   0.395234 0.910277 0.945643 -0.403813
H47   H     H_    0.360730 0.958457 0.920013 0.385154
S8    S     S_3+6 0.609752 0.294119 0.075873 0.025584
O46   O     O_2   0.629437 0.129805 0.037273 -0.304405
O47   O     O_2   0.658360 0.433579 0.078982 -0.339929
O48   O     O_3   0.595748 0.229503 0.152689 -0.498088
H48   H     H_    0.572268 0.332415 0.169907 0.384562
S9    S     S_3+6 0.054895 0.649118 0.426110 0.087965
O49   O     O_2   0.046023 0.694173 0.354176 -0.350753
O50   O     O_2   0.118665 0.654554 0.445282 -0.302446
O51   O     O_3   0.031426 0.434346 0.437329 -0.446620
H49   H     H_    0.042696 0.370981 0.396927 0.373372
S10   S     S_3+6 0.947879 0.337557 0.562983 0.039144
O52   O     O_2   0.966831 0.324063 0.634454 -0.349431
O53   O     O_2   0.968807 0.516452 0.535787 -0.281098
O54   O     O_3   0.875027 0.332916 0.555089 -0.504066
H50   H     H_    0.862179 0.428715 0.586238 0.364212
S11   S     S_3+6 0.445108 0.149106 0.073894 0.087958
O55   O     O_2   0.453980 0.194167 0.145827 -0.350758
O56   O     O_2   0.381338 0.154542 0.054723 -0.302458
O57   O     O_3   0.468576 0.934333 0.062675 -0.446621
H51   H     H_    0.457307 0.870971 0.103078 0.373371
S12   S     S_3+6 0.552119 0.837540 0.937018 0.039128
O58   O     O_2   0.533165 0.824042 0.865547 -0.349457
O59   O     O_2   0.531191 0.016435 0.964215 -0.281096
O60   O     O_3   0.624971 0.832902 0.944910 -0.504066
H52   H     H_    0.637817 0.928698 0.913760 0.364211

loop_
_geom_bond_atom_site_label_1
_geom_bond_atom_site_label_2
_ccdc_geom_bond_type
C34   C38   A    
C43   C47   S    
O60   H52   S    
O1    C5    A    
S1    O21   D    
C40   S4    S    
C57   C61   S    
O19   V1    S    
C9    C29   A    
O13   V1    S    
O3    C7    A    
C72   H33   S    
C56   C60   S    
C44   C48   S    
C56   S11   S    
O15   V3    S    
C67   H21   S    
C10   H2    S    
C76   H42   S    
C9    H1    S    
S7    O44   D    
O42   H46   S    
C42   C54   S    
O7    C3    A    
C47   C56   S    
C21   C33   A    
S5    O37   D    
C46   C53   S    
S6    O41   D    
C4    C49   S    
C46   C58   S    
C44   S8    S    
O9    V1    S    
C72   H34   S    
C14   C18   A    
C69   C70   S    
C1    C52   S    
C48   C60   S    
O4    C8    A    
C70   H30   S    
C59   C63   S    
S9    O50   D    
C74   H39   S    
S6    O40   D    
C58   C62   S    
C42   C57   S    
C41   S5    S    
O35   C71   S    
C41   C58   S    
O1    V3    S    
S4    O30   D    
O2    V4    S    
C18   C22   A    
C33   H9    S    
C33   C37   A    
O3    V1    S    
O12   V4    S    
C12   C16   A    
C75   C76   S    
C48   O36   S    
C1    O15   A    
S3    O27   D    
C2    O16   A    
S12   O58   D    
C73   H37   S    
O2    C6    A    
C66   C67   S    
C19   H7    S    
C53   S10   S    
C54   C58   S    
O57   H51   S    
O14   V2    S    
C48   C55   S    
C21   C25   A    
C16   C20   A    
O5    V1    S    
S10   O54   S    
S8    O48   S    
S11   O57   S    
O11   C7    A    
C66   H19   S    
O12   C8    A    
O54   H50   S    
C22   C34   A    
C74   C75   S    
C75   H41   S    
S5    O38   D    
O10   V2    S    
C71   C72   S    
O23   H13   S    
C76   H43   S    
S8    O47   D    
C24   C36   A    
S7    O45   S    
C51   C63   T    
O17   V1    S    
C2    C51   S    
C23   C35   A    
O7    V3    S    
C11   C31   A    
C27   C28   A    
O8    V4    S    
C43   S7    S    
O20   V4    S    
C72   C73   S    
C71   H32   S    
O32   H16   S    
C39   S3    S    
O18   V4    S    
O34   C68   S    
S9    O51   S    
C15   C19   A    
O19   V3    S    
C36   H12   S    
C53   C57   S    
C9    C13   A    
C37   S1    S    
C45   O33   S    
O51   H49   S    
C44   C56   S    
C11   C15   A    
O48   H48   S    
C42   S6    S    
O5    C1    A    
C12   C32   A    
C68   C69   S    
C41   C53   S    
C45   C57   S    
C29   C38   A    
C42   C46   S    
S7    O43   D    
C41   C45   S    
O8    C4    A    
C47   C59   S    
C31   C40   A    
C8    C13   S    
O36   C74   S    
C32   C39   A    
O9    C5    A    
S3    O28   D    
C71   H31   S    
C26   C30   A    
C44   C59   S    
O11   V3    S    
O33   C65   S    
C52   C64   T    
C55   S12   S    
S12   O59   D    
O39   H45   S    
O6    V2    S    
O18   V2    S    
S1    O23   S    
C75   H40   S    
C73   H36   S    
S10   O52   D    
C45   C54   S    
C65   H18   S    
C67   H23   S    
C35   H11   S    
C76   H44   S    
S8    O46   D    
C34   H10   S    
C69   H27   S    
C17   H5    S    
O16   V4    S    
C3    O13   A    
S10   O53   D    
C10   C14   A    
C43   C55   S    
O17   V3    S    
C69   H26   S    
C30   C37   A    
C67   H22   S    
O6    C2    A    
C23   C27   A    
C70   H28   S    
C12   H4    S    
O29   H15   S    
C38   S2    S    
C54   S9    S    
S5    O39   S    
C7    C14   S    
C22   C26   A    
C35   C39   A    
S4    O32   S    
C36   C40   A    
O10   C6    A    
C65   C66   S    
O20   V2    S    
C43   C60   S    
O26   H14   S    
C47   O35   S    
C70   H29   S    
C10   C30   A    
S9    O49   D    
C68   H24   S    
C5    C16   S    
S2    O25   D    
S12   O60   S    
C25   C29   A    
C6    C15   S    
C60   C64   S    
C18   H6    S    
S4    O31   D    
C20   H8    S    
S3    O29   S    
C27   C31   A    
C13   C17   A    
C50   C62   T    
C49   C61   T    
C11   H3    S    
C55   C59   S    
S11   O55   D    
C20   C24   A    
C24   C28   A    
S1    O22   D    
C25   C26   A    
S2    O24   D    
C4    O14   A    
C74   H38   S    
C66   H20   S    
C68   H25   S    
C17   C21   A    
C73   H35   S    
C46   O34   S    
C3    C50   S    
C65   H17   S    
C19   C23   A    
S2    O26   S    
O4    V2    S    
C28   C32   A    
O45   H47   S    
S11   O56   D    
S6    O42   S    
