data_mof_unit_14735.cif
_audit_creation_date              2012-12-11T15:07:31-0500
_audit_creation_method            fapswitch 2.2
_symmetry_space_group_name_H-M    P1
_symmetry_Int_Tables_number       1
_space_group_crystal_system       triclinic
_cell_length_a                    21.755558
_cell_length_b                    7.193122
_cell_length_c                    18.724057
_cell_angle_alpha                 89.999389
_cell_angle_beta                  95.178335
_cell_angle_gamma                 90.001942
_cell_volume                      2918.17578861

loop_
_atom_site_label
_atom_site_type_symbol
_atom_type_description
_atom_site_fract_x
_atom_site_fract_y
_atom_site_fract_z
_atom_type_partial_charge
O1    O     O_R   0.449650 0.506500 0.414480 -0.527378
O2    O     O_R   0.550350 0.006500 0.585520 -0.527379
O3    O     O_R   0.432010 0.173150 0.560250 -0.541595
O4    O     O_R   0.567990 0.673150 0.439750 -0.541578
C1    C     C_R   0.416420 0.344535 0.581427 0.696111
C2    C     C_R   0.583581 0.844540 0.418577 0.696127
O5    O     O_R   0.442320 0.176650 0.413480 -0.540554
O6    O     O_R   0.557680 0.676650 0.586520 -0.540555
O7    O     O_R   0.560730 0.008380 0.437700 -0.525596
O8    O     O_R   0.439270 0.508380 0.562300 -0.525594
C3    C     C_R   0.425699 0.346286 0.390271 0.680942
C4    C     C_R   0.574298 0.846290 0.609730 0.680939
O9    O     O_3   0.538840 0.339860 0.508120 -0.361421
O10   O     O_3   0.461160 0.839860 0.491880 -0.361417
V1    V     V_3+5 0.492800 0.064220 0.498490 1.490123
V2    V     V_3+5 0.507200 0.564220 0.501510 1.490141
C5    C     C_R   0.870169 0.053803 0.699404 -0.156344
C6    C     C_R   0.129857 0.554104 0.300563 -0.156352
H1    H     H_    0.954544 0.090992 0.764791 0.109470
H2    H     H_    0.045483 0.591263 0.235174 0.109490
H3    H     H_    0.792456 0.097713 0.588483 0.125664
H4    H     H_    0.207581 0.598137 0.411466 0.125658
H5    H     H_    0.888719 0.120324 0.654012 0.115177
H6    H     H_    0.111322 0.620762 0.345934 0.115176
C7    C     C_R   0.886955 0.945921 0.821220 -0.074589
C8    C     C_R   0.113041 0.445950 0.178784 -0.074614
C9    C     C_R   0.589532 0.795345 0.738681 -0.172584
C10   C     C_R   0.410446 0.295096 0.261333 -0.172543
C11   C     C_R   0.623322 0.794541 0.805177 -0.005661
C12   C     C_R   0.376648 0.294143 0.194839 -0.005654
C13   C     C_R   0.685808 0.839908 0.811044 -0.172803
C14   C     C_R   0.314171 0.339619 0.188968 -0.172763
C15   C     C_R   0.717257 0.881269 0.750142 0.060668
C16   C     C_R   0.282735 0.381206 0.249864 0.060665
C17   C     C_R   0.680292 0.907737 0.682780 0.026260
C18   C     C_R   0.319709 0.407776 0.317215 0.026228
C19   C     C_R   0.783230 0.914572 0.755587 0.036957
C20   C     C_R   0.216766 0.414601 0.244416 0.036954
C21   C     C_R   0.808451 0.996678 0.695767 0.126569
C22   C     C_R   0.191566 0.496898 0.304210 0.126580
C23   C     C_R   0.771935 0.030358 0.632624 -0.221390
C24   C     C_R   0.228089 0.530658 0.367341 -0.221384
C25   C     C_R   0.709230 0.991342 0.625669 -0.083766
C26   C     C_R   0.290785 0.491524 0.374309 -0.083759
C27   C     C_R   0.826036 0.872965 0.817015 -0.105674
C28   C     C_R   0.173946 0.372902 0.183008 -0.105698
C29   C     C_R   0.908013 0.035838 0.762278 -0.170710
C30   C     C_R   0.092004 0.536039 0.237700 -0.170671
C31   C     C_R   0.616027 0.854395 0.677252 -0.097607
C32   C     C_R   0.383967 0.354358 0.322750 -0.097612
H7    H     H_    0.541229 0.755249 0.735021 0.121617
H8    H     H_    0.458741 0.254909 0.264999 0.121554
H9    H     H_    0.707820 0.852783 0.864599 0.134963
H10   H     H_    0.292155 0.352375 0.135409 0.134955
C33   C     C_R   0.634583 0.011729 0.322579 -0.177151
C34   C     C_R   0.365417 0.511734 0.677418 -0.177160
C35   C     C_R   0.632476 0.856984 0.368120 -0.061755
C36   C     C_R   0.367528 0.356967 0.631888 -0.061803
C37   C     C_R   0.677310 0.717525 0.365845 -0.187306
C38   C     C_R   0.322697 0.217493 0.634170 -0.187496
C39   C     C_R   0.724510 0.730827 0.318957 0.094202
C40   C     C_R   0.275483 0.230833 0.681039 0.094080
C41   C     C_R   0.725942 0.888150 0.273209 0.017340
C42   C     C_R   0.274047 0.388185 0.726777 0.017335
C43   C     C_R   0.680726 0.029509 0.274866 0.043715
C44   C     C_R   0.319273 0.529525 0.725128 0.043686
C45   C     C_R   0.770545 0.591480 0.316738 0.147157
C46   C     C_R   0.229431 0.091511 0.683239 0.147193
C47   C     C_R   0.815768 0.608577 0.268078 -0.194685
C48   C     C_R   0.184203 0.108636 0.731891 -0.194655
C49   C     C_R   0.817446 0.763745 0.223097 0.053438
C50   C     C_R   0.182529 0.263806 0.776875 0.053431
C51   C     C_R   0.772918 0.904930 0.225974 0.052308
C52   C     C_R   0.227064 0.404984 0.774002 0.052315
C53   C     C_R   0.775550 0.063163 0.181623 0.090023
C54   C     C_R   0.224438 0.563210 0.818357 0.090044
C55   C     C_R   0.730695 0.202046 0.183715 -0.195135
C56   C     C_R   0.269306 0.702072 0.816277 -0.195136
C57   C     C_R   0.683199 0.185900 0.229092 -0.047288
C58   C     C_R   0.316811 0.685892 0.770914 -0.047371
C59   C     C_R   0.863561 0.780221 0.175616 -0.190035
C60   C     C_R   0.136415 0.280278 0.824357 -0.190054
C61   C     C_R   0.866820 0.937956 0.131487 -0.074608
C62   C     C_R   0.133169 0.437980 0.868499 -0.074630
C63   C     C_R   0.822811 0.079784 0.135393 -0.205629
C64   C     C_R   0.177183 0.579809 0.864596 -0.205638
H11   H     H_    0.599628 0.118376 0.324308 0.133246
H12   H     H_    0.400368 0.618399 0.675679 0.133254
H13   H     H_    0.675378 0.600112 0.401655 0.143559
H14   H     H_    0.324638 0.100048 0.598376 0.143596
H15   H     H_    0.850536 0.501187 0.265915 0.127779
H16   H     H_    0.149426 0.001256 0.734046 0.127782
H17   H     H_    0.897586 0.670582 0.173791 0.121093
H18   H     H_    0.102383 0.170651 0.826175 0.121089
H19   H     H_    0.824586 0.201436 0.101460 0.137195
H20   H     H_    0.175419 0.701436 0.898540 0.137202
H21   H     H_    0.732554 0.323616 0.149660 0.142141
H22   H     H_    0.267466 0.823597 0.850356 0.142137
O11   O     O_R   0.060820 0.290050 0.937800 -0.537538
O12   O     O_R   0.939180 0.790050 0.062200 -0.537540
O13   O     O_R   0.057690 0.616620 0.086540 -0.538156
O14   O     O_R   0.942310 0.116620 0.913460 -0.538170
C65   C     C_R   0.071695 0.448671 0.111731 0.690081
C66   C     C_R   0.928303 0.948668 0.888271 0.690082
O15   O     O_R   0.068010 0.619890 0.939770 -0.543252
O16   O     O_R   0.931990 0.119890 0.060230 -0.543260
O17   O     O_R   0.949640 0.787940 0.914460 -0.533775
O18   O     O_R   0.050360 0.287940 0.085540 -0.533775
C67   C     C_R   0.084116 0.450968 0.918737 0.697620
C68   C     C_R   0.915881 0.950961 0.081259 0.697626
O19   O     O_3   0.961210 0.453080 0.991940 -0.369584
O20   O     O_3   0.038790 0.953080 0.008060 -0.369562
V3    V     V_3+5 0.007200 0.728820 0.001500 1.455341
V4    V     V_3+5 0.992800 0.228820 0.998500 1.455301
C69   C     C_3   0.773391 0.426083 0.366593 -0.777200
H23   H     H_    0.811335 0.329269 0.356093 0.208931
H24   H     H_    0.781343 0.474369 0.422990 0.207320
H25   H     H_    0.729549 0.346930 0.359887 0.217298
C70   C     C_3   0.226555 0.926147 0.633349 -0.777139
H26   H     H_    0.188549 0.829464 0.643768 0.208903
H27   H     H_    0.218676 0.974535 0.576951 0.207296
H28   H     H_    0.270357 0.846809 0.640102 0.217311
C71   C     C_1   0.638168 0.333976 0.228142 0.308030
N1    N     N_1   0.602157 0.452544 0.227408 -0.340570
C72   C     C_1   0.361939 0.833727 0.771983 0.308109
N2    N     N_1   0.398053 0.952050 0.772839 -0.340530
C73   C     C_1   0.812325 0.741748 0.871996 0.277545
N3    N     N_1   0.801933 0.636277 0.916048 -0.342577
C74   C     C_1   0.187626 0.241500 0.128078 0.277589
N4    N     N_1   0.197993 0.135881 0.084068 -0.342553
C75   C     C_1   0.593386 0.747725 0.868367 0.336237
N5    N     N_1   0.569337 0.710128 0.919107 -0.298745
C76   C     C_1   0.406562 0.246988 0.131661 0.336096
N6    N     N_1   0.430591 0.209095 0.080932 -0.298762
C77   C     C_1   0.677318 0.076689 0.563742 0.272489
N7    N     N_1   0.655082 0.154033 0.513926 -0.325810
C78   C     C_1   0.322705 0.576823 0.436241 0.272518
N8    N     N_1   0.344946 0.654126 0.486064 -0.325773

loop_
_geom_bond_atom_site_label_1
_geom_bond_atom_site_label_2
_ccdc_geom_bond_type
C12   C14   A    
C41   C43   A    
O12   C68   A    
C26   C78   S    
C60   H18   S    
C54   C64   A    
C9    C11   A    
O13   V3    S    
O1    C3    A    
O2    C4    A    
O11   V4    S    
C4    C31   S    
O3    V1    S    
C77   N7    T    
C21   C23   A    
H4    C24   S    
O5    C3    A    
C5    H5    S    
C52   C54   A    
C1    C36   S    
O16   V4    S    
C43   C57   A    
O15   V3    S    
C54   C56   A    
C46   C70   S    
C5    C21   A    
C56   C58   A    
C35   C37   A    
C58   C72   S    
C36   C38   A    
C69   H23   S    
O11   C67   A    
C2    O7    A    
C38   C40   A    
C37   H13   S    
O18   V4    S    
C47   C49   A    
C45   C69   S    
O17   V3    S    
C40   C42   A    
C33   C43   A    
C10   C32   A    
C53   C63   A    
C69   H24   S    
C56   H22   S    
C13   C15   A    
C55   H21   S    
C65   O18   A    
C17   C25   A    
C7    C29   A    
C8    C30   A    
C69   H25   S    
C70   H27   S    
C72   N2    T    
O6    V2    S    
C11   C13   A    
C51   C53   A    
C2    C35   S    
C24   C26   A    
C28   C74   S    
C14   H10   S    
O20   V3    S    
C59   C61   A    
C9    H7    S    
C55   C57   A    
C37   C39   A    
O12   V3    S    
C71   N1    T    
C50   C52   A    
C49   C51   A    
O5    V1    S    
C41   C51   A    
C57   C71   S    
C15   C19   A    
C45   C47   A    
C42   C44   A    
O4    V2    S    
C25   C77   S    
C17   C31   A    
O14   V4    S    
C8    C65   S    
C59   H17   S    
C39   C45   A    
O6    C4    A    
C12   C76   S    
C39   C41   A    
C61   C68   S    
H1    C29   S    
O1    V2    S    
C13   H9    S    
O14   C66   A    
O2    V1    S    
C53   C55   A    
H2    C30   S    
C64   H20   S    
H3    C23   S    
O4    C2    A    
C61   C63   A    
C60   C62   A    
C33   C35   A    
C76   N6    T    
C6    H6    S    
C18   C26   A    
C19   C27   A    
C73   N3    T    
C7    C27   A    
C18   C32   A    
C74   N4    T    
O16   C68   A    
C70   H28   S    
O15   C67   A    
C16   C20   A    
C48   H16   S    
C23   C25   A    
C5    C29   A    
C62   C64   A    
O3    C1    A    
C6    C30   A    
C70   H26   S    
C7    C66   S    
C10   H8    S    
C38   H14   S    
C44   C58   A    
C78   N8    T    
C62   C67   S    
C40   C46   A    
C10   C12   A    
O7    V1    S    
C1    O8    A    
C19   C21   A    
C3    C32   S    
O8    V2    S    
C20   C22   A    
C63   H19   S    
C11   C75   S    
C27   C73   S    
C34   C44   A    
C22   C24   A    
C15   C17   A    
C34   C36   A    
O19   V4    S    
C16   C18   A    
C33   H11   S    
C20   C28   A    
C34   H12   S    
C8    C28   A    
C9    C31   A    
C6    C22   A    
O13   C65   A    
O9    V2    S    
C46   C48   A    
C42   C52   A    
O10   V1    S    
C48   C50   A    
C47   H15   S    
C66   O17   A    
C50   C60   A    
C75   N5    T    
C14   C16   A    
C49   C59   A    
