data_mof_unit_42841.cif
_audit_creation_date              2012-12-11T14:19:25-0500
_audit_creation_method            fapswitch 2.2
_symmetry_space_group_name_H-M    P1
_symmetry_Int_Tables_number       1
_space_group_crystal_system       triclinic
_cell_length_a                    19.4411
_cell_length_b                    7.238104
_cell_length_c                    17.774049
_cell_angle_alpha                 90.00238
_cell_angle_beta                  107.612349
_cell_angle_gamma                 89.999873
_cell_volume                      2383.86744934

loop_
_atom_site_label
_atom_site_type_symbol
_atom_type_description
_atom_site_fract_x
_atom_site_fract_y
_atom_site_fract_z
_atom_type_partial_charge
O1    O     O_R   0.414820 0.494320 0.416790 -0.521421
O2    O     O_R   0.585180 0.994320 0.583210 -0.521456
O3    O     O_R   0.560270 0.819500 0.430140 -0.531084
O4    O     O_R   0.439730 0.319500 0.569860 -0.531000
C1    C     C_R   0.580830 0.655251 0.414719 0.827540
C2    C     C_R   0.419170 0.155257 0.585281 0.827515
O5    O     O_R   0.413840 0.823740 0.407440 -0.537916
O6    O     O_R   0.586160 0.323740 0.592560 -0.537904
O7    O     O_R   0.437710 0.998590 0.560350 -0.529260
O8    O     O_R   0.562290 0.498590 0.439650 -0.529354
C3    C     C_R   0.388980 0.654273 0.384019 0.715992
C4    C     C_R   0.611022 0.154285 0.615975 0.715716
O9    O     O_3   0.508000 0.662290 0.550200 -0.373334
O10   O     O_3   0.492000 0.162290 0.449800 -0.373447
V1    V     V_3+5 0.498520 0.935380 0.490690 1.671352
V2    V     V_3+5 0.501480 0.435380 0.509310 1.671479
C5    C     C_2   0.780490 0.268837 0.790046 0.323750
C6    C     C_2   0.219646 0.768737 0.209758 0.323754
C7    C     C_2   0.824112 0.119234 0.813442 -0.223070
C8    C     C_2   0.175891 0.619284 0.186541 -0.223040
H1    H     H_    0.814155 0.997362 0.776106 0.184583
H2    H     H_    0.185721 0.497642 0.224023 0.184383
C9    C     C_2   0.720954 0.271397 0.714363 -0.168757
C10   C     C_2   0.279154 0.771497 0.285465 -0.168609
C11   C     C_2   0.671421 0.136550 0.689884 0.228022
C12   C     C_2   0.328584 0.636462 0.310103 0.228048
H3    H     H_    0.715133 0.397100 0.679591 0.183260
H4    H     H_    0.285046 0.897456 0.320099 0.183146
C13   C     C_R   0.302341 0.054627 0.604410 0.355727
C14   C     C_R   0.697752 0.555132 0.395696 0.355537
C15   C     C_R   0.369449 0.145537 0.634027 -0.211224
C16   C     C_R   0.630559 0.645527 0.365983 -0.211193
C17   C     C_R   0.388858 0.228381 0.709155 0.170623
C18   C     C_R   0.611076 0.727917 0.290778 0.170451
C19   C     C_R   0.340084 0.226450 0.754001 0.073752
C20   C     C_R   0.659845 0.725995 0.245925 0.073687
C21   C     C_R   0.273761 0.129392 0.726155 -0.043723
C22   C     C_R   0.726270 0.629460 0.273879 -0.043875
C23   C     C_R   0.255763 0.035074 0.652370 -0.063650
C24   C     C_R   0.744373 0.535664 0.347778 -0.063692
C25   C     C_R   0.356478 0.319151 0.826741 -0.114534
C26   C     C_R   0.643350 0.818196 0.173074 -0.114524
C27   C     C_R   0.309074 0.317219 0.871567 -0.100762
C28   C     C_R   0.690748 0.816269 0.128241 -0.100800
C29   C     C_R   0.243335 0.221391 0.845922 0.037642
C30   C     C_R   0.756588 0.720953 0.153993 0.037639
C31   C     C_R   0.225540 0.126414 0.772819 0.003927
C32   C     C_R   0.774489 0.626492 0.227209 0.003920
C33   C     C_R   0.159771 0.028427 0.746435 -0.016311
C34   C     C_R   0.840360 0.529033 0.253700 -0.016348
C35   C     C_R   0.144777 0.927648 0.676034 -0.136287
C36   C     C_R   0.855490 0.428863 0.324247 -0.136296
C37   C     C_R   0.191822 0.925957 0.630375 0.438574
C38   C     C_R   0.808458 0.427170 0.369923 0.438657
C39   C     C_R   0.195650 0.217212 0.892265 0.306528
C40   C     C_R   0.804273 0.716780 0.107649 0.306272
C41   C     C_R   0.129558 0.120860 0.865301 -0.196608
C42   C     C_R   0.870449 0.620888 0.134702 -0.196545
C43   C     C_R   0.111158 0.028742 0.791834 0.190743
C44   C     C_R   0.888948 0.529273 0.208269 0.190615
H5    H     H_    0.405964 0.396262 0.850028 0.189598
H6    H     H_    0.593780 0.894891 0.149698 0.189660
H7    H     H_    0.324983 0.392351 0.926732 0.202794
H8    H     H_    0.674754 0.890984 0.072983 0.202849
H9    H     H_    0.096942 0.842679 0.656458 0.219649
H10   H     H_    0.903436 0.344388 0.343942 0.219733
O11   O     O_R   0.937810 0.773680 0.060480 -0.522492
O12   O     O_R   0.062190 0.273680 0.939520 -0.522402
O13   O     O_R   0.086190 0.439740 0.092580 -0.512955
O14   O     O_R   0.913810 0.939740 0.907420 -0.512905
C45   C     C_R   0.112283 0.609272 0.114890 0.779965
C46   C     C_R   0.887727 0.109269 0.885094 0.779750
O15   O     O_R   0.939760 0.444210 0.069890 -0.529890
O16   O     O_R   0.060240 0.944210 0.930110 -0.529807
O17   O     O_R   0.914790 0.269640 0.916760 -0.531857
O18   O     O_R   0.085210 0.769640 0.083240 -0.531933
C47   C     C_R   0.919491 0.612608 0.085032 0.814851
C48   C     C_R   0.080510 0.112602 0.914968 0.814839
O19   O     O_3   0.992050 0.601530 0.949880 -0.373146
O20   O     O_3   0.007950 0.101530 0.050120 -0.373373
V3    V     V_3+5 0.001480 0.328340 0.009300 1.687173
V4    V     V_3+5 0.998520 0.828340 0.990700 1.687304
Br1   Br    Br    0.791900 0.497504 0.847930 -0.350034
Br2   Br    Br    0.208534 0.996837 0.151481 -0.349883
Br3   Br    Br    0.017008 0.913531 0.751886 -0.469712
Br4   Br    Br    0.983179 0.414578 0.248269 -0.470166
Cl1   Cl    Cl    0.169484 0.763233 0.552690 -0.475023
Cl2   Cl    Cl    0.831038 0.265223 0.447856 -0.474759
Cl3   Cl    Cl    0.671080 0.938419 0.748248 -0.507185
Cl4   Cl    Cl    0.328775 0.437846 0.251941 -0.507407
Cl5   Cl    Cl    0.275050 0.994144 0.502818 -0.548996
Cl6   Cl    Cl    0.725057 0.495278 0.497342 -0.549161
Br5   Br    Br    0.483750 0.338833 0.750726 -0.455741
Br6   Br    Br    0.516095 0.837793 0.249132 -0.455950
Cl7   Cl    Cl    0.219782 0.325965 0.986231 -0.560130
Cl8   Cl    Cl    0.780054 0.824969 0.013580 -0.560068

loop_
_geom_bond_atom_site_label_1
_geom_bond_atom_site_label_2
_ccdc_geom_bond_type
C14   C16   A    
C20   C26   A    
O11   C47   A    
C25   H5    S    
O2    C4    A    
C2    O7    A    
C27   H7    S    
C31   C33   A    
C28   H8    S    
O5    C3    A    
C5    C9    S    
C6    C10   S    
O12   V3    S    
C7    H1    S    
C10   C12   D    
C45   O18   A    
C41   C43   A    
C42   C44   A    
C35   H9    S    
O13   C45   A    
C42   C47   S    
C5    C7    D    
C36   C38   A    
C33   C35   A    
O1    C3    A    
C6    Br2   S    
C15   C17   A    
C8    C45   S    
C9    H3    S    
C21   C31   A    
C26   H6    S    
C22   C32   A    
C1    C16   S    
O5    V1    S    
C2    C15   S    
O6    V2    S    
C25   C27   A    
C7    C46   S    
C26   C28   A    
O16   V4    S    
C46   O17   A    
C19   C25   A    
O15   V3    S    
C28   C30   A    
C29   C31   A    
O12   C48   A    
C30   C32   A    
C10   H4    S    
O4    C2    A    
O18   V4    S    
C44   Br4   S    
O17   V3    S    
C3    C12   S    
C5    Br1   S    
C16   C18   A    
O4    V2    S    
C43   Br3   S    
C34   C36   A    
O6    C4    A    
C13   C23   A    
C14   C24   A    
C37   Cl1   S    
O1    V2    S    
O2    V1    S    
C27   C29   A    
C39   Cl7   S    
C8    H2    S    
C24   C38   A    
C39   C41   A    
C13   Cl5   S    
C36   H10   S    
C40   Cl8   S    
C19   C21   A    
C41   C48   S    
C18   Br6   S    
O20   V3    S    
O3    C1    A    
C17   Br5   S    
O19   V4    S    
C12   Cl4   S    
C11   Cl3   S    
C33   C43   A    
C4    C11   S    
C34   C44   A    
C38   Cl2   S    
C20   C22   A    
O7    V1    S    
C1    O8    A    
C21   C23   A    
O8    V2    S    
C22   C24   A    
C23   C37   A    
C32   C34   A    
C17   C19   A    
C18   C20   A    
C40   C42   A    
C6    C8    D    
C9    C11   D    
O14   V4    S    
O13   V3    S    
C29   C39   A    
O11   V4    S    
C13   C15   A    
O16   C48   A    
O9    V2    S    
C30   C40   A    
O15   C47   A    
O10   V1    S    
O3    V1    S    
O14   C46   A    
C35   C37   A    
C14   Cl6   S    
