data_mof_unit_56997.cif
_audit_creation_date              2012-12-10T18:56:29-0500
_audit_creation_method            fapswitch 2.2
_symmetry_space_group_name_H-M    P1
_symmetry_Int_Tables_number       1
_space_group_crystal_system       triclinic
_cell_length_a                    10.724891
_cell_length_b                    10.059307
_cell_length_c                    19.265705
_cell_angle_alpha                 89.889505
_cell_angle_beta                  100.051282
_cell_angle_gamma                 89.991631
_cell_volume                      2046.57533241

loop_
_atom_site_label
_atom_site_type_symbol
_atom_type_description
_atom_site_fract_x
_atom_site_fract_y
_atom_site_fract_z
_atom_type_partial_charge
C1    C     C_R   0.871841 0.501241 0.498237 -0.080624
C2    C     C_R   0.739239 0.500229 0.498883 0.907818
C3    C     C_R   0.503914 0.499543 0.366378 0.960218
C4    C     C_R   0.496423 0.499334 0.633713 0.957611
C5    C     C_R   0.064557 0.380672 0.502914 -0.130793
C6    C     C_R   0.935672 0.622615 0.498859 -0.122677
C7    C     C_R   0.935936 0.380614 0.498497 -0.131265
C8    C     C_R   0.063919 0.622626 0.499896 -0.122999
C9    C     C_R   0.462136 0.372414 0.738436 -0.198726
C10   C     C_R   0.491932 0.608608 0.249996 -0.224998
C11   C     C_R   0.547481 0.375646 0.262831 -0.200193
C12   C     C_R   0.128187 0.501287 0.501812 -0.081518
C13   C     C_R   0.499545 0.609418 0.749270 -0.244048
C14   C     C_R   0.455869 0.363108 0.809613 0.398252
C15   C     C_R   0.492213 0.601925 0.177950 0.394735
C16   C     C_R   0.552088 0.366573 0.191413 0.414233
C17   C     C_R   0.498829 0.602335 0.821364 0.361890
C18   C     C_R   0.478666 0.477866 0.851744 -0.202869
C19   C     C_R   0.520383 0.479378 0.148315 -0.217139
C20   C     C_R   0.588222 0.072556 0.548138 0.273680
C21   C     C_R   0.412913 0.927517 0.451281 0.266789
C22   C     C_R   0.411694 0.073038 0.451876 0.273996
C23   C     C_R   0.608579 0.460830 0.969668 -0.040252
C24   C     C_R   0.587085 0.927025 0.548727 0.276074
C25   C     C_R   0.486358 0.494470 0.708255 -0.205709
C26   C     C_R   0.514553 0.495317 0.291996 -0.218341
C27   C     C_R   0.389997 0.465398 0.030267 -0.034322
C28   C     C_R   0.619550 0.465361 0.042352 -0.012193
C29   C     C_R   0.379134 0.468869 0.957578 -0.014475
C30   C     C_R   0.510166 0.468076 0.072482 0.144212
C31   C     C_R   0.488519 0.466910 0.927506 0.144475
C32   C     C_R   0.260770 0.500244 0.501129 0.907848
H1    H     H_    0.113561 0.286542 0.507033 0.220968
H2    H     H_    0.305315 0.466121 0.053782 0.168304
H3    H     H_    0.712547 0.468873 0.075002 0.171976
H4    H     H_    0.286274 0.474045 0.924809 0.167887
H5    H     H_    0.801114 0.341559 0.650184 0.366718
H6    H     H_    0.228828 0.659482 0.332528 0.368053
H7    H     H_    0.197910 0.343384 0.350856 0.367487
H8    H     H_    0.769561 0.657482 0.667845 0.365424
H9    H     H_    0.330998 0.028733 0.796070 0.423437
H10   H     H_    0.388478 0.942724 0.150477 0.434328
H11   H     H_    0.667252 0.026246 0.205358 0.421245
H12   H     H_    0.887095 0.717157 0.498323 0.202831
H13   H     H_    0.642617 0.885472 0.826181 0.408780
H14   H     H_    0.887305 0.286392 0.495468 0.221898
H15   H     H_    0.112140 0.717163 0.499377 0.204383
H16   H     H_    0.448264 0.283636 0.706398 0.232416
H17   H     H_    0.472047 0.701473 0.273241 0.258500
H18   H     H_    0.569288 0.288702 0.295888 0.228530
H19   H     H_    0.511547 0.704101 0.725206 0.249859
H20   H     H_    0.693195 0.459293 0.946093 0.162479
N1    N     N_R   0.500000 0.857200 0.500000 -0.233218
N2    N     N_R   0.500000 0.142800 0.500000 -0.235583
O1    O     O_R   0.316770 0.614620 0.500000 -0.571210
O2    O     O_2   0.835978 0.128264 0.582080 -0.296607
O3    O     O_3   0.716961 0.321951 0.621698 -0.525780
O4    O     O_2   0.172565 0.895138 0.377305 -0.213715
O5    O     O_2   0.349472 0.874640 0.313647 -0.245887
O6    O     O_3   0.281571 0.678151 0.379047 -0.536608
O7    O     O_2   0.272308 0.105757 0.318927 -0.174684
O8    O     O_2   0.163892 0.130042 0.419404 -0.296838
O9    O     O_3   0.282750 0.323084 0.378406 -0.523735
O10   O     O_2   0.826549 0.894491 0.624620 -0.211167
O11   O     O_2   0.647282 0.871316 0.686222 -0.279861
O12   O     O_R   0.683230 0.385380 0.500000 -0.574731
O13   O     O_3   0.718720 0.676995 0.620860 -0.533466
O14   O     O_2   0.537195 0.157965 0.894362 -0.177350
O15   O     O_2   0.313146 0.217799 0.882740 -0.283981
O16   O     O_3   0.385696 0.095427 0.778263 -0.501421
O17   O     O_2   0.556828 0.772898 0.082992 -0.193027
O18   O     O_2   0.330583 0.731198 0.078692 -0.273890
O19   O     O_3   0.447054 0.879687 0.179249 -0.478311
O20   O     O_2   0.493592 0.168192 0.098406 -0.217360
O21   O     O_2   0.717499 0.228170 0.131042 -0.282295
O22   O     O_3   0.614165 0.096036 0.221819 -0.512310
O23   O     O_R   0.683230 0.614620 0.500000 -0.570974
O24   O     O_2   0.404641 0.779080 0.902249 -0.190816
O25   O     O_2   0.631947 0.736174 0.931048 -0.262386
O26   O     O_3   0.549248 0.879777 0.820948 -0.453916
O27   O     O_R   0.316770 0.385380 0.500000 -0.573999
O28   O     O_R   0.500030 0.614710 0.398180 -0.563656
O29   O     O_R   0.499970 0.385290 0.601820 -0.566492
O30   O     O_R   0.499970 0.614710 0.601820 -0.561642
O31   O     O_R   0.500030 0.385290 0.398180 -0.564085
O32   O     O_2   0.724524 0.104218 0.681530 -0.180396
S1    S     S_3+6 0.714972 0.158081 0.608183 0.119742
S2    S     S_3+6 0.304350 0.842323 0.381191 0.113693
S3    S     S_3+6 0.284130 0.159232 0.392333 0.123259
S4    S     S_3+6 0.694752 0.841005 0.619200 0.109028
S5    S     S_3+6 0.422845 0.205925 0.844099 0.098066
S6    S     S_3+6 0.455968 0.748140 0.126684 0.087650
S7    S     S_3+6 0.594937 0.212218 0.157905 0.073092
S8    S     S_3+6 0.521528 0.750785 0.871681 0.093986
Zn1   Zn    Zn3+2 0.500000 0.653120 0.500000 1.100086
Zn2   Zn    Zn3+2 0.500000 0.346880 0.500000 1.098605

loop_
_geom_bond_atom_site_label_1
_geom_bond_atom_site_label_2
_ccdc_geom_bond_type
O8    S3    D    
N1    Zn1   S    
C14   C18   A    
O16   S5    S    
O10   S4    D    
C4    C25   S    
O6    S2    S    
C9    C25   A    
C22   N2    A    
C15   C19   A    
C32   O27   A    
C29   H4    S    
C16   S7    S    
C10   C15   A    
O18   S6    D    
O31   Zn2   S    
C3    O31   A    
C20   S1    S    
O14   S5    D    
C27   C29   A    
C1    C2    S    
O5    S2    D    
C15   S6    S    
C13   H19   S    
O17   S6    D    
C20   C24   A    
C28   H3    S    
H8    O13   S    
C5    H1    S    
C32   O1    A    
N2    Zn2   S    
C10   C26   A    
C21   S2    S    
C6    H12   S    
C21   C22   A    
C12   C32   S    
C27   C30   A    
O20   S7    D    
C13   C25   A    
O7    S3    D    
C27   H2    S    
O11   S4    D    
C1    C6    A    
C7    H14   S    
O25   S8    D    
O1    Zn1   S    
C5    C7    A    
O27   Zn2   S    
O32   S1    D    
O2    S1    D    
C6    C8    A    
C11   C26   A    
C24   N1    A    
O23   Zn1   S    
O13   S4    S    
O3    S1    S    
C24   S4    S    
O30   Zn1   S    
C23   C31   A    
C9    C14   A    
O22   S7    S    
C11   C16   A    
C4    O30   A    
C8    C12   A    
O9    S3    S    
C3    O28   A    
C17   C18   A    
C23   C28   A    
C5    C12   A    
H6    O6    S    
C20   N2    A    
O26   S8    S    
O21   S7    D    
O12   Zn2   S    
H11   O22   S    
H10   O19   S    
O28   Zn1   S    
C1    C7    A    
C3    C26   S    
O19   S6    S    
C2    O12   A    
O4    S2    D    
C17   S8    S    
H7    O9    S    
C13   C17   A    
C28   C30   A    
C8    H15   S    
C29   C31   A    
C11   H18   S    
C21   N1    A    
C19   C30   S    
C23   H20   S    
C4    O29   A    
O24   S8    D    
C16   C19   A    
O29   Zn2   S    
C22   S3    S    
H13   O26   S    
C14   S5    S    
C9    H16   S    
C2    O23   A    
C18   C31   S    
O15   S5    D    
C10   H17   S    
H5    O3    S    
H9    O16   S    
