data_mof_unit_57885.cif
_audit_creation_date              2012-10-26T19:07:31-0400
_audit_creation_method            fapswitch 2.2
_symmetry_space_group_name_H-M    P1
_symmetry_Int_Tables_number       1
_space_group_crystal_system       triclinic
_cell_length_a                    15.082379
_cell_length_b                    13.698463
_cell_length_c                    10.635829
_cell_angle_alpha                 90.242148
_cell_angle_beta                  89.96748
_cell_angle_gamma                 89.944593
_cell_volume                      2197.39880747

loop_
_atom_site_label
_atom_site_type_symbol
_atom_type_description
_atom_site_fract_x
_atom_site_fract_y
_atom_site_fract_z
_atom_type_partial_charge
C1    C     C_R   0.328476 0.500031 0.500380 0.545767
C2    C     C_R   0.953602 0.677754 0.492056 -0.136979
C3    C     C_R   0.443979 0.793638 0.578541 0.031156
C4    C     C_R   0.556021 0.206362 0.421459 0.031156
C5    C     C_R   0.556077 0.793009 0.421546 0.034771
C6    C     C_R   0.443923 0.206991 0.578454 0.034770
C7    C     C_R   0.557389 0.896059 0.419630 -0.016402
C8    C     C_R   0.442611 0.103941 0.580370 -0.016403
C9    C     C_R   0.442640 0.896714 0.580418 -0.017357
C10   C     C_R   0.557360 0.103286 0.419582 -0.017357
C11   C     C_R   0.500005 0.948180 0.500009 0.053712
C12   C     C_R   0.671523 0.499969 0.499620 0.545767
C13   C     C_R   0.499995 0.051820 0.499991 0.053712
C14   C     C_R   0.614459 0.948014 0.339609 -0.147574
C15   C     C_R   0.385541 0.051986 0.660391 -0.147574
C16   C     C_R   0.385558 0.949334 0.660417 -0.147687
C17   C     C_R   0.614442 0.050666 0.339583 -0.147687
C18   C     C_R   0.499954 0.499763 0.259224 0.550552
C19   C     C_R   0.500046 0.500237 0.740776 0.550551
C20   C     C_3   0.428259 0.548999 0.042724 -0.122877
C21   C     C_3   0.571741 0.451001 0.957276 -0.122881
C22   C     C_3   0.502434 0.593326 0.959697 -0.114123
C23   C     C_R   0.953524 0.499985 0.499735 0.061114
C24   C     C_3   0.497566 0.406674 0.040303 -0.114127
C25   C     C_3   0.426633 0.456964 0.958754 0.016803
C26   C     C_3   0.573367 0.543036 0.041245 0.016804
C27   C     C_3   0.499962 0.500713 0.877351 0.032179
C28   C     C_3   0.500038 0.499287 0.122649 0.032178
C29   C     C_R   0.814643 0.588685 0.495338 -0.143970
C30   C     C_R   0.185357 0.411313 0.504644 -0.143969
C31   C     C_R   0.768365 0.499940 0.499212 -0.018573
C32   C     C_R   0.231635 0.500060 0.500788 -0.018572
C33   C     C_R   0.814812 0.411207 0.502939 -0.143050
C34   C     C_R   0.046476 0.500015 0.500268 0.061113
C35   C     C_R   0.185188 0.588795 0.497078 -0.143050
C36   C     C_R   0.907186 0.410612 0.503320 0.010345
C37   C     C_R   0.092813 0.589388 0.496689 0.010345
C38   C     C_3   0.343132 0.408135 0.907136 -0.271063
C39   C     C_3   0.282578 0.374032 0.013053 -0.439268
C40   C     C_3   0.656869 0.591863 0.092863 -0.271062
C41   C     C_3   0.717411 0.625987 0.986943 -0.439261
C42   C     C_R   0.907010 0.589327 0.495636 0.010455
C43   C     C_R   0.092989 0.410672 0.504355 0.010455
C44   C     C_R   0.953958 0.322214 0.507393 -0.136726
C45   C     C_R   0.046042 0.677786 0.492609 -0.136727
C46   C     C_R   0.046398 0.322244 0.507932 -0.136978
Cu1   Cu    Cu3+1 0.500000 0.597420 0.500000 0.921844
Cu2   Cu    Cu3+1 0.500000 0.402580 0.500000 0.921843
H1    H     H_    0.369555 0.588370 0.080436 0.110296
H2    H     H_    0.080946 0.746855 0.489816 0.106107
H3    H     H_    0.400295 0.752976 0.639803 0.118077
H4    H     H_    0.599705 0.247024 0.360197 0.118078
H5    H     H_    0.599858 0.751873 0.360430 0.112276
H6    H     H_    0.400142 0.248127 0.639570 0.112278
H7    H     H_    0.659103 0.909278 0.277031 0.100234
H8    H     H_    0.340897 0.090722 0.722969 0.100235
H9    H     H_    0.340917 0.911122 0.723007 0.101511
H10   H     H_    0.659083 0.088878 0.276993 0.101511
H11   H     H_    0.317525 0.320289 0.073283 0.155212
H12   H     H_    0.630445 0.411631 0.919564 0.110295
H13   H     H_    0.261124 0.437070 0.071665 0.155148
H14   H     H_    0.222837 0.338644 0.972475 0.137790
H15   H     H_    0.306829 0.460898 0.847033 0.142873
H16   H     H_    0.362521 0.344370 0.848402 0.145776
H17   H     H_    0.738855 0.562961 0.928299 0.155153
H18   H     H_    0.682460 0.679747 0.926744 0.155203
H19   H     H_    0.777160 0.661361 0.027520 0.137790
H20   H     H_    0.637481 0.655618 0.151618 0.145777
H21   H     H_    0.693180 0.539092 0.152947 0.142869
H22   H     H_    0.081443 0.253197 0.511092 0.105581
H23   H     H_    0.504984 0.669471 0.924525 0.117518
H24   H     H_    0.918557 0.746799 0.488883 0.105583
H25   H     H_    0.495016 0.330529 0.075474 0.117519
H26   H     H_    0.778925 0.657371 0.492140 0.124021
H27   H     H_    0.221074 0.342625 0.507824 0.124022
H28   H     H_    0.779219 0.342509 0.505850 0.125476
H29   H     H_    0.220781 0.657493 0.494181 0.125473
H30   H     H_    0.919054 0.253144 0.510187 0.106106
N1    N     N_R   0.500000 0.743810 0.500000 -0.237907
N2    N     N_R   0.500000 0.256190 0.500000 -0.237908
O1    O     O_R   0.370260 0.582280 0.500030 -0.508286
O2    O     O_R   0.629740 0.417720 0.499970 -0.508286
O3    O     O_R   0.629740 0.582280 0.499970 -0.509807
O4    O     O_R   0.370260 0.417720 0.500030 -0.509807
O5    O     O_R   0.499980 0.582260 0.316850 -0.506928
O6    O     O_R   0.500020 0.417740 0.683150 -0.506927
O7    O     O_R   0.500020 0.582260 0.683150 -0.508013
O8    O     O_R   0.499980 0.417740 0.316850 -0.508013

loop_
_geom_bond_atom_site_label_1
_geom_bond_atom_site_label_2
_ccdc_geom_bond_type
C21   C26   S    
C8    C13   A    
C29   C42   A    
C34   C37   A    
Cu1   N1    S    
C19   O6    A    
C3    N1    A    
C41   H19   S    
C1    O4    A    
C7    C11   A    
C23   C42   A    
C4    H4    S    
Cu1   O5    S    
C5    H5    S    
C35   C37   A    
C9    C16   A    
C4    N2    A    
C19   O7    A    
C38   C39   S    
C24   H25   S    
C20   C25   S    
C10   C17   A    
C1    O1    A    
C15   C16   A    
C33   C36   A    
C7    C14   A    
Cu2   O8    S    
Cu1   O3    S    
C5    N1    A    
C19   C27   S    
C17   H10   S    
C14   H7    S    
C21   C27   S    
C14   C17   A    
C6    H6    S    
C2    H24   S    
C44   C46   A    
C38   H16   S    
C2    C45   A    
C39   H13   S    
C18   O5    A    
C40   H21   S    
C32   C35   A    
C18   C28   S    
C24   C25   S    
C21   H12   S    
C5    C7    A    
C3    H3    S    
C41   H17   S    
C29   H26   S    
C20   C28   S    
C35   H29   S    
C1    C32   S    
C18   O8    A    
Cu2   O4    S    
C12   O3    A    
Cu1   O7    S    
C20   H1    S    
C3    C9    A    
C25   C38   S    
C33   H28   S    
C6    N2    A    
Cu1   Cu2   S    
C23   C34   A    
C39   H11   S    
C31   C33   A    
C12   O2    A    
C9    C11   A    
C40   C41   S    
C20   C22   S    
C8    C15   A    
C22   C27   S    
C12   C31   S    
C40   H20   S    
Cu2   O6    S    
C30   C43   A    
C36   C44   A    
C37   C45   A    
C22   H23   S    
C38   H15   S    
C39   H14   S    
C34   C43   A    
C24   C28   S    
C10   C13   A    
C6    C8    A    
C41   H18   S    
C25   C27   S    
C26   C28   S    
C15   H8    S    
Cu2   N2    S    
C44   H30   S    
C29   C31   A    
C30   C32   A    
C30   H27   S    
C11   C13   A    
C26   C40   S    
C45   H2    S    
C2    C42   A    
Cu2   O2    S    
C16   H9    S    
Cu1   O1    S    
C43   C46   A    
C46   H22   S    
C23   C36   A    
C22   C26   S    
C21   C24   S    
C4    C10   A    
