data_mof_unit_26608.cif
_audit_creation_date              2012-12-10T20:27:15-0500
_audit_creation_method            fapswitch 2.2
_symmetry_space_group_name_H-M    P1
_symmetry_Int_Tables_number       1
_space_group_crystal_system       triclinic
_cell_length_a                    10.603998
_cell_length_b                    10.699295
_cell_length_c                    9.859478
_cell_angle_alpha                 90.145724
_cell_angle_beta                  102.048073
_cell_angle_gamma                 89.909535
_cell_volume                      1093.96606104

loop_
_atom_site_label
_atom_site_type_symbol
_atom_type_description
_atom_site_fract_x
_atom_site_fract_y
_atom_site_fract_z
_atom_type_partial_charge
C1    C     C_R   0.496751 0.260065 0.499241 0.937995
C2    C     C_R   0.578568 0.577619 0.089955 -0.139205
C3    C     C_R   0.579061 0.577261 0.946025 0.713704
C4    C     C_R   0.258311 0.507298 0.444165 0.983326
C5    C     C_R   0.431157 0.412638 0.913065 0.183279
C6    C     C_3   0.289262 0.394253 0.875043 -0.465598
C7    C     C_3   0.288613 0.394424 0.029120 -0.283312
C8    C     C_R   0.496238 0.740162 0.499030 0.945325
C9    C     C_R   0.741765 0.501458 0.555708 0.837882
C10   C     C_2   0.120212 0.528962 0.417206 -0.248484
C11   C     C_2   0.066379 0.598828 0.504051 0.019648
C12   C     C_R   0.477820 0.128890 0.495465 -0.259114
C13   C     C_2   0.880349 0.509986 0.580689 -0.148745
C14   C     C_2   0.929400 0.586115 0.496233 -0.282413
C15   C     C_R   0.478227 0.064050 0.617801 -0.060788
C16   C     C_2   0.697354 0.123307 0.759640 0.333013
C17   C     C_2   0.252593 0.270647 0.081529 0.519014
C18   C     C_2   0.136131 0.687045 0.610125 0.463454
C19   C     C_2   0.957131 0.423338 0.682153 0.384865
C20   C     C_R   0.452152 0.065396 0.368290 -0.218216
C21   C     C_R   0.450487 0.936228 0.367111 0.660906
C22   C     C_R   0.475494 0.871635 0.494321 -0.296627
C23   C     C_R   0.475782 0.936552 0.617016 -0.017057
C24   C     C_3   0.562707 0.927183 0.757268 0.483000
C25   C     C_3   0.565957 0.069430 0.758381 0.473341
C26   C     C_R   0.431070 0.412446 0.055752 0.116154
F1    F     F_    0.658095 0.656336 0.896345 -0.637665
F2    F     F_    0.434129 0.876372 0.243005 -0.607956
F3    F     F_    0.497920 0.878795 0.853579 -0.524151
F4    F     F_    0.505477 0.121933 0.856729 -0.579275
H1    H     H_    0.866577 0.643471 0.419438 0.175725
H2    H     H_    0.294845 0.184802 0.052216 0.119839
H3    H     H_    0.095639 0.710524 0.699391 0.073775
H4    H     H_    0.924656 0.399618 0.776186 0.128148
H5    H     H_    0.639986 0.641990 0.158494 0.184807
H6    H     H_    0.239561 0.476974 0.820281 0.223409
H7    H     H_    0.264581 0.303039 0.821836 0.261554
H8    H     H_    0.236760 0.475775 0.062293 0.208497
H9    H     H_    0.060009 0.476685 0.333333 0.175031
H10   H     H_    0.442007 0.114477 0.270762 0.198035
H11   H     H_    0.656037 0.879911 0.756173 0.036759
H12   H     H_    0.753088 0.090370 0.685923 0.003125
N1    N     N_R   0.499160 0.499140 0.142600 -0.145058
N2    N     N_R   0.499160 0.499180 0.856960 -0.162269
O1    O     O_R   0.500020 0.316790 0.614700 -0.581078
O2    O     O_2   0.175394 0.265784 0.157427 -0.551720
O3    O     O_2   0.234218 0.739656 0.595316 -0.543145
O4    O     O_2   0.051318 0.370403 0.656421 -0.570619
O5    O     O_R   0.500000 0.316760 0.385350 -0.619764
O6    O     O_R   0.317820 0.500020 0.571850 -0.589232
O7    O     O_R   0.317800 0.499980 0.342510 -0.610118
O8    O     O_R   0.500000 0.683240 0.614650 -0.538808
O9    O     O_R   0.499980 0.683210 0.385300 -0.571139
O10   O     O_R   0.682200 0.500020 0.657490 -0.578945
O11   O     O_R   0.682180 0.499980 0.428150 -0.613663
O12   O     O_2   0.741893 0.204604 0.842916 -0.493199
Zn1   Zn    Zn3+2 0.500010 0.500020 0.653140 1.083071
Zn2   Zn    Zn3+2 0.499990 0.499980 0.346860 1.010682

loop_
_geom_bond_atom_site_label_1
_geom_bond_atom_site_label_2
_ccdc_geom_bond_type
C2    H5    S    
C8    O9    A    
C8    C22   S    
O9    Zn2   S    
C16   O12   D    
C11   C18   S    
C7    H8    S    
C6    C7    S    
C9    O11   A    
N2    Zn1   S    
C12   C15   A    
C2    N1    A    
C23   C24   S    
O1    Zn1   S    
C18   O3    D    
C12   C20   A    
C3    F1    S    
C2    C3    A    
C6    H7    S    
O10   Zn1   S    
O7    Zn2   S    
C13   C14   D    
C20   C21   A    
C17   O2    D    
C24   H11   S    
C1    C12   S    
C1    O1    A    
C7    C26   S    
C15   C23   A    
C18   H3    S    
C5    N2    A    
C6    H6    S    
C26   N1    A    
C22   C23   A    
C5    C6    S    
C20   H10   S    
C11   C14   S    
C3    N2    A    
C15   C25   S    
C10   C11   D    
C13   C19   S    
C4    O7    A    
C4    C10   S    
C5    C26   A    
C16   H12   S    
C25   F4    S    
C24   C25   S    
O8    Zn1   S    
O11   Zn2   S    
C16   C25   S    
C17   H2    S    
C14   H1    S    
C8    O8    A    
C24   F3    S    
C9    C13   S    
C9    O10   A    
C19   O4    D    
N1    Zn2   S    
C21   C22   A    
O6    Zn1   S    
C1    O5    A    
C21   F2    S    
O5    Zn2   S    
C4    O6    A    
C10   H9    S    
C7    C17   S    
C19   H4    S    
