data_mof_unit_62116.cif
_audit_creation_date              2012-12-10T21:12:29-0500
_audit_creation_method            fapswitch 2.2
_symmetry_space_group_name_H-M    P1
_symmetry_Int_Tables_number       1
_space_group_crystal_system       triclinic
_cell_length_a                    13.219828
_cell_length_b                    16.786916
_cell_length_c                    17.521587
_cell_angle_alpha                 90.085569
_cell_angle_beta                  90.196868
_cell_angle_gamma                 70.259955
_cell_volume                      3659.86871044

loop_
_atom_site_label
_atom_site_type_symbol
_atom_type_description
_atom_site_fract_x
_atom_site_fract_y
_atom_site_fract_z
_atom_type_partial_charge
C1    C     C_R   0.501317 0.499623 0.646856 0.853751
C2    C     C_R   0.820702 0.423530 0.500872 -0.111961
C3    C     C_R   0.584799 0.420551 0.157673 -0.171234
C4    C     C_R   0.704071 0.453421 0.497036 0.951782
C5    C     C_R   0.570481 0.423500 0.236041 -0.274536
C6    C     C_R   0.504730 0.498311 0.270880 -0.082855
C7    C     C_R   0.450429 0.569997 0.226441 0.149249
C8    C     C_R   0.465462 0.566325 0.147977 -0.173800
C9    C     C_R   0.532893 0.492201 0.114297 0.119873
C10   C     C_1   0.542608 0.488799 0.034230 -0.045837
C11   C     C_1   0.544680 0.488327 0.966499 -0.065017
C12   C     C_R   0.974735 0.469896 0.516702 -0.083250
C13   C     C_R   0.557465 0.415438 0.845737 -0.158866
C14   C     C_R   0.543369 0.418512 0.767204 -0.193873
C15   C     C_R   0.511324 0.496832 0.729401 -0.031807
C16   C     C_R   0.498202 0.500453 0.353283 0.921365
C17   C     C_R   0.493359 0.571892 0.770759 -0.217321
C18   C     C_R   0.507603 0.568609 0.849245 -0.157448
C19   C     C_R   0.539628 0.490465 0.886189 0.161575
C20   C     C_R   0.566208 0.149450 0.548971 0.474866
C21   C     C_R   0.564834 0.234202 0.548827 -0.232840
C22   C     C_R   0.434626 0.270184 0.449846 0.659380
C23   C     C_R   0.876458 0.478120 0.479569 -0.096452
C24   C     C_R   0.430609 0.186773 0.450528 -0.461723
C25   C     C_R   0.496905 0.125397 0.499777 -0.036584
C26   C     C_1   0.493877 0.038465 0.498966 0.058389
C27   C     C_1   0.492406 0.965860 0.498731 0.096904
C28   C     C_R   0.295879 0.546570 0.500286 0.893356
C29   C     C_R   0.578002 0.813802 0.536846 0.336695
C30   C     C_R   0.580265 0.728540 0.535277 0.556886
C31   C     C_R   0.416048 0.768848 0.466827 -0.141078
C32   C     C_R   0.411160 0.854162 0.465877 0.073849
C33   C     C_R   0.493271 0.877733 0.500534 -0.117804
C34   C     C_R   0.023170 0.531510 0.499962 0.081018
C35   C     C_R   0.012616 0.668791 0.445962 -0.134276
C36   C     C_R   0.179631 0.575419 0.497012 -0.100577
C37   C     C_R   0.871034 0.351317 0.544339 -0.290430
C38   C     C_R   0.968927 0.340655 0.578657 -0.219492
C39   C     C_R   0.019198 0.401568 0.569610 0.565184
C40   C     C_3   0.734433 0.058642 0.570556 -0.299839
C41   C     C_3   0.387678 0.307911 0.325719 -0.288287
C42   C     C_3   0.634273 0.871468 0.639934 -0.287329
C43   C     C_3   0.661022 0.663355 0.645157 -0.214403
C44   C     C_3   0.183628 0.325023 0.622814 -0.349129
C45   C     C_R   0.966643 0.605701 0.458187 0.073025
C46   C     C_3   0.796009 0.488166 0.314971 -0.358404
C47   C     C_R   0.871438 0.611228 0.421444 -0.247138
C48   C     C_R   0.832926 0.544008 0.425059 0.572325
C49   C     C_R   0.130800 0.516685 0.515518 -0.144058
C50   C     C_R   0.119341 0.653975 0.466278 -0.176947
H1    H     H_    0.156841 0.700169 0.451702 0.170959
H2    H     H_    0.375327 0.170153 0.413256 0.195885
H3    H     H_    0.352168 0.751708 0.440603 0.202304
H4    H     H_    0.968800 0.726551 0.415818 0.150567
H5    H     H_    0.181558 0.455041 0.533424 0.208215
H6    H     H_    0.828905 0.308409 0.559781 0.175390
H7    H     H_    0.999596 0.289212 0.618858 0.153612
H8    H     H_    0.635907 0.362747 0.130994 0.145669
H9    H     H_    0.771669 0.108603 0.563827 0.153958
H10   H     H_    0.734521 0.025979 0.515163 0.178717
H11   H     H_    0.785010 0.010838 0.611057 0.201417
H12   H     H_    0.612731 0.368047 0.269697 0.160221
H13   H     H_    0.349722 0.260579 0.309329 0.157581
H14   H     H_    0.475345 0.283679 0.312820 0.150959
H15   H     H_    0.351041 0.364748 0.289690 0.198650
H16   H     H_    0.708394 0.863841 0.673322 0.193047
H17   H     H_    0.583859 0.843466 0.674258 0.118881
H18   H     H_    0.591799 0.940324 0.632893 0.211232
H19   H     H_    0.692077 0.596321 0.663935 0.181420
H20   H     H_    0.577764 0.691565 0.667819 0.101998
H21   H     H_    0.713435 0.695637 0.671025 0.181364
H22   H     H_    0.203334 0.296359 0.564925 0.163428
H23   H     H_    0.423287 0.620788 0.113098 0.159683
H24   H     H_    0.165900 0.280130 0.662658 0.179860
H25   H     H_    0.256608 0.336235 0.644545 0.205771
H26   H     H_    0.822579 0.421430 0.335056 0.159140
H27   H     H_    0.863867 0.502184 0.287257 0.168271
H28   H     H_    0.733345 0.495707 0.270755 0.214188
H29   H     H_    0.580933 0.355009 0.874928 0.137777
H30   H     H_    0.558256 0.359819 0.736155 0.157106
H31   H     H_    0.467325 0.632893 0.742685 0.146985
H32   H     H_    0.492054 0.626840 0.881213 0.136913
H33   H     H_    0.615953 0.253123 0.588051 0.165443
H34   H     H_    0.832115 0.664084 0.383993 0.167589
I1    I     I_    0.338379 0.682937 0.271448 -0.366380
I2    I     I_    0.278430 0.944153 0.410930 -0.371015
N1    N     N_R   0.499970 0.292770 0.499970 -0.148351
N2    N     N_R   0.499980 0.707230 0.499990 -0.161733
O1    O     O_R   0.500000 0.433430 0.610870 -0.625654
O2    O     O_3   0.367008 0.331714 0.402942 -0.581587
O3    O     O_3   0.664222 0.831588 0.568394 -0.576182
O4    O     O_3   0.668106 0.665414 0.564869 -0.566374
O5    O     O_3   0.098013 0.403283 0.621678 -0.620013
O6    O     O_3   0.751247 0.544700 0.375219 -0.590766
O7    O     O_R   0.500010 0.566520 0.610900 -0.622386
O8    O     O_R   0.653610 0.400420 0.499960 -0.648218
O9    O     O_R   0.653620 0.533500 0.499990 -0.515650
O10   O     O_R   0.499990 0.433480 0.389100 -0.597484
O11   O     O_R   0.500000 0.566570 0.389130 -0.561403
O12   O     O_R   0.346380 0.466500 0.500010 -0.576265
O13   O     O_R   0.346390 0.599580 0.500040 -0.627295
O14   O     O_3   0.629883 0.092168 0.600751 -0.618367
Zn1   Zn    Zn3+2 0.500000 0.411140 0.499980 0.970466
Zn2   Zn    Zn3+2 0.500000 0.588860 0.500020 1.015579

loop_
_geom_bond_atom_site_label_1
_geom_bond_atom_site_label_2
_ccdc_geom_bond_type
C24   H2    S    
C13   H29   S    
C40   H10   S    
C21   N1    A    
C7    C8    A    
C7    I1    S    
C27   C33   S    
C12   C23   A    
C11   C19   S    
C26   C27   T    
C29   C30   A    
C48   O6    S    
C18   C19   A    
C38   C39   A    
C20   O14   S    
C20   C25   A    
O10   Zn1   S    
C29   C33   A    
C42   O3    S    
C39   O5    S    
C44   O5    S    
C4    O8    A    
C37   H6    S    
C28   O13   A    
C31   C32   A    
C8    C9    A    
C43   H21   S    
C1    C15   S    
C14   H30   S    
C9    C10   S    
C28   O12   A    
O11   Zn2   S    
C43   H19   S    
C40   H9    S    
C13   C14   A    
O1    Zn1   S    
C35   H4    S    
C42   H18   S    
C46   H26   S    
N2    Zn2   S    
C50   H1    S    
C45   C47   A    
C13   C19   A    
C21   H33   S    
C24   C25   A    
C30   O4    S    
C46   H28   S    
C41   H15   S    
C25   C26   S    
C22   N1    A    
C40   O14   S    
O12   Zn1   S    
C40   H11   S    
C44   H25   S    
C2    C4    S    
C37   C38   A    
C3    C9    A    
C38   H7    S    
C47   C48   A    
C46   O6    S    
C1    O7    A    
C32   I2    S    
C35   C50   A    
C17   C18   A    
C22   O2    S    
C34   C45   A    
C47   H34   S    
C31   H3    S    
C44   H24   S    
N1    Zn1   S    
C43   H20   S    
C42   H17   S    
C22   C24   A    
C41   H13   S    
C30   N2    A    
C35   C45   A    
C29   O3    S    
C36   C50   A    
O7    Zn2   S    
C15   C17   A    
C34   C49   A    
C1    O1    A    
C23   C48   A    
C3    C5    A    
C46   H27   S    
C16   O11   A    
C6    C7    A    
O13   Zn2   S    
C43   O4    S    
C32   C33   A    
C12   C39   A    
C49   H5    S    
C2    C37   A    
C16   O10   A    
C5    C6    A    
C8    H23   S    
C18   H32   S    
C5    H12   S    
C44   H22   S    
C17   H31   S    
O9    Zn2   S    
C10   C11   T    
C6    C16   S    
C3    H8    S    
C31   N2    A    
C20   C21   A    
C28   C36   S    
O8    Zn1   S    
C2    C23   A    
C42   H16   S    
C14   C15   A    
C41   H14   S    
C4    O9    A    
C12   C34   A    
C36   C49   A    
C41   O2    S    
