data_mof_unit_36022.cif
_audit_creation_date              2012-12-10T19:24:57-0500
_audit_creation_method            fapswitch 2.2
_symmetry_space_group_name_H-M    P1
_symmetry_Int_Tables_number       1
_space_group_crystal_system       triclinic
_cell_length_a                    15.69091
_cell_length_b                    10.47133
_cell_length_c                    9.795356
_cell_angle_alpha                 91.084443
_cell_angle_beta                  89.741936
_cell_angle_gamma                 89.896016
_cell_volume                      1609.11550063

loop_
_atom_site_label
_atom_site_type_symbol
_atom_type_description
_atom_site_fract_x
_atom_site_fract_y
_atom_site_fract_z
_atom_type_partial_charge
C1    C     C_R   0.500498 0.257626 0.498863 0.841928
C2    C     C_R   0.499501 0.742374 0.501137 0.841928
C3    C     C_3   0.574310 0.955340 0.449671 -0.187784
C4    C     C_3   0.425689 0.044660 0.550329 -0.187784
C5    C     C_3   0.499352 0.877573 0.502782 0.048489
C6    C     C_3   0.500648 0.122426 0.497218 0.048489
C7    C     C_3   0.489848 0.963168 0.629977 -0.140407
C8    C     C_3   0.510152 0.036832 0.370022 -0.140407
C9    C     C_3   0.470642 0.394611 0.044953 0.461120
C10   C     C_3   0.529358 0.605389 0.955047 0.461120
C11   C     C_3   0.547164 0.406430 0.948055 -0.471500
C12   C     C_3   0.452836 0.593570 0.051945 -0.471500
C13   C     C_3   0.424282 0.486631 0.953129 0.460760
C14   C     C_3   0.575718 0.513369 0.046871 0.460759
C15   C     C_R   0.338116 0.499918 0.500248 0.887416
C16   C     C_R   0.661884 0.500082 0.499751 0.887417
C17   C     C_3   0.972096 0.380235 0.477185 -0.166180
C18   C     C_3   0.027904 0.619765 0.522815 -0.166180
C19   C     C_3   0.028852 0.456501 0.378329 -0.165735
C20   C     C_3   0.971148 0.543499 0.621671 -0.165736
C21   C     C_1   0.249067 0.499894 0.500836 -0.167373
C22   C     C_1   0.750933 0.500106 0.499164 -0.167373
C23   C     C_3   0.027732 0.423739 0.599412 -0.167032
C24   C     C_3   0.972268 0.576260 0.400588 -0.167032
C25   C     C_3   0.082669 0.499995 0.500556 0.212310
C26   C     C_3   0.917330 0.500005 0.499444 0.212310
C27   C     C_1   0.173644 0.499928 0.500942 -0.095218
C28   C     C_1   0.826356 0.500072 0.499058 -0.095218
C29   C     C_3   0.564885 0.043670 0.576790 -0.185825
C30   C     C_3   0.435115 0.956330 0.423210 -0.185825
H1    H     H_    0.054692 0.421047 0.278902 0.128361
H2    H     H_    0.945308 0.578953 0.721098 0.128361
H3    H     H_    0.947022 0.282417 0.458484 0.129249
H4    H     H_    0.052978 0.717582 0.541516 0.129249
H5    H     H_    0.947299 0.638420 0.319290 0.134066
H6    H     H_    0.052701 0.361579 0.680709 0.134066
H7    H     H_    0.634669 0.913874 0.408965 0.135452
H8    H     H_    0.365331 0.086126 0.591035 0.135452
H9    H     H_    0.617754 0.084480 0.638547 0.128596
H10   H     H_    0.382246 0.915520 0.361453 0.128596
H11   H     H_    0.480434 0.928903 0.735502 0.165233
H12   H     H_    0.519566 0.071097 0.264498 0.165233
H13   H     H_    0.585587 0.328837 0.899297 0.153438
H14   H     H_    0.414413 0.671163 0.100703 0.153438
N1    N     N_3   0.499940 0.500030 0.863290 -0.132821
N2    N     N_3   0.500060 0.499970 0.136710 -0.132821
O1    O     O_R   0.500000 0.313960 0.616610 -0.634959
O2    O     O_R   0.500000 0.686040 0.383390 -0.634958
O3    O     O_R   0.500040 0.313950 0.383350 -0.575675
O4    O     O_R   0.499960 0.686050 0.616650 -0.575675
O5    O     O_R   0.376760 0.499990 0.616610 -0.554595
O6    O     O_R   0.623240 0.500010 0.383390 -0.554595
O7    O     O_R   0.376790 0.499980 0.383350 -0.619252
O8    O     O_R   0.623210 0.500020 0.616650 -0.619252
Zn1   Zn    Zn3+2 0.499980 0.500010 0.655740 1.007462
Zn2   Zn    Zn3+2 0.500020 0.499990 0.344260 1.007462
O9    O     O_3   0.435206 0.283211 0.100703 -0.594750
C31   C     C_3   0.430496 0.186596 0.998328 0.093089
H15   H     H_    0.494022 0.140703 0.984686 0.140399
H16   H     H_    0.408948 0.223798 0.898225 0.175554
C32   C     C_3   0.366729 0.085700 0.041303 -0.869382
H17   H     H_    0.302517 0.129324 0.053715 0.260281
H18   H     H_    0.363671 0.008641 0.961992 0.205811
H19   H     H_    0.386149 0.043436 0.139300 0.251871
O10   O     O_3   0.564794 0.716789 0.899297 -0.594750
C33   C     C_3   0.569504 0.813403 0.001671 0.093088
H20   H     H_    0.591052 0.776202 0.101775 0.175554
H21   H     H_    0.505978 0.859297 0.015314 0.140399
C34   C     C_3   0.633271 0.914300 0.958697 -0.869382
H22   H     H_    0.613851 0.956564 0.860699 0.251871
H23   H     H_    0.636329 0.991359 0.038007 0.205811
H24   H     H_    0.697483 0.870676 0.946285 0.260282
O11   O     O_3   0.343777 0.466812 0.892932 -0.586440
C35   C     C_3   0.279258 0.480528 0.992732 0.114589
H25   H     H_    0.275171 0.581458 0.029811 0.136513
H26   H     H_    0.290616 0.416942 0.080708 0.176848
C36   C     C_3   0.194111 0.444432 0.929320 -0.851671
H27   H     H_    0.195921 0.343568 0.892180 0.252828
H28   H     H_    0.142514 0.455365 0.006670 0.200269
H29   H     H_    0.180152 0.507370 0.842113 0.264669
O12   O     O_3   0.656223 0.533188 0.107068 -0.586440
C37   C     C_3   0.720742 0.519472 0.007268 0.114589
H30   H     H_    0.709384 0.583058 0.919292 0.176848
H31   H     H_    0.724829 0.418542 0.970189 0.136513
C38   C     C_3   0.805889 0.555568 0.070680 -0.851671
H32   H     H_    0.819848 0.492630 0.157887 0.264669
H33   H     H_    0.857485 0.544635 0.993330 0.200269
H34   H     H_    0.804079 0.656432 0.107820 0.252828

loop_
_geom_bond_atom_site_label_1
_geom_bond_atom_site_label_2
_ccdc_geom_bond_type
C33   H21   S    
C7    C29   S    
C32   H19   S    
O11   C35   S    
C19   H1    S    
O12   C37   S    
C14   N2    S    
C36   H27   S    
C17   C23   S    
C35   H26   S    
C18   C24   S    
C17   C26   S    
C15   O7    A    
C24   C26   S    
C11   C14   S    
C38   H34   S    
C33   C34   S    
C31   H16   S    
C32   H18   S    
C34   H23   S    
C9    C13   S    
C2    O4    A    
C35   C36   S    
C11   H13   S    
C15   O5    A    
C18   C20   S    
O7    Zn2   S    
C31   C32   S    
C36   H28   S    
C33   H20   S    
C21   C27   T    
C9    N2    S    
C22   C28   T    
C32   H17   S    
C18   C25   S    
C17   H3    S    
C4    C7    S    
C38   H33   S    
C24   H5    S    
C35   H25   S    
C1    C6    S    
C9    O9    S    
C12   N2    S    
C3    C8    S    
C10   C14   S    
C5    C7    S    
C1    O1    A    
C6    C8    S    
C2    O2    A    
C31   H15   S    
C38   H32   S    
C34   H24   S    
C9    C11   S    
C20   C23   S    
C29   H9    S    
C10   N1    S    
C30   H10   S    
C18   H4    S    
N1    Zn1   S    
C10   C12   S    
C4    C6    S    
C13   O11   S    
C37   H30   S    
C37   H31   S    
C11   N1    S    
C2    C5    S    
O10   C33   S    
O3    Zn2   S    
O1    Zn1   S    
C5    C30   S    
C20   H2    S    
C10   O10   S    
O2    Zn2   S    
O8    Zn1   S    
C16   C22   S    
C16   O6    A    
C8    H12   S    
C3    C5    S    
C6    C29   S    
C25   C27   S    
C37   C38   S    
C26   C28   S    
O4    Zn1   S    
C8    C30   S    
C19   C24   S    
C12   H14   S    
C13   N1    S    
C36   H29   S    
C3    C29   S    
O9    C31   S    
C20   C26   S    
C17   C19   S    
O5    Zn1   S    
C7    H11   S    
C34   H22   S    
C19   C25   S    
C16   O8    A    
C15   C21   S    
C23   C25   S    
C12   C13   S    
C3    H7    S    
C23   H6    S    
N2    Zn2   S    
C14   O12   S    
C4    H8    S    
C1    O3    A    
C4    C30   S    
O6    Zn2   S    
