data_mof_unit_60049.cif
_audit_creation_date              2012-12-10T16:44:42-0500
_audit_creation_method            fapswitch 2.2
_symmetry_space_group_name_H-M    P1
_symmetry_Int_Tables_number       1
_space_group_crystal_system       triclinic
_cell_length_a                    18.454886
_cell_length_b                    18.461686
_cell_length_c                    18.448745
_cell_angle_alpha                 119.821472
_cell_angle_beta                  119.690765
_cell_angle_gamma                 90.386728
_cell_volume                      4462.28386917

loop_
_atom_site_label
_atom_site_type_symbol
_atom_type_description
_atom_site_fract_x
_atom_site_fract_y
_atom_site_fract_z
_atom_type_partial_charge
C1    C     C_R   0.138451 0.361396 0.999641 0.511553
C2    C     C_R   0.908514 0.294580 0.256545 -0.119875
C3    C     C_R   0.961994 0.347627 0.256294 -0.129899
C4    C     C_R   0.861118 0.638190 0.999766 0.512910
C5    C     C_R   0.928144 0.351117 0.172217 -0.104315
C6    C     C_2   0.721070 0.777041 0.939900 -0.157329
C7    C     C_2   0.696810 0.809006 0.004415 -0.093080
C8    C     C_2   0.779689 0.723347 0.942434 -0.157645
C9    C     C_2   0.803259 0.690999 0.998787 -0.091739
C10   C     C_2   0.721391 0.280984 0.443858 -0.160392
C11   C     C_2   0.696750 0.192247 0.387715 -0.094964
C12   C     C_R   0.572183 0.148821 0.827918 -0.090470
C13   C     C_2   0.779943 0.337132 0.556190 -0.159472
C14   C     C_2   0.803357 0.304529 0.612273 -0.094592
C15   C     C_2   0.337113 0.280967 0.057477 -0.157314
C16   C     C_R   0.138341 0.638608 0.277228 0.521135
C17   C     C_2   0.304588 0.192245 0.001120 -0.093096
C18   C     C_2   0.280902 0.337111 0.059827 -0.157680
C19   C     C_2   0.192249 0.304482 0.995704 -0.092984
C20   C     C_2   0.218210 0.779696 0.941932 -0.160004
C21   C     C_2   0.306204 0.799628 0.995118 -0.090870
C22   C     C_2   0.162271 0.719680 0.937825 -0.159576
C23   C     C_R   0.661227 0.198441 0.913933 0.010939
C24   C     C_2   0.195371 0.700212 0.006317 -0.089630
C25   C     C_2   0.219485 0.777358 0.557328 -0.156429
C26   C     C_2   0.307885 0.800369 0.612449 -0.145049
C27   C     C_2   0.161828 0.714168 0.445071 0.231453
C28   C     C_R   0.861166 0.361406 0.722957 0.509814
C29   C     C_2   0.193849 0.696720 0.388374 -0.063305
C30   C     C_R   0.638905 0.138409 0.277038 0.509874
C31   C     C_R   0.361710 0.860867 0.722958 0.513868
C32   C     C_R   0.638932 0.861775 0.000383 0.511491
C33   C     C_R   0.361452 0.138412 0.000219 0.512973
C34   C     C_R   0.715540 0.252898 0.913976 0.011535
C35   C     C_R   0.360465 0.859616 0.999295 0.514543
C36   C     C_R   0.640031 0.139855 0.000088 0.482594
C37   C     C_R   0.139589 0.640300 0.000690 0.515797
C38   C     C_R   0.860159 0.360135 0.000072 0.480344
C39   C     C_R   0.679163 0.256101 0.828015 -0.090520
C40   C     C_R   0.591622 0.206034 0.744027 -0.118085
C41   C     C_R   0.538282 0.152540 0.743977 -0.117645
C42   C     C_3   0.056402 0.617494 0.415328 -0.003448
C43   C     C_3   0.957079 0.574555 0.355686 -0.351248
C44   C     C_R   0.696158 0.196003 0.000118 0.007816
C45   C     C_R   0.784656 0.247378 0.086407 0.011485
C46   C     C_R   0.839033 0.301660 0.086333 0.010163
C47   C     C_R   0.804074 0.304096 0.000150 0.007960
C48   C     C_R   0.820951 0.244507 0.172579 -0.091116
H1    H     H_    0.030126 0.386130 0.321441 0.103953
H2    H     H_    0.234673 0.156167 0.954675 0.107908
H3    H     H_    0.314565 0.408166 0.116115 0.157422
H4    H     H_    0.717485 0.297648 0.824856 0.121767
H5    H     H_    0.156241 0.234501 0.936836 0.108898
H6    H     H_    0.185437 0.806777 0.898486 0.157723
H7    H     H_    0.340622 0.770428 0.034992 0.107302
H8    H     H_    0.091855 0.692245 0.877625 0.156432
H9    H     H_    0.264318 0.729712 0.070204 0.107192
H10   H     H_    0.186827 0.803990 0.595496 0.168108
H11   H     H_    0.342799 0.772750 0.577811 0.102726
H12   H     H_    0.720035 0.798435 0.063736 0.109306
H13   H     H_    0.262982 0.726336 0.422993 0.058842
H14   H     H_    0.564922 0.209201 0.678947 0.114060
H15   H     H_    0.470125 0.114135 0.678859 0.114861
H16   H     H_    0.527548 0.107195 0.824683 0.123018
H17   H     H_    0.782544 0.203231 0.175927 0.122290
H18   H     H_    0.935129 0.291737 0.321830 0.113460
H19   H     H_    0.972796 0.392678 0.175401 0.117925
H20   H     H_    0.698208 0.791343 0.883221 0.157981
H21   H     H_    0.085878 0.649435 0.497729 0.124013
H22   H     H_    0.084153 0.564349 0.388602 0.117411
H23   H     H_    0.803147 0.709357 0.894768 0.156529
H24   H     H_    0.925739 0.540866 0.272769 0.186937
H25   H     H_    0.943947 0.524910 0.368798 0.101602
H26   H     H_    0.927368 0.625697 0.381104 0.160398
H27   H     H_    0.779455 0.701222 0.045021 0.109766
H28   H     H_    0.698873 0.314740 0.406596 0.156064
H29   H     H_    0.719619 0.156185 0.421593 0.108737
H30   H     H_    0.803507 0.408154 0.593512 0.155066
H31   H     H_    0.779514 0.234590 0.578355 0.107979
H32   H     H_    0.408097 0.314718 0.105233 0.157328
O1    O     O_3   0.000000 0.500000 0.000000 -0.446799
O2    O     O_R   0.325040 0.054120 0.939900 -0.541063
O3    O     O_R   0.444330 0.884140 0.060080 -0.539619
O4    O     O_R   0.054210 0.325030 0.939940 -0.537992
O5    O     O_R   0.615830 0.175840 0.060080 -0.545924
O6    O     O_R   0.324160 0.884140 0.939910 -0.543440
O7    O     O_R   0.615850 0.055700 0.939930 -0.542689
O8    O     O_R   0.614980 0.885710 0.939940 -0.539610
O9    O     O_R   0.445830 0.174930 0.060060 -0.539698
O10   O     O_R   0.614300 0.054120 0.229160 -0.539126
O11   O     O_R   0.325070 0.885060 0.770830 -0.542361
O12   O     O_R   0.054160 0.614240 0.229150 -0.483481
O13   O     O_R   0.885070 0.614240 0.060060 -0.534376
O14   O     O_R   0.174980 0.614900 0.229170 -0.555737
O15   O     O_R   0.885740 0.445830 0.770840 -0.542545
O16   O     O_R   0.175880 0.615810 0.060090 -0.539963
O17   O     O_R   0.884210 0.324110 0.939920 -0.541342
O18   O     O_R   0.055710 0.615810 0.939920 -0.543114
O19   O     O_R   0.884190 0.444260 0.060070 -0.554092
O20   O     O_3   0.071749 0.680649 0.398139 -0.517321
O21   O     O_R   0.885120 0.325030 0.770840 -0.541197
O22   O     O_R   0.175010 0.445830 0.060100 -0.540798
O23   O     O_R   0.885710 0.614900 0.939900 -0.543076
O24   O     O_3   0.500040 0.999960 0.000000 -0.442617
O25   O     O_R   0.614930 0.174930 0.229160 -0.543679
O26   O     O_R   0.445880 0.885710 0.770850 -0.539297
O27   O     O_R   0.614330 0.885060 0.060100 -0.540225
Zn1   Zn    Zn3+2 0.956610 0.542450 0.085830 0.949383
Zn2   Zn    Zn3+2 0.129220 0.543380 0.085850 0.934900
Zn3   Zn    Zn3+2 0.957530 0.543380 0.914160 0.931138
Zn4   Zn    Zn3+2 0.956640 0.370790 0.914170 0.935790
Zn5   Zn    Zn3+2 0.543440 0.957510 0.914170 0.934006
Zn6   Zn    Zn3+2 0.542510 0.956570 0.085840 0.942375
Zn7   Zn    Zn3+2 0.370820 0.956570 0.914150 0.934325
Zn8   Zn    Zn3+2 0.543410 0.129170 0.085830 0.929787

loop_
_geom_bond_atom_site_label_1
_geom_bond_atom_site_label_2
_ccdc_geom_bond_type
C43   H25   S    
C15   C18   S    
O9    Zn8   S    
C43   H24   S    
O18   Zn3   S    
C27   C29   D    
O3    Zn6   S    
C5    H19   S    
C3    H1    S    
O26   Zn5   S    
C45   C46   A    
C1    O4    A    
O19   Zn1   S    
C12   C23   A    
C28   O15   A    
C33   O9    A    
O13   Zn1   S    
C12   H16   S    
C35   O6    A    
C32   O8    A    
C4    O23   A    
C42   H22   S    
C40   H14   S    
C18   C19   D    
O10   Zn6   S    
O27   Zn6   S    
C11   H29   S    
C46   C47   A    
C10   H28   S    
C28   O21   A    
O12   Zn1   S    
O1    Zn4   S    
C11   C30   S    
C8    C9    D    
C32   O27   A    
C48   H17   S    
C33   O2    A    
C30   O10   A    
C19   H5    S    
C43   H26   S    
C6    H20   S    
C39   H4    S    
O1    Zn1   S    
C26   C31   S    
C13   C14   D    
C17   C33   S    
C38   O17   A    
C37   O18   A    
C18   H3    S    
C36   O7    A    
C29   H13   S    
C27   O20   S    
C1    C19   S    
O4    Zn4   S    
C34   C39   A    
O5    Zn8   S    
O2    Zn7   S    
C20   H6    S    
C39   C40   A    
C21   H7    S    
C35   O3    A    
C24   H9    S    
C6    C8    S    
O7    Zn5   S    
C3    C5    A    
C16   C29   S    
C10   C13   S    
C42   H21   S    
C23   C44   A    
O24   Zn6   S    
C37   O16   A    
C12   C41   A    
C42   O20   S    
O24   Zn8   S    
C15   H32   S    
C23   C34   A    
C24   C37   S    
C14   H31   S    
O1    Zn3   S    
C38   C47   S    
C5    C46   A    
O24   Zn7   S    
C40   C41   A    
C20   C22   S    
C16   O12   A    
C31   O11   A    
O23   Zn3   S    
C30   O25   A    
C31   O26   A    
C22   C24   D    
C36   C44   S    
C25   C27   S    
C42   C43   S    
C41   H15   S    
C7    H12   S    
C44   C45   A    
O24   Zn5   S    
C26   H11   S    
C45   C48   A    
C15   C17   D    
C13   H30   S    
C8    H23   S    
C7    C32   S    
O25   Zn8   S    
O1    Zn2   S    
C38   O19   A    
C2    H18   S    
O15   Zn3   S    
C17   H2    S    
C22   H8    S    
C6    C7    D    
C21   C35   S    
C36   O5    A    
O21   Zn4   S    
O16   Zn2   S    
O14   Zn2   S    
C16   O14   A    
O11   Zn7   S    
O6    Zn7   S    
C2    C48   A    
C2    C3    A    
C25   C26   D    
O17   Zn4   S    
C10   C11   D    
C4    O13   A    
O8    Zn5   S    
C20   C21   D    
C25   H10   S    
O22   Zn2   S    
C34   C47   A    
C9    H27   S    
C14   C28   S    
C4    C9    S    
C1    O22   A    
