data_mof_unit_30706.cif
_audit_creation_date              2012-10-26T19:15:59-0400
_audit_creation_method            fapswitch 2.2
_symmetry_space_group_name_H-M    P1
_symmetry_Int_Tables_number       1
_space_group_crystal_system       triclinic
_cell_length_a                    7.909198
_cell_length_b                    9.068147
_cell_length_c                    17.07912
_cell_angle_alpha                 89.601038
_cell_angle_beta                  94.01831
_cell_angle_gamma                 90.006722
_cell_volume                      1221.90373807

loop_
_atom_site_label
_atom_site_type_symbol
_atom_type_description
_atom_site_fract_x
_atom_site_fract_y
_atom_site_fract_z
_atom_type_partial_charge
C1    C     C_R   0.499974 0.220554 0.499990 0.543000
C2    C     C_R   0.610446 0.470097 0.144176 0.186548
C3    C     C_R   0.558582 0.451725 0.901003 0.139600
C4    C     C_R   0.455919 0.453129 0.099931 0.146621
C5    C     C_R   0.702632 0.446640 0.857970 0.227970
C6    C     C_R   0.306820 0.477667 0.137671 0.184373
C7    C     C_R   0.690835 0.502404 0.780856 0.169151
C8    C     C_R   0.317740 0.527672 0.216077 0.173358
C9    C     C_1   0.499988 0.065537 0.499972 0.011075
C10   C     C_1   0.500016 0.934464 0.499973 0.023296
C11   C     C_R   0.500026 0.779445 0.499992 0.574578
C12   C     C_R   0.521177 0.496832 0.651147 0.580884
C13   C     C_R   0.478794 0.501864 0.348881 0.584594
C14   C     C_R   0.533637 0.489609 0.737502 -0.067456
C15   C     C_R   0.468340 0.495973 0.262588 -0.071435
C16   C     C_R   0.390092 0.459317 0.778790 0.072707
C17   C     C_R   0.607967 0.443178 0.224751 0.070912
C18   C     C_R   0.402189 0.483819 0.859658 0.141782
Cu1   Cu    Cu3+1 0.669080 0.500010 0.500000 1.171469
Cu2   Cu    Cu3+1 0.330920 0.499990 0.500000 1.164746
H1    H     H_    0.940134 0.111064 0.839386 0.395078
H2    H     H_    0.034242 0.298570 0.185231 0.351336
H3    H     H_    0.786211 0.777722 0.857787 0.349918
H4    H     H_    0.053873 0.851828 0.192882 0.380260
I1    I     I_    0.728465 0.249143 0.272327 -0.205310
I2    I     I_    0.219584 0.293154 0.735426 -0.077438
I3    I     I_    0.717299 0.677431 0.118592 -0.024008
I4    I     I_    0.281628 0.679019 0.894562 0.003718
N1    N     N_1   0.076820 0.499970 0.500010 -0.038727
N2    N     N_1   0.923180 0.500030 0.499990 -0.038030
N3    N     N_2   0.579579 0.447409 0.984523 -0.127654
N4    N     N_2   0.442875 0.444221 0.016558 -0.130078
O1    O     O_R   0.642760 0.288400 0.500000 -0.498940
O2    O     O_2   0.834078 0.248246 0.962706 -0.186657
O3    O     O_3   0.865640 0.190082 0.816135 -0.496907
O4    O     O_2   0.044642 0.551147 0.038305 -0.131305
O5    O     O_2   0.143028 0.294428 0.038876 -0.194824
O6    O     O_3   0.976069 0.379001 0.154417 -0.445978
O7    O     O_2   0.986061 0.579627 0.723549 -0.189190
O8    O     O_2   0.749736 0.751064 0.699017 -0.273879
O9    O     O_3   0.892520 0.736401 0.839650 -0.444336
O10   O     O_2   0.019852 0.577079 0.278826 -0.216269
O11   O     O_2   0.248059 0.754791 0.309647 -0.289552
O12   O     O_R   0.357240 0.711600 0.500000 -0.481454
O13   O     O_3   0.100970 0.761994 0.169907 -0.441218
O14   O     O_R   0.357190 0.288380 0.500000 -0.506438
O15   O     O_R   0.642810 0.711620 0.500000 -0.484165
O16   O     O_R   0.658410 0.498660 0.613920 -0.453339
O17   O     O_R   0.341590 0.501340 0.386080 -0.455546
O18   O     O_R   0.372840 0.498650 0.613930 -0.486962
O19   O     O_R   0.627160 0.501350 0.386070 -0.481445
O20   O     O_2   0.031842 0.398591 0.891013 -0.164251
S1    S     S_3+6 0.864698 0.320621 0.885535 0.133189
S2    S     S_3+6 0.113602 0.426212 0.089004 0.148226
S3    S     S_3+6 0.832861 0.644076 0.757369 0.089705
S4    S     S_3+6 0.167614 0.656188 0.247132 0.084695

loop_
_geom_bond_atom_site_label_1
_geom_bond_atom_site_label_2
_ccdc_geom_bond_type
C2    C4    A    
C18   I4    S    
C15   C17   A    
C2    I3    S    
H1    O3    S    
O3    S1    S    
N1    N2    T    
Cu2   O17   S    
C9    C10   T    
C12   O18   A    
N3    N4    D    
H3    O9    S    
C7    S3    S    
C12   O16   A    
O8    S3    D    
C17   I1    S    
C8    S4    S    
C1    O1    A    
C11   O12   A    
C2    C17   A    
C3    N3    S    
C4    N4    S    
C6    S2    S    
Cu2   O18   S    
C13   O17   A    
O5    S2    D    
O2    S1    D    
C5    S1    S    
Cu2   O12   S    
C12   C14   S    
C8    C15   A    
C14   C16   A    
Cu2   N1    S    
C13   C15   S    
C16   I2    S    
Cu1   O15   S    
C1    O14   A    
C4    C6    A    
O4    S2    D    
C10   C11   S    
H4    O13   S    
H2    O6    S    
Cu1   O19   S    
O11   S4    D    
C1    C9    S    
O20   S1    D    
C3    C18   A    
C16   C18   A    
Cu1   O1    S    
C5    C7    A    
Cu1   O16   S    
O9    S3    S    
C6    C8    A    
O10   S4    D    
C13   O19   A    
Cu1   N2    S    
C11   O15   A    
C7    C14   A    
O7    S3    D    
Cu1   Cu2   S    
O13   S4    S    
C3    C5    A    
Cu2   O14   S    
O6    S2    S    
