data_mof_unit_50382.cif
_audit_creation_date              2013-03-05T15:46:56-0500
_audit_creation_method            fapswitch 2.2
_symmetry_space_group_name_H-M    P1
_symmetry_Int_Tables_number       1
_space_group_crystal_system       triclinic
_cell_length_a                    10.176036
_cell_length_b                    10.6814
_cell_length_c                    15.024648
_cell_angle_alpha                 89.394778
_cell_angle_beta                  80.022729
_cell_angle_gamma                 94.524951
_cell_volume                      1602.89409628

loop_
_atom_site_label
_atom_site_type_symbol
_atom_site_description
_atom_site_fract_x
_atom_site_fract_y
_atom_site_fract_z
_atom_type_partial_charge
O1    O     O_R   0.431060 0.692470 0.507460 -0.550552
O2    O     O_R   0.568940 0.307530 0.492540 -0.594083
O3    O     O_R   0.651120 0.659650 0.483670 -0.645665
O4    O     O_R   0.348880 0.340350 0.516330 -0.646315
C1    C     C_R   0.555096 0.734011 0.489987 0.969395
C2    C     C_R   0.443941 0.265896 0.504255 0.987033
O5    O     O_R   0.389960 0.516440 0.644050 -0.635389
O6    O     O_R   0.610040 0.483560 0.355950 -0.615894
O7    O     O_R   0.610030 0.483620 0.620260 -0.630370
O8    O     O_R   0.389970 0.516380 0.379740 -0.617124
C3    C     C_R   0.498446 0.494063 0.673061 0.953014
C4    C     C_R   0.501199 0.500265 0.327042 0.976640
Zn1   Zn    Zn3+2 0.353060 0.521920 0.515880 0.958380
Zn2   Zn    Zn3+2 0.646940 0.478080 0.484120 0.937735
C5    C     C_R   0.522733 0.391186 0.186424 0.342089
C6    C     C_R   0.478913 0.601991 0.814359 0.367900
C7    C     C_R   0.506813 0.504018 0.231005 -0.204179
C8    C     C_R   0.500248 0.490498 0.768557 -0.180877
C9    C     C_R   0.511650 0.619119 0.183887 0.035131
C10   C     C_R   0.532744 0.381404 0.811234 -0.002375
C11   C     C_R   0.507758 0.616200 0.090753 0.082035
C12   C     C_R   0.536858 0.385185 0.904566 0.086153
C13   C     C_R   0.518422 0.500984 0.044975 -0.079891
C14   C     C_R   0.515497 0.498343 0.951630 -0.073098
C15   C     C_R   0.532879 0.388633 0.092404 -0.009449
C16   C     C_R   0.493855 0.609356 0.905329 -0.022847
C17   C     C_R   0.495622 0.726271 0.042298 -0.323762
C18   C     C_R   0.563876 0.278541 0.951733 -0.342170
C19   C     C_R   0.491554 0.725004 0.950224 0.454082
C20   C     C_R   0.556340 0.277018 0.045048 0.470111
H1    H     H_    0.488377 0.815411 0.075117 0.144690
H2    H     H_    0.588929 0.193193 0.917537 0.154334
C21   C     C_2   0.583337 0.869304 0.473204 -0.151136
C22   C     C_2   0.411808 0.130839 0.496404 -0.144456
C23   C     C_2   0.491358 0.932156 0.438669 0.286299
C24   C     C_2   0.499365 0.069657 0.437213 0.335450
H3    H     H_    0.127726 0.444987 0.428860 0.163167
H4    H     H_    0.899938 0.615770 0.513775 0.151603
N1    N     N_2   0.842700 0.448880 0.462930 -0.094834
N2    N     N_2   0.157300 0.551120 0.537070 -0.077339
C25   C     C_2   0.934125 0.528572 0.485766 -0.114359
C26   C     C_2   0.081923 0.504980 0.480992 -0.085063
O9    O     O_3   0.530185 0.284381 0.236510 -0.680969
H5    H     H_    0.626796 0.270106 0.226772 0.373479
O10   O     O_3   0.447650 0.703521 0.766990 -0.755743
H6    H     H_    0.367654 0.735879 0.803759 0.356623
C27   C     C_3   0.531912 0.743017 0.231734 -0.357450
C28   C     C_3   0.672808 0.809127 0.201121 -0.356945
C29   C     C_3   0.782991 0.730081 0.222203 -0.844985
H7    H     H_    0.763645 0.700617 0.294587 0.264060
H8    H     H_    0.788366 0.645153 0.180139 0.265416
H9    H     H_    0.881104 0.786290 0.207129 0.240916
H10   H     H_    0.691530 0.832496 0.127676 0.232811
H11   H     H_    0.679317 0.899031 0.237082 0.207937
H12   H     H_    0.454004 0.806339 0.221915 0.191914
H13   H     H_    0.518962 0.729064 0.305596 0.224376
C30   C     C_3   0.563047 0.262203 0.757975 -0.415596
C31   C     C_3   0.447563 0.158754 0.778055 -0.392294
C32   C     C_3   0.488380 0.036661 0.733538 -0.789507
H14   H     H_    0.521553 0.052112 0.659637 0.233226
H15   H     H_    0.572011 0.001243 0.762514 0.296561
H16   H     H_    0.401937 0.964759 0.745551 0.273985
H17   H     H_    0.414533 0.139912 0.851516 0.239007
H18   H     H_    0.360153 0.189877 0.751989 0.218558
H19   H     H_    0.583031 0.278929 0.684044 0.210422
H20   H     H_    0.657875 0.228315 0.772340 0.203686
O11   O     O_3   0.491381 0.836827 0.902938 -0.777303
H21   H     H_    0.491583 0.908515 0.944343 0.320329
O12   O     O_3   0.572787 0.167267 0.090255 -0.755291
H22   H     H_    0.586366 0.097941 0.047077 0.314594
O13   O     O_3   0.598794 0.135700 0.376275 -0.753409
H23   H     H_    0.644250 0.075437 0.334315 0.322524
O14   O     O_3   0.385655 0.867663 0.407241 -0.787360
H24   H     H_    0.339803 0.928203 0.375324 0.329582
C33   C     C_3   0.288287 0.060845 0.554845 -0.497651
C34   C     C_3   0.187861 0.144119 0.609561 -0.300688
C35   C     C_3   0.085466 0.068031 0.679485 -0.922235
H25   H     H_    0.031380 0.992520 0.646798 0.265249
H26   H     H_    0.136413 0.026595 0.731060 0.268295
H27   H     H_    0.011418 0.130527 0.713971 0.254194
H28   H     H_    0.239557 0.216027 0.646579 0.225916
H29   H     H_    0.133860 0.192619 0.562715 0.232940
H30   H     H_    0.231633 0.004373 0.510421 0.239740
H31   H     H_    0.322553 0.993951 0.601188 0.231558
C36   C     C_3   0.709995 0.932290 0.499445 -0.486483
C37   C     C_3   0.832486 0.915070 0.426361 -0.308453
C38   C     C_3   0.961655 0.968495 0.454905 -0.890905
H32   H     H_    0.954591 0.067990 0.474382 0.263060
H33   H     H_    0.981637 0.912138 0.512824 0.254175
H34   H     H_    0.046580 0.963486 0.397934 0.252163
H35   H     H_    0.841781 0.813957 0.413076 0.236570
H36   H     H_    0.821331 0.962416 0.362382 0.216641
H37   H     H_    0.701984 0.033996 0.511424 0.221821
H38   H     H_    0.724600 0.889716 0.564553 0.221336
C39   C     C_3   0.094404 0.635174 0.605711 -0.261648
C40   C     C_3   0.163875 0.650184 0.687359 -0.277831
C41   C     C_3   0.080155 0.720522 0.762074 -0.978615
H39   H     H_    0.057441 0.812009 0.735904 0.276052
H40   H     H_    0.984361 0.664463 0.788424 0.274857
H41   H     H_    0.135198 0.737131 0.818973 0.259793
H42   H     H_    0.174202 0.556009 0.715981 0.243166
H43   H     H_    0.262271 0.704174 0.666520 0.277288
H44   H     H_    0.090683 0.729174 0.574065 0.176335
H45   H     H_    0.990922 0.596255 0.634636 0.176518
C42   C     C_3   0.881758 0.333122 0.419394 -0.199789
C43   C     C_3   0.925109 0.355445 0.317154 -0.351085
C44   C     C_3   0.969337 0.235774 0.270608 -0.886074
H46   H     H_    0.053661 0.200756 0.299127 0.270348
H47   H     H_    0.884632 0.162126 0.279367 0.265051
H48   H     H_    0.003069 0.255723 0.197176 0.258948
H49   H     H_    0.840319 0.387936 0.287867 0.244747
H50   H     H_    0.009361 0.429628 0.303324 0.213254
H51   H     H_    0.960816 0.291585 0.449881 0.130380
H52   H     H_    0.795484 0.261902 0.431512 0.243894

loop_
_geom_bond_atom_site_label_1
_geom_bond_atom_site_label_2
_geom_bond_distance
_ccdc_geom_bond_type
C38   H32   1.109750 S    
C3    C8    1.438226 S    
C40   H43   1.108880 S    
C17   C19   1.391328 A    
C25   C26   1.534094 S    
C39   C40   1.522210 S    
C30   H20   1.111042 S    
O9    H5    0.992700 S    
C20   O12   1.384609 S    
C41   H39   1.105434 S    
N1    C25   1.303715 D    
C43   H50   1.110717 S    
C35   H25   1.107543 S    
O5    C3    1.293063 A    
O1    C1    1.285801 A    
C42   H51   1.110674 S    
C9    C11   1.407311 A    
C14   C16   1.419639 A    
C37   H35   1.108780 S    
C36   C37   1.536042 S    
C9    C27   1.529414 S    
C33   H31   1.108999 S    
C5    C15   1.399145 A    
C43   C44   1.525177 S    
O4    Zn1   1.936446 S    
C5    C7    1.392002 A    
O14   H24   0.992175 S    
H3    C26   1.082874 S    
C21   C36   1.521226 S    
Zn1   N2    2.011794 S    
C33   C34   1.542444 S    
C21   C23   1.362376 D    
Zn2   N1    2.011794 S    
C19   O11   1.383553 S    
C36   H37   1.110068 S    
C23   C24   1.464250 S    
C29   H8    1.110545 S    
C1    C21   1.461581 S    
C4    C7    1.434135 S    
C44   H46   1.111068 S    
C8    C10   1.413099 A    
C24   O13   1.382876 S    
C22   C33   1.537953 S    
N2    C26   1.309279 D    
C11   C17   1.401268 A    
C32   H14   1.109715 S    
C12   C18   1.405432 A    
C40   H42   1.109521 S    
C6    C16   1.403499 A    
C44   H47   1.109347 S    
O2    C2    1.295464 A    
C41   H40   1.111167 S    
C39   H44   1.112549 S    
C43   H49   1.110896 S    
C35   H26   1.110540 S    
C31   H18   1.104399 S    
C28   H10   1.109098 S    
C32   H15   1.110233 S    
C17   H1    1.078681 S    
O11   H21   0.991768 S    
C42   H52   1.104055 S    
C18   H2    1.077604 S    
C34   C35   1.522814 S    
H4    C25   1.083651 S    
O4    C2    1.290256 A    
C34   H29   1.112198 S    
C37   C38   1.522975 S    
C31   C32   1.525855 S    
O10   H6    0.989907 S    
C2    C22   1.464388 S    
C6    O10   1.378561 S    
C28   H11   1.109872 S    
O7    Zn2   2.017007 S    
C36   H38   1.112412 S    
C27   C28   1.539718 S    
O6    C4    1.281967 A    
C29   H9    1.110290 S    
C40   C41   1.529006 S    
O7    C3    1.280949 A    
O3    Zn2   1.936444 S    
O8    C4    1.288700 A    
C28   C29   1.528776 S    
C10   C12   1.411039 A    
C11   C13   1.418617 A    
C44   H48   1.110287 S    
C12   C14   1.419311 A    
O1    Zn1   1.922715 S    
N2    C39   1.469967 S    
C41   H41   1.108817 S    
C39   H45   1.113151 S    
C27   H12   1.109407 S    
C35   H27   1.110519 S    
C15   C20   1.410164 A    
N1    C42   1.455743 S    
C23   O14   1.385803 S    
C32   H16   1.109814 S    
O6    Zn2   2.025937 S    
C31   H17   1.108058 S    
C30   H19   1.104055 S    
O3    C1    1.298697 A    
O8    Zn1   2.017004 S    
C34   H28   1.105750 S    
C42   C43   1.533627 S    
C18   C20   1.390650 A    
C5    O9    1.374338 S    
O13   H23   0.990078 S    
C37   H36   1.108727 S    
C33   H30   1.108455 S    
C30   C31   1.535648 S    
C7    C9    1.405389 A    
C22   C24   1.356986 D    
C13   C15   1.419750 A    
O12   H22   0.991718 S    
O2    Zn2   1.922716 S    
C13   C14   1.408470 A    
O5    Zn1   2.025940 S    
C16   C19   1.413563 A    
C6    C8    1.394731 A    
C29   H7    1.108767 S    
C38   H34   1.111003 S    
C38   H33   1.109304 S    
C10   C30   1.534443 S    
C27   H13   1.101760 S    
