data_mof_unit_5524.cif
_audit_creation_date              2012-12-10T17:13:36-0500
_audit_creation_method            fapswitch 2.2
_symmetry_space_group_name_H-M    P1
_symmetry_Int_Tables_number       1
_space_group_crystal_system       triclinic
_cell_length_a                    10.900476
_cell_length_b                    13.071267
_cell_length_c                    11.750754
_cell_angle_alpha                 99.340148
_cell_angle_beta                  93.685477
_cell_angle_gamma                 92.908639
_cell_volume                      1645.48447369

loop_
_atom_site_label
_atom_site_type_symbol
_atom_type_description
_atom_site_fract_x
_atom_site_fract_y
_atom_site_fract_z
_atom_type_partial_charge
C1    C     C_R   0.493614 0.299621 0.479084 0.863975
C2    C     C_3   0.878331 0.500162 0.498867 -0.366260
C3    C     C_3   0.940985 0.614519 0.508040 0.443042
C4    C     C_3   0.912359 0.432101 0.383699 0.191874
C5    C     C_R   0.475129 0.813587 0.532906 -0.258323
C6    C     C_R   0.485637 0.186749 0.467819 -0.133380
C7    C     C_R   0.507124 0.019898 0.352439 -0.024577
C8    C     C_R   0.516078 0.127069 0.365084 -0.174323
C9    C     C_R   0.447358 0.138003 0.558926 0.413554
C10   C     C_R   0.462708 0.031235 0.554866 -0.117234
C11   C     C_R   0.480248 0.970747 0.446630 -0.045295
C12   C     C_R   0.259979 0.492967 0.499211 0.898746
C13   C     C_R   0.470610 0.862501 0.433651 0.373146
C14   C     C_R   0.465314 0.875063 0.643221 0.297335
C15   C     C_R   0.459817 0.983113 0.653986 0.408967
C16   C     C_R   0.381946 0.396830 0.023273 0.331593
C17   C     C_R   0.395218 0.407628 0.145236 -0.068671
C18   C     C_R   0.548375 0.543591 0.155434 0.574230
C19   C     C_R   0.540123 0.534377 0.033452 -0.099967
C20   C     C_R   0.455594 0.461222 0.965404 -0.083110
C21   C     C_R   0.448959 0.455567 0.842486 0.198271
C22   C     C_R   0.607472 0.589285 0.858686 0.322111
C23   C     C_R   0.492091 0.700405 0.521047 0.967862
C24   C     C_R   0.615786 0.596972 0.978495 -0.159820
C25   C     C_R   0.740187 0.502391 0.499938 1.002070
C26   C     C_3   0.070085 0.436001 0.594981 0.121124
C27   C     C_3   0.932089 0.452983 0.604377 0.169298
C28   C     C_3   0.086582 0.611593 0.521658 0.543643
C29   C     C_3   0.056397 0.432791 0.374842 0.096201
C30   C     C_3   0.122066 0.494145 0.497220 -0.282066
Cu1   Cu    Cu3+1 0.509350 0.507730 0.615930 1.085724
Cu2   Cu    Cu3+1 0.490650 0.492270 0.384070 1.068823
H1    H     H_    0.870259 0.467206 0.311662 0.197780
H2    H     H_    0.527945 0.976370 0.270243 0.219123
H3    H     H_    0.543969 0.163133 0.293281 0.213062
H4    H     H_    0.384776 0.400252 0.788417 0.224700
H5    H     H_    0.082347 0.352255 0.571787 0.206667
H6    H     H_    0.683632 0.653036 0.027745 0.213488
H7    H     H_    0.339633 0.357165 0.188565 0.164903
H8    H     H_    0.920888 0.509854 0.683751 0.208307
N1    N     N_R   0.523430 0.519360 0.790130 -0.198873
N2    N     N_R   0.476570 0.480640 0.209880 -0.239409
O1    O     O_R   0.506640 0.354460 0.582000 -0.546355
O2    O     O_R   0.490840 0.341410 0.386200 -0.604720
O3    O     O_R   0.325590 0.506510 0.597900 -0.516677
O4    O     O_R   0.309790 0.493450 0.402100 -0.597466
O5    O     O_R   0.509160 0.658590 0.613800 -0.571633
O6    O     O_R   0.493360 0.645540 0.418000 -0.490587
O7    O     O_R   0.690210 0.506550 0.597900 -0.589631
O8    O     O_R   0.674410 0.493490 0.402100 -0.531318
Cl1   Cl    Cl    0.144137 0.461313 0.739151 -0.444612
Cl2   Cl    Cl    0.165695 0.691336 0.433506 -0.450404
Cl3   Cl    Cl    0.892901 0.672737 0.386351 -0.435027
Cl4   Cl    Cl    0.430513 0.793005 0.292040 -0.446861
Cl5   Cl    Cl    0.449561 0.820140 0.770559 -0.405686
Cl6   Cl    Cl    0.472615 0.057076 0.795490 -0.351829
Cl7   Cl    Cl    0.347737 0.202909 0.656068 -0.477285
C31   C     C_3   0.697250 0.660741 0.813947 -0.598685
H9    H     H_    0.684156 0.660601 0.722067 0.282076
H10   H     H_    0.688805 0.742010 0.856988 0.248441
H11   H     H_    0.792351 0.638547 0.833666 0.229305
Cl8   Cl    Cl    0.273088 0.301767 0.947836 -0.416247
Cl9   Cl    Cl    0.650886 0.638192 0.237715 -0.469857
Cl10  Cl    Cl    0.852241 0.335172 0.628561 -0.435019
Cl11  Cl    Cl    0.150186 0.674593 0.663242 -0.346587
Cl12  Cl    Cl    0.884646 0.703038 0.623333 -0.501436
C32   C     C_3   0.082897 0.481652 0.264747 -0.640587
H12   H     H_    0.051478 0.560509 0.267862 0.284168
H13   H     H_    0.179362 0.481866 0.242193 0.263926
H14   H     H_    0.030345 0.435321 0.187541 0.231471
C33   C     C_3   0.100763 0.319734 0.346306 -0.634451
H15   H     H_    0.064564 0.281727 0.258143 0.273148
H16   H     H_    0.202411 0.318995 0.347783 0.193256
H17   H     H_    0.069479 0.267210 0.404887 0.261400
Cl13  Cl    Cl    0.832062 0.304887 0.355451 -0.532546

loop_
_geom_bond_atom_site_label_1
_geom_bond_atom_site_label_2
_ccdc_geom_bond_type
C28   Cl2   S    
C19   C20   A    
C6    C9    A    
C7    C8    A    
C21   H4    S    
C7    C11   A    
C26   C27   S    
Cu1   O1    S    
C3    C28   S    
C2    C3    S    
C10   C15   A    
C18   N2    A    
C18   Cl9   S    
C22   N1    A    
C31   H10   S    
C11   C13   A    
C18   C19   A    
C17   H7    S    
C25   O8    A    
C4    Cl13  S    
C17   N2    A    
C1    O1    A    
C16   C17   A    
C24   H6    S    
C2    C27   S    
C9    C10   A    
C5    C13   A    
C4    C29   S    
C31   H11   S    
C14   Cl5   S    
Cu1   O5    S    
Cu2   O6    S    
C16   Cl8   S    
Cu1   O7    S    
C23   O5    A    
C32   H12   S    
C12   O4    A    
C27   Cl10  S    
C33   H16   S    
C6    C8    A    
C31   H9    S    
C1    C6    S    
C32   H13   S    
C8    H3    S    
C2    C4    S    
C29   C30   S    
C1    O2    A    
Cu1   Cu2   S    
C5    C23   S    
C27   H8    S    
C16   C20   A    
Cu2   O2    S    
Cu2   O8    S    
C5    C14   A    
C21   N1    A    
C26   C30   S    
C7    H2    S    
C22   C24   A    
C3    Cl12  S    
C13   Cl4   S    
C4    H1    S    
C23   O6    A    
Cu1   N1    S    
C12   C30   S    
Cu2   O4    S    
C12   O3    A    
C22   C31   S    
C33   H17   S    
C26   H5    S    
C32   H14   S    
C15   Cl6   S    
C28   C30   S    
C19   C24   A    
C33   H15   S    
C29   C32   S    
C26   Cl1   S    
C3    Cl3   S    
C28   Cl11  S    
C2    C25   S    
C9    Cl7   S    
C25   O7    A    
C10   C11   A    
C20   C21   A    
Cu1   O3    S    
Cu2   N2    S    
C14   C15   A    
C29   C33   S    
