data_mof_unit_54262.cif
_audit_creation_date              2012-12-11T15:08:38-0500
_audit_creation_method            fapswitch 2.2
_symmetry_space_group_name_H-M    P1
_symmetry_Int_Tables_number       1
_space_group_crystal_system       triclinic
_cell_length_a                    26.761341
_cell_length_b                    7.087469
_cell_length_c                    11.969135
_cell_angle_alpha                 89.999963
_cell_angle_beta                  103.351835
_cell_angle_gamma                 89.999929
_cell_volume                      2208.82554298

loop_
_atom_site_label
_atom_site_type_symbol
_atom_type_description
_atom_site_fract_x
_atom_site_fract_y
_atom_site_fract_z
_atom_type_partial_charge
O1    O     O_R   0.437360 0.505910 0.042120 -0.538408
O2    O     O_R   0.562640 0.005910 0.957880 -0.538408
O3    O     O_R   0.542480 0.176660 0.157100 -0.536852
O4    O     O_R   0.457520 0.676660 0.842900 -0.536852
C1    C     C_R   0.556416 0.344739 0.198027 0.687631
C2    C     C_R   0.443584 0.844739 0.801973 0.687631
O5    O     O_R   0.436520 0.176250 0.054800 -0.542427
O6    O     O_R   0.563480 0.676250 0.945200 -0.542427
O7    O     O_R   0.455920 0.005040 0.854840 -0.537189
O8    O     O_R   0.544080 0.505040 0.145160 -0.537189
C3    C     C_R   0.417498 0.344593 0.063605 0.703442
C4    C     C_R   0.582502 0.844593 0.936395 0.703442
O9    O     O_3   0.506490 0.338900 0.934520 -0.373937
O10   O     O_3   0.493510 0.838900 0.065480 -0.373937
V1    V     V_3+5 0.498800 0.064400 0.012150 1.442359
V2    V     V_3+5 0.501200 0.564400 0.987850 1.442359
C5    C     C_R   0.680310 0.877914 0.756561 0.151332
C6    C     C_R   0.319690 0.377921 0.243438 0.151333
H1    H     H_    0.597843 0.875414 0.722529 0.127825
H2    H     H_    0.402157 0.375421 0.277471 0.127825
H3    H     H_    0.776562 0.884849 0.722619 0.175311
H4    H     H_    0.223438 0.384858 0.277381 0.175311
C7    C     C_R   0.631802 0.853125 0.903141 -0.065682
C8    C     C_R   0.368198 0.353125 0.096859 -0.065682
C9    C     C_R   0.867908 0.862390 0.211340 -0.237308
C10   C     C_R   0.132092 0.362385 0.788660 -0.237308
C11   C     C_R   0.822729 0.888301 0.247380 -0.102903
C12   C     C_R   0.177271 0.388294 0.752620 -0.102902
C13   C     C_R   0.775607 0.911611 0.167727 -0.012453
C14   C     C_R   0.224393 0.411605 0.832273 -0.012455
C15   C     C_R   0.772841 0.884310 0.047548 -0.004433
C16   C     C_R   0.227159 0.384308 0.952452 -0.004433
C17   C     C_R   0.820187 0.871704 0.011923 0.071742
C18   C     C_R   0.179813 0.371705 0.988077 0.071742
C19   C     C_R   0.725627 0.872628 0.960931 0.037819
C20   C     C_R   0.274373 0.372628 0.039068 0.037819
C21   C     C_R   0.726764 0.879130 0.842267 0.102884
C22   C     C_R   0.273236 0.379134 0.157732 0.102883
C23   C     C_R   0.774088 0.881389 0.811441 -0.184456
C24   C     C_R   0.225912 0.381394 0.188559 -0.184456
C25   C     C_R   0.819732 0.872450 0.894235 -0.209226
C26   C     C_R   0.180268 0.372454 0.105764 -0.209226
C27   C     C_R   0.677446 0.842824 0.987579 -0.247535
C28   C     C_R   0.322554 0.342823 0.012421 -0.247535
C29   C     C_R   0.633314 0.871739 0.788135 -0.210043
C30   C     C_R   0.366686 0.371744 0.211865 -0.210043
C31   C     C_R   0.867472 0.862625 0.094771 -0.070985
C32   C     C_R   0.132527 0.362624 0.905228 -0.070985
H5    H     H_    0.674211 0.805197 0.072878 0.120300
H6    H     H_    0.325789 0.305192 0.927123 0.120300
H7    H     H_    0.903937 0.854203 0.275061 0.113246
H8    H     H_    0.096063 0.354197 0.724939 0.113246
H9    H     H_    0.825319 0.903798 0.338634 0.170859
H10   H     H_    0.174681 0.403788 0.661365 0.170859
H11   H     H_    0.855011 0.867641 0.864642 0.126454
H12   H     H_    0.144988 0.367646 0.135357 0.126454
C33   C     C_R   0.091655 0.863603 0.311083 -0.033434
C34   C     C_R   0.908345 0.363604 0.688916 -0.033435
C35   C     C_R   0.409149 0.854464 0.687819 -0.032497
C36   C     C_R   0.590851 0.354462 0.312181 -0.032498
C37   C     C_R   0.105734 0.897660 0.516553 -0.164001
C38   C     C_R   0.894266 0.397676 0.483447 -0.164002
C39   C     C_R   0.072250 0.882900 0.409079 -0.176223
C40   C     C_R   0.927750 0.382912 0.590921 -0.176222
C41   C     C_R   0.144745 0.859645 0.320350 -0.213920
C42   C     C_R   0.855255 0.359639 0.679649 -0.213921
C43   C     C_R   0.179767 0.878904 0.428356 0.087109
C44   C     C_R   0.820233 0.378903 0.571644 0.087109
C45   C     C_R   0.159075 0.896826 0.527000 0.133456
C46   C     C_R   0.840925 0.396835 0.473001 0.133456
C47   C     C_R   0.234338 0.881409 0.441746 0.066280
C48   C     C_R   0.765662 0.381404 0.558254 0.066280
C49   C     C_R   0.267146 0.892011 0.554429 0.111689
C50   C     C_R   0.732854 0.392011 0.445572 0.111689
C51   C     C_R   0.244447 0.915643 0.649037 -0.116418
C52   C     C_R   0.755553 0.415651 0.350964 -0.116417
C53   C     C_R   0.191580 0.916974 0.635332 -0.200432
C54   C     C_R   0.808419 0.416986 0.364668 -0.200432
C55   C     C_R   0.257204 0.876061 0.346430 -0.161247
C56   C     C_R   0.742796 0.376049 0.653571 -0.161247
C57   C     C_R   0.310158 0.873897 0.360613 -0.144002
C58   C     C_R   0.689842 0.373882 0.639387 -0.144002
C59   C     C_R   0.342538 0.872079 0.470028 0.166293
C60   C     C_R   0.657462 0.372068 0.529973 0.166293
C61   C     C_R   0.321620 0.879843 0.568684 0.128673
C62   C     C_R   0.678380 0.379841 0.431316 0.128674
C63   C     C_R   0.395857 0.859410 0.481419 -0.116024
C64   C     C_R   0.604143 0.359395 0.518581 -0.116024
C65   C     C_R   0.428942 0.850052 0.589757 -0.160895
C66   C     C_R   0.571058 0.350041 0.410243 -0.160895
C67   C     C_R   0.356189 0.869995 0.677731 -0.151994
C68   C     C_R   0.643811 0.369997 0.322269 -0.151993
H13   H     H_    0.175974 0.934162 0.710666 0.131929
H14   H     H_    0.824026 0.434182 0.289335 0.131930
H15   H     H_    0.343365 0.868855 0.756689 0.082160
H16   H     H_    0.656635 0.368864 0.243311 0.082160
H17   H     H_    0.469961 0.838954 0.597196 0.103983
H18   H     H_    0.530039 0.338939 0.402804 0.103982
H19   H     H_    0.325921 0.869572 0.284928 0.130095
H20   H     H_    0.674079 0.369550 0.715072 0.130095
H21   H     H_    0.089893 0.912763 0.591657 0.115938
H22   H     H_    0.910107 0.412787 0.408344 0.115938
H23   H     H_    0.031183 0.888903 0.402087 0.101586
H24   H     H_    0.968817 0.388922 0.597913 0.101586
H25   H     H_    0.157151 0.843987 0.241395 0.101628
H26   H     H_    0.842849 0.343972 0.758605 0.101629
H27   H     H_    0.266521 0.936071 0.735522 0.110604
H28   H     H_    0.733479 0.436082 0.264479 0.110605
H29   H     H_    0.235302 0.875698 0.258874 0.127993
H30   H     H_    0.764698 0.375681 0.741127 0.127993
H31   H     H_    0.411915 0.854248 0.406213 0.114833
H32   H     H_    0.588085 0.354226 0.593788 0.114833
O11   O     O_R   0.955980 0.206520 0.854760 -0.539045
O12   O     O_R   0.044020 0.706520 0.145240 -0.539045
O13   O     O_R   0.063490 0.536770 0.945200 -0.539899
O14   O     O_R   0.936510 0.036770 0.054800 -0.539899
C69   C     C_R   0.082837 0.368538 0.937821 0.686623
C70   C     C_R   0.917163 0.868538 0.062178 0.686623
O15   O     O_R   0.957530 0.536190 0.842880 -0.540575
O16   O     O_R   0.042470 0.036190 0.157120 -0.540574
O17   O     O_R   0.937350 0.707210 0.042130 -0.538575
O18   O     O_R   0.062650 0.207210 0.957870 -0.538575
C71   C     C_R   0.943174 0.368083 0.802620 0.692265
C72   C     C_R   0.056826 0.868083 0.197380 0.692265
O19   O     O_3   0.993540 0.373870 0.065440 -0.373800
O20   O     O_3   0.006460 0.873870 0.934560 -0.373800
V3    V     V_3+5 0.001200 0.648440 0.987860 1.419659
V4    V     V_3+5 0.998800 0.148440 0.012140 1.419660
I1    I     I_    0.676869 0.878047 0.576986 -0.441582
I2    I     I_    0.323131 0.378060 0.423013 -0.441580
C73   C     C_2   0.733278 0.994619 0.212746 0.342785
H33   H     H_    0.705468 0.087501 0.159245 0.041073
O21   O     O_2   0.729449 0.962591 0.310708 -0.509460
C74   C     C_2   0.266722 0.494612 0.787252 0.342787
H34   H     H_    0.294532 0.587494 0.840753 0.041072
O22   O     O_2   0.270551 0.462582 0.689290 -0.509460

loop_
_geom_bond_atom_site_label_1
_geom_bond_atom_site_label_2
_ccdc_geom_bond_type
C42   C44   A    
C51   H27   S    
O20   V3    S    
C7    C29   A    
C46   C54   A    
C59   C63   A    
O1    C3    A    
O2    C4    A    
C2    O7    A    
C47   C55   A    
C61   C67   A    
O13   V3    S    
C23   C25   A    
O11   V4    S    
O5    C3    A    
C4    C7    S    
C34   C71   S    
C50   C52   A    
C16   C20   A    
C19   C21   A    
C52   C54   A    
O17   V3    S    
C63   H31   S    
C37   C45   A    
C3    C8    S    
C68   H16   S    
C7    C27   A    
C11   C13   A    
C38   C46   A    
C35   C65   A    
C37   C39   A    
C25   H11   S    
C38   C40   A    
C26   H12   S    
C45   C53   A    
C34   C42   A    
C31   C70   S    
C41   C43   A    
O13   C69   A    
C18   C26   A    
O19   V4    S    
C15   C17   A    
C19   C27   A    
C9    C31   A    
C10   C32   A    
O12   C72   A    
O5    V1    S    
C52   H28   S    
C22   C24   A    
C13   C15   A    
C49   C51   A    
C42   H26   S    
C6    C30   A    
C41   H25   S    
C57   C59   A    
C33   C39   A    
C36   C68   A    
C34   C40   A    
C55   H29   S    
C5    I1    S    
C36   C66   A    
C48   C50   A    
C33   C41   A    
C47   C49   A    
C12   H10   S    
C27   H5    S    
C35   C67   A    
C57   H19   S    
C14   C74   S    
H1    C29   S    
C48   C56   A    
C65   H17   S    
C44   C48   A    
C43   C45   A    
C70   O17   A    
C16   C18   A    
O4    V2    S    
C37   H21   S    
C69   O18   A    
C9    H7    S    
C10   H8    S    
O11   C71   A    
O6    C4    A    
H4    C24   S    
C11   H9    S    
O1    V2    S    
C5    C21   A    
C50   C62   A    
O2    V1    S    
C51   C53   A    
C49   C61   A    
C32   C69   S    
C2    C35   S    
C39   H23   S    
C59   C61   A    
C64   C66   A    
C58   C60   A    
C63   C65   A    
C17   C31   A    
C15   C19   A    
C20   C28   A    
O4    C2    A    
C18   C32   A    
C73   H33   S    
O3    C1    A    
O3    V1    S    
C55   C57   A    
C28   H6    S    
C40   H24   S    
O20   V4    S    
C1    C36   S    
C58   H20   S    
H3    C23   S    
C60   C64   A    
C5    C29   A    
C24   C26   A    
C73   O21   D    
C74   O22   D    
O16   V4    S    
O18   V4    S    
C74   H34   S    
O15   C71   A    
C9    C11   A    
C10   C12   A    
C8    C30   A    
C12   C14   A    
O7    V1    S    
C17   C25   A    
C1    O8    A    
C21   C23   A    
O8    V2    S    
C33   C72   S    
C14   C16   A    
O12   V3    S    
C13   C73   S    
C54   H14   S    
C8    C28   A    
C53   H13   S    
C56   C58   A    
O14   C70   A    
C43   C47   A    
C6    C22   A    
C6    I2    S    
C20   C22   A    
C67   H15   S    
C64   H32   S    
O6    V2    S    
O14   V4    S    
O9    V2    S    
C56   H30   S    
O19   V3    S    
C44   C46   A    
O10   V1    S    
C60   C62   A    
C62   C68   A    
C66   H18   S    
H2    C30   S    
O16   C72   A    
C38   H22   S    
O15   V3    S    
