data_mof_unit_56722.cif
_audit_creation_date              2012-12-10T17:58:21-0500
_audit_creation_method            fapswitch 2.2
_symmetry_space_group_name_H-M    P1
_symmetry_Int_Tables_number       1
_space_group_crystal_system       triclinic
_cell_length_a                    9.529687
_cell_length_b                    10.796091
_cell_length_c                    15.434779
_cell_angle_alpha                 89.821217
_cell_angle_beta                  74.445382
_cell_angle_gamma                 89.870914
_cell_volume                      1529.81352899

loop_
_atom_site_label
_atom_site_type_symbol
_atom_type_description
_atom_site_fract_x
_atom_site_fract_y
_atom_site_fract_z
_atom_type_partial_charge
C1    C     C_R   0.998972 0.262351 0.502683 0.801970
C2    C     C_R   0.001028 0.737649 0.497316 0.801970
C3    C     C_R   0.588817 0.507309 0.094840 0.238337
C4    C     C_R   0.411183 0.492690 0.905160 0.238337
C5    C     C_R   0.728677 0.544918 0.049457 -0.240252
C6    C     C_R   0.271323 0.455081 0.950543 -0.240252
C7    C     C_R   0.878763 0.060882 0.557064 0.424969
C8    C     C_R   0.121238 0.939118 0.442935 0.424970
C9    C     C_R   0.880422 0.932922 0.550116 -0.189455
C10   C     C_R   0.119578 0.067078 0.449883 -0.189455
C11   C     C_R   0.001074 0.871546 0.495148 -0.224289
C12   C     C_R   0.998926 0.128454 0.504852 -0.224288
C13   C     C_R   0.549701 0.424574 0.557035 0.057394
C14   C     C_R   0.450299 0.575426 0.442965 0.057394
C15   C     C_R   0.400932 0.424731 0.557097 0.028188
C16   C     C_R   0.599068 0.575269 0.442903 0.028188
C17   C     C_R   0.918283 0.501576 0.672243 0.791846
C18   C     C_R   0.081717 0.498424 0.327757 0.791845
C19   C     C_R   0.872976 0.512792 0.770421 -0.072423
C20   C     C_R   0.127024 0.487208 0.229579 -0.072423
C21   C     C_R   0.917991 0.572849 0.911216 -0.186380
C22   C     C_R   0.082009 0.427150 0.088784 -0.186380
C23   C     C_R   0.967605 0.557896 0.818334 -0.170609
C24   C     C_R   0.032395 0.442103 0.181666 -0.170609
C25   C     C_R   0.728675 0.485915 0.815864 -0.161330
C26   C     C_R   0.271325 0.514085 0.184135 -0.161330
C27   C     C_R   0.671970 0.514696 0.907009 0.112382
C28   C     C_R   0.328030 0.485303 0.092991 0.112382
C29   C     C_R   0.771929 0.548128 0.956074 0.103535
C30   C     C_R   0.228071 0.451871 0.043926 0.103535
C31   C     C_R   0.521338 0.501751 0.951932 -0.026759
C32   C     C_R   0.478662 0.498249 0.048067 -0.026759
Cu1   Cu    Cu3+1 0.140660 0.500020 0.500000 0.983793
Cu2   Cu    Cu3+1 0.859340 0.499980 0.500000 0.983793
H1    H     H_    0.808416 0.558890 0.087043 0.170517
H2    H     H_    0.191584 0.441109 0.912957 0.170517
H3    H     H_    0.336569 0.562880 0.220130 0.182230
H4    H     H_    0.663431 0.437120 0.779870 0.182230
H5    H     H_    0.920291 0.420082 0.215632 0.195649
H6    H     H_    0.079709 0.579917 0.784368 0.195650
H7    H     H_    0.993927 0.602336 0.948172 0.154579
H8    H     H_    0.006073 0.397663 0.051828 0.154579
H9    H     H_    0.789218 0.880758 0.590971 0.197118
H10   H     H_    0.210782 0.119242 0.409028 0.197118
H11   H     H_    0.585836 0.364120 0.602799 0.145117
H12   H     H_    0.414164 0.635880 0.397200 0.145117
H13   H     H_    0.325136 0.364487 0.602913 0.134238
H14   H     H_    0.674864 0.635513 0.397087 0.134238
N1    N     N_R   0.352080 0.500030 0.499980 -0.174399
N2    N     N_R   0.647920 0.499970 0.500020 -0.174399
O1    O     O_R   0.118740 0.319660 0.500000 -0.577088
O2    O     O_R   0.881260 0.680340 0.500000 -0.577087
O3    O     O_R   0.881170 0.319630 0.500010 -0.568214
O4    O     O_R   0.118830 0.680370 0.499990 -0.568215
O5    O     O_R   0.055570 0.500030 0.629830 -0.579979
O6    O     O_R   0.944430 0.499970 0.370170 -0.579979
O7    O     O_R   0.818000 0.500000 0.629840 -0.571479
O8    O     O_R   0.182000 0.500000 0.370160 -0.571479
Br1   Br    Br    0.573799 0.440526 0.213181 -0.579210
Br2   Br    Br    0.426201 0.559474 0.786820 -0.579210
O9    O     O_3   0.760557 0.114858 0.617084 -0.715092
H15   H     H_    0.789641 0.196365 0.635706 0.315094
O10   O     O_3   0.239443 0.885142 0.382916 -0.715090
H16   H     H_    0.210359 0.803634 0.364294 0.315093

loop_
_geom_bond_atom_site_label_1
_geom_bond_atom_site_label_2
_ccdc_geom_bond_type
Cu1   O5    S    
Cu2   O7    S    
C19   C23   A    
C26   H3    S    
Cu2   O6    S    
Cu1   O8    S    
C18   O6    A    
C25   H4    S    
C27   C29   A    
C9    C11   A    
C17   O5    A    
C26   C28   A    
C31   C32   A    
C15   H13   S    
C3    C5    A    
C20   C24   A    
C16   H14   S    
C28   C30   A    
Cu1   Cu2   S    
C3    C32   A    
C14   H12   S    
C15   N1    A    
C13   H11   S    
C1    O1    A    
C4    Br2   S    
C22   H8    S    
C1    C12   S    
C2    O2    A    
Cu2   O3    S    
C8    C11   A    
C21   H7    S    
C2    C11   S    
C10   C12   A    
C22   C24   A    
C4    C6    A    
C17   C19   S    
C16   N2    A    
C5    C29   A    
C13   C15   A    
C21   C23   A    
O9    H15   S    
C19   C25   A    
C14   C16   A    
C7    C12   A    
C9    H9    S    
C4    C31   A    
Cu2   N2    S    
C8    O10   S    
C10   H10   S    
C13   N2    A    
C14   N1    A    
C5    H1    S    
C28   C32   A    
C24   H5    S    
C27   C31   A    
C18   C20   S    
C8    C10   A    
C2    O4    A    
Cu1   N1    S    
C17   O7    A    
Cu1   O4    S    
C7    C9    A    
C1    O3    A    
C7    O9    S    
Cu2   O2    S    
C22   C30   A    
C6    C30   A    
C21   C29   A    
C18   O8    A    
Cu1   O1    S    
C23   H6    S    
C6    H2    S    
O10   H16   S    
C20   C26   A    
C25   C27   A    
C3    Br1   S    
