data_mof_unit_47132.cif
_audit_creation_date              2012-12-10T20:39:54-0500
_audit_creation_method            fapswitch 2.2
_symmetry_space_group_name_H-M    P1
_symmetry_Int_Tables_number       1
_space_group_crystal_system       triclinic
_cell_length_a                    23.106906
_cell_length_b                    10.66804
_cell_length_c                    9.887259
_cell_angle_alpha                 90.139325
_cell_angle_beta                  90.588095
_cell_angle_gamma                 90.463902
_cell_volume                      2437.04673322

loop_
_atom_site_label
_atom_site_type_symbol
_atom_type_description
_atom_site_fract_x
_atom_site_fract_y
_atom_site_fract_z
_atom_type_partial_charge
C1    C     C_R   0.501568 0.260005 0.499996 0.881978
C2    C     C_R   0.966262 0.331508 0.276211 -0.143212
C3    C     C_R   0.026435 0.324702 0.273645 -0.142686
C4    C     C_R   0.059245 0.350454 0.390908 -0.014264
C5    C     C_R   0.031065 0.378176 0.513028 -0.015416
C6    C     C_R   0.063528 0.403112 0.631600 -0.017667
C7    C     C_R   0.035081 0.429872 0.752962 -0.137499
C8    C     C_R   0.974987 0.437743 0.755237 -0.146165
C9    C     C_R   0.119729 0.354664 0.388398 0.508968
C10   C     C_R   0.123837 0.406210 0.623950 0.505214
C11   C     C_R   0.228988 0.526565 0.445564 -0.035094
C12   C     C_R   0.389342 0.498743 0.499267 0.843406
C13   C     C_R   0.287608 0.559961 0.445970 -0.067416
C14   C     C_R   0.327774 0.473207 0.497020 -0.161156
C15   C     C_R   0.309809 0.354687 0.541260 -0.139295
C16   C     C_R   0.251302 0.321420 0.540511 0.045173
C17   C     C_R   0.210891 0.409377 0.493730 0.159875
C18   C     C_R   0.754055 0.361518 0.569661 -0.101169
C19   C     C_R   0.695172 0.381304 0.564843 -0.169600
C20   C     C_R   0.673126 0.488500 0.502977 -0.091001
C21   C     C_R   0.710294 0.580565 0.447771 -0.119492
C22   C     C_R   0.770842 0.559543 0.451542 0.010262
C23   C     C_R   0.502108 0.739891 0.500193 0.862092
C24   C     C_R   0.791851 0.448453 0.512688 0.260046
C25   C     C_R   0.506143 0.064046 0.623001 0.145749
C26   C     C_R   0.510344 0.128573 0.501318 -0.114252
C27   C     C_R   0.525664 0.064916 0.382865 -0.191456
C28   C     C_R   0.526217 0.935188 0.383141 -0.191910
C29   C     C_R   0.511439 0.871353 0.501894 -0.103998
C30   C     C_R   0.506967 0.936255 0.623459 0.124027
C31   C     C_3   0.461550 0.927319 0.729669 -0.450657
C32   C     C_3   0.460170 0.069219 0.728089 -0.472846
C33   C     C_R   0.458577 0.435152 0.070276 0.172089
C34   C     C_R   0.610717 0.501108 0.500666 0.842838
C35   C     C_R   0.543084 0.556459 0.074492 -0.083145
C36   C     C_R   0.542960 0.559253 0.930715 0.000738
C37   C     C_R   0.458562 0.434420 0.927610 0.066084
C38   C     C_3   0.394721 0.458544 0.923095 -0.237813
C39   C     C_3   0.395266 0.458285 0.076764 -0.458106
C40   C     C_R   0.882535 0.436111 0.633459 0.575588
C41   C     C_R   0.878047 0.381630 0.398673 0.547095
C42   C     C_R   0.937950 0.364637 0.395949 -0.005333
C43   C     C_R   0.970371 0.385756 0.515428 -0.010478
C44   C     C_R   0.942392 0.418680 0.636257 -0.019119
H1    H     H_    0.942176 0.314046 0.183409 0.196162
H2    H     H_    0.534243 0.885801 0.289392 0.171338
H3    H     H_    0.478850 0.888326 0.825972 0.201982
H4    H     H_    0.418738 0.106781 0.687656 0.210955
H5    H     H_    0.576436 0.605387 0.131914 0.175121
H6    H     H_    0.047151 0.302293 0.178920 0.196171
H7    H     H_    0.383756 0.550981 0.878137 0.191947
H8    H     H_    0.385173 0.551440 0.120991 0.212019
H9    H     H_    0.371822 0.378311 0.123909 0.217064
H10   H     H_    0.954328 0.461730 0.849582 0.196042
H11   H     H_    0.196643 0.592313 0.410619 0.184471
H12   H     H_    0.341890 0.287976 0.575656 0.154220
H13   H     H_    0.770605 0.277048 0.616127 0.161631
N1    N     N_R   0.852176 0.420721 0.515065 -0.342574
N2    N     N_R   0.150297 0.385288 0.502998 -0.373615
N3    N     N_R   0.499610 0.499140 0.142800 -0.121482
N4    N     N_R   0.499610 0.499180 0.857150 -0.151258
O1    O     O_R   0.500010 0.316790 0.614690 -0.617820
O2    O     O_2   0.845917 0.361842 0.285750 -0.545250
O3    O     O_2   0.147865 0.331380 0.272182 -0.520310
O4    O     O_2   0.155904 0.433456 0.735242 -0.502529
O5    O     O_R   0.500000 0.316760 0.385350 -0.609157
O6    O     O_R   0.416160 0.499980 0.614700 -0.617170
O7    O     O_R   0.416150 0.499940 0.385360 -0.612802
O8    O     O_R   0.500000 0.683240 0.614650 -0.647099
O9    O     O_R   0.499990 0.683210 0.385310 -0.625942
O10   O     O_R   0.583850 0.500060 0.614640 -0.624471
O11   O     O_R   0.583840 0.500020 0.385300 -0.622454
O12   O     O_2   0.854928 0.470988 0.746999 -0.522077
Zn1   Zn    Zn3+2 0.500000 0.500020 0.653130 0.933695
Zn2   Zn    Zn3+2 0.500000 0.499980 0.346870 0.948964
H14   H     H_    0.666423 0.311656 0.608130 0.158352
C45   C     C_2   0.685213 0.699521 0.394949 0.369849
H15   H     H_    0.641927 0.700586 0.351697 0.085428
O13   O     O_2   0.711429 0.798984 0.404762 -0.551457
C46   C     C_2   0.811618 0.649814 0.387609 0.532272
H16   H     H_    0.798116 0.703338 0.299851 0.114973
O14   O     O_2   0.860446 0.666519 0.432812 -0.557947
H17   H     H_    0.533444 0.114159 0.289012 0.177203
H18   H     H_    0.420725 0.882896 0.692025 0.217412
H19   H     H_    0.476023 0.112674 0.823984 0.204917
C47   C     C_2   0.588085 0.635201 0.863926 0.430326
H20   H     H_    0.580769 0.675463 0.765595 0.124945
O15   O     O_2   0.634340 0.656748 0.920558 -0.564353
C48   C     C_2   0.360445 0.351234 0.864203 0.506202
H21   H     H_    0.382090 0.271415 0.820411 0.046227
O16   O     O_2   0.307662 0.353003 0.866354 -0.496720
H22   H     H_    0.059173 0.448135 0.845586 0.200231
C49   C     C_2   0.306075 0.685446 0.396830 0.436345
H23   H     H_    0.351240 0.713856 0.401447 0.052668
O17   O     O_2   0.270934 0.759148 0.350539 -0.530338
C50   C     C_2   0.232559 0.195988 0.588512 0.526734
H24   H     H_    0.187204 0.168996 0.584913 0.065854
O18   O     O_2   0.267585 0.120871 0.632556 -0.555872

loop_
_geom_bond_atom_site_label_1
_geom_bond_atom_site_label_2
_ccdc_geom_bond_type
C49   H23   S    
C9    O3    S    
C41   C42   A    
C23   O8    A    
C19   C20   A    
C1    O1    A    
C7    C8    A    
C45   H15   S    
O7    Zn2   S    
C12   O7    A    
C38   C48   S    
C28   H2    S    
C26   C27   A    
C33   C39   S    
C18   C24   A    
C5    C6    A    
C23   C29   S    
C28   C29   A    
C41   N1    A    
C30   C31   S    
C47   O15   D    
O5    Zn2   S    
C15   C16   A    
C40   O12   S    
C18   C19   A    
C11   C17   A    
C35   C36   A    
C16   C17   A    
C50   O18   D    
C35   H5    S    
C48   O16   D    
C29   C30   A    
C20   C34   S    
C25   C32   S    
C39   H8    S    
C5    C43   A    
C49   O17   D    
C31   H3    S    
C21   C22   A    
C32   H4    S    
C23   O9    A    
O11   Zn2   S    
C3    H6    S    
C32   H19   S    
C45   O13   D    
C2    H1    S    
C38   C39   S    
C12   O6    A    
C16   C50   S    
C40   N1    A    
C46   O14   D    
C8    H10   S    
C47   H20   S    
C4    C5    A    
C38   H7    S    
C36   C47   S    
C25   C26   A    
C33   C37   A    
C31   H18   S    
C13   C49   S    
C35   N3    A    
C9    N2    A    
C43   C44   A    
C37   C38   S    
C18   H13   S    
C31   C32   S    
C50   H24   S    
C1    O5    A    
O8    Zn1   S    
O6    Zn1   S    
C17   N2    S    
C12   C14   S    
C33   N3    A    
C1    C26   S    
C22   C24   A    
C42   C43   A    
C41   O2    S    
C3    C4    A    
C34   O11   A    
O9    Zn2   S    
C11   H11   S    
C10   O4    S    
C25   C30   A    
C19   H14   S    
C8    C44   A    
C46   H16   S    
C6    C10   A    
O10   Zn1   S    
C37   N4    A    
C6    C7    A    
N4    Zn1   S    
N3    Zn2   S    
C15   H12   S    
C27   H17   S    
C2    C3    A    
C4    C9    A    
C22   C46   S    
C11   C13   A    
C39   H9    S    
C2    C42   A    
C7    H22   S    
C10   N2    A    
C40   C44   A    
C20   C21   A    
C24   N1    S    
C21   C45   S    
C27   C28   A    
C14   C15   A    
O1    Zn1   S    
C48   H21   S    
C13   C14   A    
C34   O10   A    
C36   N4    A    
