data_mof_unit_6099.cif
_audit_creation_date              2012-12-10T19:14:54-0500
_audit_creation_method            fapswitch 2.2
_symmetry_space_group_name_H-M    P1
_symmetry_Int_Tables_number       1
_space_group_crystal_system       triclinic
_cell_length_a                    15.988684
_cell_length_b                    14.769267
_cell_length_c                    10.856635
_cell_angle_alpha                 89.997492
_cell_angle_beta                  89.997004
_cell_angle_gamma                 90.48504
_cell_volume                      2563.606328

loop_
_atom_site_label
_atom_site_type_symbol
_atom_type_description
_atom_site_fract_x
_atom_site_fract_y
_atom_site_fract_z
_atom_type_partial_charge
C1    C     C_1   0.251894 0.498694 0.513903 -0.139557
C2    C     C_1   0.748106 0.501303 0.513846 -0.139538
C3    C     C_R   0.500005 0.499996 0.871037 -0.145011
C4    C     C_R   0.499994 0.500003 0.128092 -0.148536
C5    C     C_R   0.500010 0.902862 0.500004 0.043364
C6    C     C_R   0.499990 0.097139 0.500011 0.042676
C7    C     C_R   0.575199 0.952797 0.509267 -0.130967
C8    C     C_R   0.424802 0.047205 0.490741 -0.131607
C9    C     C_R   0.424813 0.951418 0.490750 -0.151863
C10   C     C_R   0.575187 0.048584 0.509281 -0.151228
C11   C     C_R   0.957498 0.583493 0.542975 0.170480
C12   C     C_R   0.042497 0.416493 0.542993 0.170402
C13   C     C_R   0.045785 0.582269 0.544219 0.134622
C14   C     C_R   0.954210 0.417717 0.544203 0.134650
C15   C     C_R   0.340793 0.499619 0.502171 0.796856
C16   C     C_R   0.659207 0.500380 0.502120 0.796884
C17   C     C_R   0.499991 0.500001 0.262018 0.782974
C18   C     C_R   0.500009 0.499998 0.737630 0.782383
C19   C     C_R   0.912480 0.501149 0.538844 0.009725
C20   C     C_R   0.087516 0.498839 0.538875 0.009722
C21   C     C_1   0.500014 0.802711 0.500001 0.149996
C22   C     C_1   0.499986 0.197289 0.500004 0.149993
C23   C     C_1   0.822822 0.501726 0.525832 0.121547
C24   C     C_1   0.177177 0.498265 0.525882 0.121530
C25   C     C_R   0.633384 0.587159 0.126224 -0.227618
C26   C     C_R   0.363523 0.420537 0.870923 -0.230408
C27   C     C_R   0.636483 0.579462 0.870908 -0.230684
C28   C     C_R   0.366609 0.412840 0.126241 -0.227835
C29   C     C_R   0.699149 0.629423 0.062219 -0.019422
C30   C     C_R   0.299054 0.374684 0.932649 -0.038545
C31   C     C_R   0.700944 0.625322 0.932624 -0.038359
C32   C     C_R   0.300847 0.370577 0.062244 -0.019329
C33   C     C_R   0.567430 0.541205 0.934571 0.057548
C34   C     C_R   0.433537 0.456549 0.063967 0.060057
C35   C     C_R   0.566457 0.543452 0.063959 0.060040
C36   C     C_R   0.432574 0.458791 0.934578 0.057505
Cu1   Cu    Cu3+1 0.500000 0.589220 0.500000 0.998266
Cu2   Cu    Cu3+1 0.500000 0.410780 0.500000 0.998314
H1    H     H_    0.634168 0.084798 0.516561 0.135392
H2    H     H_    0.365831 0.915204 0.483494 0.136171
H3    H     H_    0.365815 0.082336 0.483463 0.146575
H4    H     H_    0.634186 0.917666 0.516525 0.144220
H5    H     H_    0.636589 0.587714 0.225642 0.167063
H6    H     H_    0.359596 0.424116 0.771664 0.170224
H7    H     H_    0.640415 0.575883 0.771649 0.170167
H8    H     H_    0.363398 0.412284 0.225658 0.166998
N1    N     N_1   0.500000 0.276710 0.500000 -0.144775
N2    N     N_1   0.500000 0.723290 0.500000 -0.144812
O1    O     O_R   0.380310 0.575320 0.500020 -0.569054
O2    O     O_R   0.619690 0.424680 0.499980 -0.568979
O3    O     O_R   0.619690 0.575320 0.499980 -0.561613
O4    O     O_R   0.380310 0.424680 0.500020 -0.561632
O5    O     O_R   0.499990 0.575350 0.319650 -0.570560
O6    O     O_R   0.500010 0.424650 0.680350 -0.575537
O7    O     O_R   0.500010 0.575350 0.680350 -0.575531
O8    O     O_R   0.499990 0.424650 0.319650 -0.570514
N3    N     N_2   0.093295 0.664475 0.546278 -0.429772
H9    H     H_    0.067046 0.717957 0.499732 0.258842
C37   C     C_3   0.124617 0.689677 0.666629 -0.649366
H10   H     H_    0.071824 0.704279 0.729954 0.224172
H11   H     H_    0.164494 0.751296 0.658434 0.225724
H12   H     H_    0.163183 0.634625 0.706139 0.246175
N4    N     N_2   0.906699 0.335511 0.546238 -0.429546
H13   H     H_    0.932962 0.282033 0.499703 0.258942
C38   C     C_3   0.875338 0.310298 0.666571 -0.649698
H14   H     H_    0.928111 0.295687 0.729922 0.224208
H15   H     H_    0.835461 0.248682 0.658352 0.225289
H16   H     H_    0.836763 0.365348 0.706066 0.246175
N5    N     N_2   0.913414 0.666819 0.550024 -0.389800
H17   H     H_    0.940340 0.715021 0.606456 0.262705
C39   C     C_3   0.887557 0.702905 0.432505 -0.610979
H18   H     H_    0.942926 0.723530 0.377154 0.194755
H19   H     H_    0.847561 0.762984 0.447532 0.251209
H20   H     H_    0.850882 0.651511 0.380663 0.252467
N6    N     N_2   0.086580 0.333168 0.550070 -0.389659
H21   H     H_    0.059638 0.284965 0.606493 0.262732
C40   C     C_3   0.112474 0.297084 0.432567 -0.611105
H22   H     H_    0.057123 0.276459 0.377191 0.194794
H23   H     H_    0.152466 0.237004 0.447621 0.250946
H24   H     H_    0.149167 0.348477 0.380740 0.252498
C41   C     C_2   0.233659 0.325770 0.134095 0.867250
O9    O     O_2   0.251708 0.278558 0.222548 -0.609808
O10   O     O_R   0.149864 0.338317 0.101909 -0.745005
H25   H     H_    0.109958 0.302712 0.156301 0.330781
C42   C     C_2   0.766568 0.671489 0.858086 0.887649
O11   O     O_2   0.790034 0.637642 0.761437 -0.600039
O12   O     O_R   0.799455 0.755100 0.895481 -0.735879
H26   H     H_    0.843071 0.779637 0.836151 0.331470
C43   C     C_2   0.233421 0.328533 0.858121 0.888240
O13   O     O_2   0.209981 0.362377 0.761455 -0.599957
O14   O     O_R   0.200497 0.244942 0.895546 -0.735611
H27   H     H_    0.156876 0.220418 0.836223 0.331662
C44   C     C_2   0.766339 0.674225 0.134060 0.867424
O15   O     O_2   0.748292 0.721399 0.222547 -0.608452
O16   O     O_R   0.850132 0.661715 0.101825 -0.745035
H28   H     H_    0.890037 0.697309 0.156221 0.330773

loop_
_geom_bond_atom_site_label_1
_geom_bond_atom_site_label_2
_ccdc_geom_bond_type
C7    C10   A    
C30   C32   A    
O12   H26   S    
N4    C38   S    
C44   O15   D    
C31   C42   S    
O16   H28   S    
C16   O3    A    
C25   H5    S    
C41   O9    D    
C26   H6    S    
C40   H22   S    
C27   C33   A    
C32   C41   S    
C11   C19   A    
C16   O2    A    
Cu1   O3    S    
N3    C37   S    
C13   N3    S    
C3    C33   A    
C6    C22   S    
C3    C18   S    
C7    H4    S    
N5    C39   S    
C20   C24   S    
C8    C9    A    
C38   H15   S    
C1    C15   S    
C43   O14   S    
C2    C16   S    
C21   N2    T    
Cu1   O5    S    
C27   H7    S    
C42   O12   S    
C22   N1    T    
C4    C35   A    
C28   C34   A    
C37   H10   S    
C44   O16   S    
C30   C43   S    
C41   O10   S    
C40   H23   S    
C25   C29   A    
C4    C34   A    
C37   H11   S    
C27   C31   A    
C28   C32   A    
C8    H3    S    
O14   H27   S    
C5    C7    A    
C6    C8    A    
C42   O11   D    
C9    H2    S    
C10   H1    S    
C19   C23   S    
N6    H21   S    
C5    C9    A    
Cu1   Cu2   S    
Cu1   O1    S    
O10   H25   S    
Cu2   O6    S    
C38   H16   S    
C28   H8    S    
C12   C20   A    
Cu2   O8    S    
C15   O4    A    
Cu1   N2    S    
N6    C40   S    
C17   O8    A    
Cu2   N1    S    
C18   O7    A    
C25   C35   A    
C4    C17   S    
C26   C36   A    
C12   C14   A    
C26   C30   A    
C17   O5    A    
C39   H19   S    
C40   H24   S    
C37   H12   S    
C13   C20   A    
C14   C19   A    
C6    C10   A    
C39   H20   S    
C11   N5    S    
Cu2   O2    S    
C39   H18   S    
C29   C31   A    
C29   C44   S    
C11   C13   A    
N3    H9    S    
C3    C36   A    
C14   N4    S    
Cu2   O4    S    
C33   C35   A    
C34   C36   A    
C15   O1    A    
N5    H17   S    
C18   O6    A    
N4    H13   S    
Cu1   O7    S    
C5    C21   S    
C1    C24   T    
C38   H14   S    
C12   N6    S    
C2    C23   T    
C43   O13   D    
