data_mof_unit_58629.cif
_audit_creation_date              2012-12-10T18:11:45-0500
_audit_creation_method            fapswitch 2.2
_symmetry_space_group_name_H-M    P1
_symmetry_Int_Tables_number       1
_space_group_crystal_system       triclinic
_cell_length_a                    10.519659
_cell_length_b                    12.637139
_cell_length_c                    13.110376
_cell_angle_alpha                 82.053698
_cell_angle_beta                  90.627932
_cell_angle_gamma                 102.352979
_cell_volume                      1685.86196303

loop_
_atom_site_label
_atom_site_type_symbol
_atom_type_description
_atom_site_fract_x
_atom_site_fract_y
_atom_site_fract_z
_atom_type_partial_charge
C1    C     C_R   0.481432 0.438673 0.691139 0.840955
C2    C     C_R   0.473989 0.448030 0.973308 0.086270
C3    C     C_R   0.437597 0.465829 0.869949 0.008533
C4    C     C_R   0.741863 0.500446 0.499974 0.884619
C5    C     C_R   0.470183 0.530034 0.035615 0.008132
C6    C     C_R   0.412099 0.619812 0.999404 0.050807
C7    C     C_R   0.360777 0.628461 0.900271 0.482389
C8    C     C_R   0.371514 0.550303 0.837292 -0.305155
C9    C     C_R   0.523954 0.525432 0.133195 -0.223779
C10   C     C_R   0.448189 0.685316 0.164806 -0.231948
C11   C     C_R   0.469650 0.399131 0.800999 -0.084633
C12   C     C_3   0.061587 0.585243 0.541506 0.109955
C13   C     C_R   0.293098 0.082313 0.369736 -0.274686
C14   C     C_R   0.654251 0.798570 0.630097 0.220343
C15   C     C_R   0.679857 0.900321 0.663820 -0.421676
C16   C     C_R   0.513915 0.561021 0.308809 0.842367
C17   C     C_R   0.619387 0.983027 0.618067 0.541619
C18   C     C_R   0.534139 0.962297 0.534177 -0.110320
C19   C     C_R   0.506899 0.855224 0.505946 0.047568
C20   C     C_R   0.470821 0.041407 0.479626 -0.055392
C21   C     C_R   0.368832 0.008429 0.410864 0.051844
C22   C     C_R   0.345806 0.902989 0.383165 0.462058
C23   C     C_3   0.955926 0.495044 0.599097 -0.263290
C24   C     C_R   0.416666 0.828995 0.429175 -0.285593
C25   C     C_R   0.505904 0.153311 0.488311 0.022286
C26   C     C_R   0.326677 0.189570 0.388602 -0.015817
C27   C     C_R   0.257882 0.499049 0.501665 0.876886
C28   C     C_3   0.935586 0.411797 0.460238 -0.202892
C29   C     C_3   0.017610 0.407056 0.558962 -0.167555
C30   C     C_3   0.122771 0.499039 0.502405 -0.032398
C31   C     C_3   0.043637 0.503893 0.403394 -0.317466
C32   C     C_3   0.981877 0.590396 0.444279 0.554276
C33   C     C_3   0.297922 0.909650 0.212039 -0.337442
C34   C     C_3   0.876643 0.500271 0.500422 -0.103470
C35   C     C_3   0.755468 0.131836 0.673320 -0.383844
C36   C     C_3   0.911825 0.674375 0.293334 -0.230087
C37   C     C_3   0.365750 0.785277 0.789929 -0.290931
C38   C     C_R   0.404863 0.698449 0.064063 -0.164534
C39   C     C_R   0.503940 0.596630 0.199792 -0.047264
C40   C     C_R   0.509914 0.302331 0.838167 -0.187690
C41   C     C_R   0.526612 0.275589 0.942945 -0.156172
C42   C     C_R   0.512098 0.348575 0.010079 -0.171733
H1    H     H_    0.036069 0.331600 0.605312 0.144378
H2    H     H_    0.879594 0.339932 0.427246 0.161388
H3    H     H_    0.742126 0.912638 0.729282 0.162747
H4    H     H_    0.396818 0.750026 0.404764 0.227968
H5    H     H_    0.083410 0.506703 0.324737 0.147274
H6    H     H_    0.917534 0.492938 0.678075 0.155356
H7    H     H_    0.431809 0.740077 0.217062 0.162596
H8    H     H_    0.360992 0.767360 0.038440 0.172428
H9    H     H_    0.247861 0.852693 0.159868 0.192789
H10   H     H_    0.404787 0.917390 0.201995 0.140307
H11   H     H_    0.273706 0.990223 0.186453 0.172450
H12   H     H_    0.576967 0.463544 0.161738 0.139711
H13   H     H_    0.817293 0.743926 0.668830 0.169613
H14   H     H_    0.694030 0.701748 0.756744 0.165408
H15   H     H_    0.813287 0.136411 0.601462 0.160238
H16   H     H_    0.803209 0.095081 0.741037 0.181765
H17   H     H_    0.755016 0.217137 0.684794 0.196515
H18   H     H_    0.987928 0.659255 0.242424 0.160600
H19   H     H_    0.824040 0.606608 0.297551 0.118027
H20   H     H_    0.882357 0.750152 0.257848 0.191722
H21   H     H_    0.061428 0.715248 0.616697 0.191621
H22   H     H_    0.178925 0.736769 0.526794 0.225575
H23   H     H_    0.532812 0.249338 0.785976 0.185709
H24   H     H_    0.370650 0.748744 0.718058 0.187370
H25   H     H_    0.465395 0.819003 0.816175 0.163135
H26   H     H_    0.316576 0.854744 0.771266 0.198618
H27   H     H_    0.528097 0.323668 0.090372 0.129286
H28   H     H_    0.556438 0.200297 0.971776 0.144586
H29   H     H_    0.325842 0.555353 0.762886 0.187588
H30   H     H_    0.268961 0.247565 0.358029 0.143802
H31   H     H_    0.208302 0.057932 0.324116 0.183509
H32   H     H_    0.591645 0.189292 0.526488 0.185477
N1    N     N_R   0.432930 0.222190 0.444670 -0.117494
N2    N     N_R   0.566370 0.776980 0.554790 -0.107541
N3    N     N_3   0.716663 0.715061 0.677886 -0.371033
N4    N     N_3   0.131174 0.679633 0.586726 -0.433285
O1    O     O_R   0.467970 0.366730 0.627150 -0.607726
O2    O     O_3   0.625099 0.074660 0.666747 -0.625525
O3    O     O_3   0.961612 0.690433 0.391482 -0.587946
O4    O     O_3   0.292618 0.709082 0.867788 -0.619456
O5    O     O_R   0.510820 0.544830 0.662520 -0.600314
O6    O     O_R   0.664630 0.410960 0.482340 -0.639955
O7    O     O_R   0.707470 0.589060 0.517710 -0.568941
O8    O     O_R   0.489180 0.455170 0.337480 -0.614145
O9    O     O_R   0.532030 0.633270 0.372850 -0.629192
O10   O     O_R   0.292530 0.410940 0.482290 -0.619817
O11   O     O_R   0.335370 0.589040 0.517660 -0.636837
O12   O     O_3   0.250930 0.868683 0.313635 -0.586434
Zn1   Zn    Zn3+2 0.471390 0.381080 0.476380 0.937543
Zn2   Zn    Zn3+2 0.528610 0.618920 0.523620 0.953399

loop_
_geom_bond_atom_site_label_1
_geom_bond_atom_site_label_2
_ccdc_geom_bond_type
C26   H30   S    
C41   C42   A    
C1    C11   S    
C7    C8    A    
C33   H10   S    
C32   O3    S    
C12   C23   S    
C35   H16   S    
C23   C29   S    
C19   N2    A    
C18   C19   A    
O8    Zn1   S    
C5    C6    A    
H13   N3    S    
C20   C25   A    
C37   H26   S    
C35   O2    S    
C9    C39   A    
C35   H17   S    
C25   H32   S    
C14   N3    S    
C12   N4    S    
C16   O9    A    
C6    C38   A    
C27   O11   A    
O6    Zn1   S    
O1    Zn1   S    
N1    Zn1   S    
C28   C34   S    
C31   H5    S    
O9    Zn2   S    
C12   C32   S    
C27   C30   S    
C16   O8    A    
C27   O10   A    
C36   H20   S    
O7    Zn2   S    
C26   N1    A    
C33   H11   S    
C4    C34   S    
C3    C8    A    
C4    O7    A    
C28   H2    S    
C17   O2    S    
H14   N3    S    
C10   C39   A    
C25   N1    A    
C14   N2    A    
C5    C9    A    
C29   C30   S    
O5    Zn2   S    
C31   C32   S    
C4    O6    A    
O10   Zn1   S    
C36   O3    S    
C23   C34   S    
C37   H24   S    
C17   C18   A    
C22   O12   S    
C13   C21   A    
O11   Zn2   S    
N2    Zn2   S    
C40   C41   A    
C13   H31   S    
C40   H23   S    
C1    O1    A    
C22   C24   A    
C13   C26   A    
C2    C5    A    
C33   H9    S    
C15   H3    S    
C36   H19   S    
C15   C17   A    
C28   C29   S    
C8    H29   S    
C23   H6    S    
C12   C30   S    
H22   N4    S    
C28   C31   S    
C36   H18   S    
C6    C7    A    
C38   H8    S    
C1    O5    A    
C35   H15   S    
C10   C38   A    
C24   H4    S    
C19   C24   A    
C33   O12   S    
C30   C31   S    
C2    C42   A    
C37   H25   S    
C2    C3    A    
C18   C20   A    
C42   H27   S    
C11   C40   A    
C37   O4    S    
C3    C11   A    
C16   C39   S    
C7    O4    S    
C20   C21   A    
C14   C15   A    
C9    H12   S    
C21   C22   A    
C10   H7    S    
C29   H1    S    
C32   C34   S    
C41   H28   S    
H21   N4    S    
