data_mof_unit_17326.cif
_audit_creation_date              2012-12-11T15:21:35-0500
_audit_creation_method            fapswitch 2.2
_symmetry_space_group_name_H-M    P1
_symmetry_Int_Tables_number       1
_space_group_crystal_system       triclinic
_cell_length_a                    19.094713
_cell_length_b                    7.192788
_cell_length_c                    17.860359
_cell_angle_alpha                 90.086566
_cell_angle_beta                  108.734183
_cell_angle_gamma                 89.486702
_cell_volume                      2322.95776212

loop_
_atom_site_label
_atom_site_type_symbol
_atom_type_description
_atom_site_fract_x
_atom_site_fract_y
_atom_site_fract_z
_atom_type_partial_charge
O1    O     O_R   0.562310 0.505770 0.439670 -0.535055
O2    O     O_R   0.437690 0.005770 0.560330 -0.538494
O3    O     O_R   0.411650 0.169150 0.405330 -0.496832
O4    O     O_R   0.588350 0.669150 0.594670 -0.493728
C1    C     C_R   0.384567 0.346872 0.383066 0.758214
C2    C     C_R   0.615818 0.845627 0.616546 0.739093
O5    O     O_R   0.560140 0.175610 0.430010 -0.534911
O6    O     O_R   0.439860 0.675610 0.569990 -0.511532
O7    O     O_R   0.587240 0.012100 0.585200 -0.510170
O8    O     O_R   0.412760 0.512100 0.414800 -0.507291
C3    C     C_R   0.581645 0.343725 0.415858 0.796875
C4    C     C_R   0.417601 0.845953 0.583801 0.783009
O9    O     O_3   0.508720 0.341420 0.550890 -0.357038
O10   O     O_3   0.491280 0.841420 0.449110 -0.371080
V1    V     V_3+5 0.498380 0.063930 0.490560 1.699062
V2    V     V_3+5 0.501620 0.563930 0.509440 1.744189
C5    C     C_R   0.201514 0.967158 0.893204 0.103206
C6    C     C_R   0.796506 0.367037 0.101820 0.124636
C7    C     C_R   0.128191 0.907264 0.863874 -0.119754
C8    C     C_R   0.870610 0.419927 0.135624 -0.128674
C9    C     C_R   0.105631 0.808188 0.791952 -0.124562
C10   C     C_R   0.896412 0.468635 0.216054 -0.146436
C11   C     C_R   0.154521 0.781774 0.747430 -0.053159
C12   C     C_R   0.849375 0.460879 0.263340 -0.056970
C13   C     C_R   0.222436 0.877255 0.770879 0.046821
C14   C     C_R   0.777015 0.389927 0.230106 0.038253
C15   C     C_R   0.244513 0.976398 0.842830 0.091136
C16   C     C_R   0.751521 0.338096 0.149582 0.086217
C17   C     C_R   0.138080 0.664151 0.680512 0.073356
C18   C     C_R   0.872445 0.521581 0.342796 0.074361
C19   C     C_R   0.188610 0.644364 0.638135 0.671790
C20   C     C_R   0.823819 0.513489 0.387528 0.669305
C21   C     C_R   0.254327 0.748730 0.658630 -0.193643
C22   C     C_R   0.751987 0.440575 0.355136 -0.197052
C23   C     C_R   0.269735 0.869542 0.724006 -0.108673
C24   C     C_R   0.729132 0.374914 0.276529 -0.115540
C25   C     C_R   0.331648 0.986767 0.741944 0.102464
C26   C     C_R   0.658163 0.295162 0.243759 0.107820
C27   C     C_R   0.351332 0.090142 0.812475 -0.116697
C28   C     C_R   0.635728 0.237002 0.164529 -0.111681
C29   C     C_R   0.309959 0.078931 0.863780 -0.141165
C30   C     C_R   0.681010 0.260405 0.118171 -0.140724
C31   C     C_R   0.305536 0.734674 0.616180 0.676993
C32   C     C_R   0.702311 0.433011 0.399288 0.651795
C33   C     C_R   0.365215 0.859971 0.630857 -0.258665
C34   C     C_R   0.632141 0.351202 0.367466 -0.247510
C35   C     C_R   0.371599 0.001258 0.688379 0.053478
C36   C     C_R   0.611112 0.276342 0.290393 0.027592
H1    H     H_    0.051043 0.748101 0.772900 0.179275
H2    H     H_    0.952963 0.514452 0.240506 0.189341
H3    H     H_    0.400501 0.174659 0.830168 0.162117
H4    H     H_    0.582375 0.175800 0.136212 0.170483
H5    H     H_    0.327575 0.158103 0.918158 0.172741
H6    H     H_    0.660331 0.212404 0.057737 0.178695
C37   C     C_3   0.758323 0.783168 0.830596 -0.102822
C38   C     C_3   0.244099 0.296024 0.167145 -0.111585
H7    H     H_    0.784682 0.645950 0.850752 0.234211
H8    H     H_    0.219281 0.160253 0.143911 0.234301
C39   C     C_3   0.687761 0.748630 0.758648 0.424761
C40   C     C_3   0.313806 0.257431 0.239674 0.431099
H9    H     H_    0.637266 0.780125 0.774406 0.112708
H10   H     H_    0.363764 0.291536 0.224421 0.129304
H11   H     H_    0.748481 0.657971 0.640094 0.255142
H12   H     H_    0.253951 0.160461 0.357927 0.222953
C41   C     C_3   0.830858 0.817227 0.734613 0.571199
C42   C     C_3   0.170870 0.321758 0.264160 0.580701
C43   C     C_3   0.779207 0.099972 0.778122 0.466422
C44   C     C_3   0.220802 0.607138 0.220813 0.465866
C45   C     C_3   0.815437 0.909293 0.808252 -0.366635
C46   C     C_3   0.185649 0.414890 0.190610 -0.360927
H13   H     H_    0.815902 0.175167 0.751567 0.190591
H14   H     H_    0.183139 0.681341 0.246881 0.187992
C47   C     C_3   0.688671 0.867108 0.686478 -0.374974
C48   C     C_3   0.312107 0.371886 0.312767 -0.367451
C49   C     C_3   0.756981 0.802558 0.663042 -0.293162
C50   C     C_3   0.244384 0.305774 0.335662 -0.314515
C51   C     C_3   0.702522 0.076876 0.714188 0.620345
C52   C     C_3   0.297428 0.582728 0.286240 0.614379
H15   H     H_    0.760879 0.889552 0.613110 0.236057
H16   H     H_    0.239685 0.390770 0.385963 0.258650
O11   O     O_R   0.087220 0.271820 0.085230 -0.551642
O12   O     O_R   0.912780 0.771820 0.914770 -0.554859
O13   O     O_R   0.939860 0.595540 0.069990 -0.540305
O14   O     O_R   0.060140 0.095540 0.930010 -0.537545
C53   C     C_R   0.920449 0.427360 0.086472 0.741059
C54   C     C_R   0.079170 0.924567 0.913372 0.739689
O15   O     O_R   0.088340 0.601930 0.094680 -0.501749
O16   O     O_R   0.911660 0.101930 0.905320 -0.499172
O17   O     O_R   0.062310 0.765410 0.939660 -0.532825
O18   O     O_R   0.937690 0.265410 0.060340 -0.525595
C55   C     C_R   0.114521 0.431867 0.119176 0.826837
C56   C     C_R   0.886039 0.931187 0.880190 0.837740
O19   O     O_3   0.991270 0.429630 0.949130 -0.377572
O20   O     O_3   0.008730 0.929630 0.050870 -0.374118
V3    V     V_3+5 0.001620 0.707150 0.009440 1.609940
V4    V     V_3+5 0.998380 0.207150 0.990560 1.619835
I1    I     I_    0.256687 0.944629 0.016300 -0.194576
I2    I     I_    0.748185 0.377555 0.977698 -0.194933
I3    I     I_    0.730043 0.878023 0.931937 -0.264729
I4    I     I_    0.273782 0.419944 0.070473 -0.241218
F1    F     F_    0.684782 0.562168 0.739001 -0.588006
F2    F     F_    0.317477 0.070068 0.257513 -0.585554
I5    I     I_    0.883264 0.546701 0.757193 -0.140082
I6    I     I_    0.119438 0.052645 0.242000 -0.161849
F3    F     F_    0.774901 0.211118 0.839019 -0.614076
F4    F     F_    0.225557 0.720852 0.160366 -0.608721
I7    I     I_    0.615820 0.181959 0.757173 -0.116786
I8    I     I_    0.387687 0.689358 0.248933 -0.082009
F5    F     F_    0.702200 0.189509 0.650931 -0.619241
F6    F     F_    0.295534 0.691721 0.349874 -0.621518
F7    F     F_    0.880234 0.926185 0.711986 -0.659275
F8    F     F_    0.121026 0.431366 0.286880 -0.666292
I9    I     I_    0.040257 0.502004 0.642804 -0.062449
I10   I     I_    0.979505 0.634053 0.398915 -0.041076
F9    F     F_    0.172083 0.526372 0.575546 -0.568331
F10   F     F_    0.847547 0.576235 0.463237 -0.565195
F11   F     F_    0.294703 0.608627 0.556842 -0.596878
F12   F     F_    0.722381 0.500651 0.474267 -0.612615
I11   I     I_    0.418173 0.267698 0.681775 -0.263906
I12   I     I_    0.508084 0.134975 0.244742 -0.310297

loop_
_geom_bond_atom_site_label_1
_geom_bond_atom_site_label_2
_ccdc_geom_bond_type
C27   H3    S    
O16   V4    S    
O4    V2    S    
O15   C55   A    
C46   C55   S    
O1    C3    A    
C5    I1    S    
C7    C54   S    
O2    C4    A    
C2    O7    A    
C9    H1    S    
C27   C29   A    
O5    C3    A    
C48   C50   S    
C11   C17   A    
C40   H10   S    
C23   C25   A    
C38   I4    S    
C12   C14   A    
C37   C39   S    
O12   C56   A    
C6    C8    A    
C52   I8    S    
O14   V4    S    
C16   C30   A    
C1    C48   S    
C41   F7    S    
C5    C7    A    
O16   C56   A    
O15   V3    S    
C19   C21   A    
C25   C35   A    
C45   C56   S    
C39   C47   S    
C26   C36   A    
O6    C4    A    
C10   H2    S    
C28   C30   A    
C42   C50   S    
O6    V2    S    
C47   C49   S    
C44   F4    S    
C40   F2    S    
C19   F9    S    
C32   C34   A    
C33   C35   A    
C44   C52   S    
C34   C36   A    
C39   H9    S    
C5    C15   A    
C42   I6    S    
C51   I7    S    
C6    C16   A    
C36   I12   S    
C13   C23   A    
O11   V4    S    
C43   F3    S    
O5    V1    S    
C28   H4    S    
C38   C40   S    
C43   C45   S    
C39   F1    S    
O17   V3    S    
C18   C20   A    
C43   C51   S    
C15   C29   A    
C32   F12   S    
C44   H14   S    
O13   V3    S    
C8    C53   S    
H12   C50   S    
C22   C32   A    
C52   F6    S    
O1    V2    S    
C20   F10   S    
C51   F5    S    
O2    V1    S    
C31   C33   A    
C29   H5    S    
C37   C45   S    
C31   F11   S    
C14   C24   A    
O13   C53   A    
C8    C10   A    
O19   V4    S    
C38   C46   S    
C37   H7    S    
C10   C12   A    
O4    C2    A    
C41   I5    S    
C24   C26   A    
O3    V1    S    
C35   I11   S    
C2    C47   S    
C18   I10   S    
C17   I9    S    
O12   V3    S    
C7    C9    A    
C50   H16   S    
O14   C54   A    
C4    C33   S    
O3    C1    A    
C54   O17   A    
C53   O18   A    
O18   V4    S    
C13   C15   A    
C14   C16   A    
C41   C49   S    
C9    C11   A    
O7    V1    S    
C1    O8    A    
C17   C19   A    
O8    V2    S    
C30   H6    S    
C26   C28   A    
C42   C46   S    
H11   C49   S    
C41   C45   S    
C40   C48   S    
C21   C23   A    
C22   C24   A    
C38   H8    S    
C43   H13   S    
C11   C13   A    
O20   V3    S    
C12   C18   A    
O11   C55   A    
C25   C27   A    
C48   C52   S    
O9    V2    S    
C37   I3    S    
C44   C46   S    
C47   C51   S    
O10   V1    S    
C3    C34   S    
C6    I2    S    
C42   F8    S    
C21   C31   A    
C49   H15   S    
C20   C22   A    
