data_mof_unit_50433.cif
_audit_creation_date              2012-12-10T20:45:31-0500
_audit_creation_method            fapswitch 2.2
_symmetry_space_group_name_H-M    P1
_symmetry_Int_Tables_number       1
_space_group_crystal_system       triclinic
_cell_length_a                    10.806247
_cell_length_b                    10.612359
_cell_length_c                    9.898848
_cell_angle_alpha                 89.025698
_cell_angle_beta                  91.494899
_cell_angle_gamma                 90.254855
_cell_volume                      1134.63810023

loop_
_atom_site_label
_atom_site_type_symbol
_atom_type_description
_atom_site_fract_x
_atom_site_fract_y
_atom_site_fract_z
_atom_type_partial_charge
C1    C     C_R   0.499454 0.260383 0.500771 0.873248
C2    C     C_R   0.181684 0.554357 0.972005 -0.153603
C3    C     C_R   0.930181 0.527606 0.383643 -0.260802
C4    C     C_R   0.872356 0.500569 0.505268 -0.087476
C5    C     C_R   0.942458 0.470863 0.623411 -0.012064
C6    C     C_R   0.069193 0.468384 0.615710 -0.252090
C7    C     C_R   0.127128 0.496640 0.494647 -0.092117
C8    C     C_R   0.056778 0.523586 0.376112 -0.000573
C9    C     C_R   0.877152 0.538638 0.850274 -0.112510
C10   C     C_R   0.844255 0.509858 0.982832 -0.131637
C11   C     C_R   0.826315 0.384386 0.023286 -0.140632
C12   C     C_R   0.259942 0.498799 0.497972 0.866999
C13   C     C_R   0.836139 0.287961 0.929689 -0.146671
C14   C     C_R   0.867943 0.316509 0.796543 -0.116979
C15   C     C_R   0.890326 0.441933 0.756872 0.148175
C16   C     C_R   0.392730 0.062658 0.533428 0.094061
C17   C     C_R   0.499412 0.128296 0.499547 -0.070728
C18   C     C_R   0.597130 0.066857 0.438507 -0.232854
C19   C     C_R   0.596392 0.936488 0.435204 -0.228388
C20   C     C_R   0.497746 0.871148 0.492750 -0.068136
C21   C     C_R   0.392058 0.933984 0.530097 0.107998
C22   C     C_3   0.316929 0.920746 0.653715 -0.500468
C23   C     C_R   0.499966 0.739420 0.498607 0.877082
C24   C     C_3   0.318531 0.063594 0.658545 -0.469755
C25   C     C_R   0.537918 0.397192 0.073950 0.207841
C26   C     C_R   0.474345 0.606902 0.069289 -0.113780
C27   C     C_R   0.474158 0.606873 0.925561 -0.148069
C28   C     C_R   0.539100 0.397613 0.932013 0.264949
C29   C     C_3   0.487591 0.267812 0.926785 -0.532538
C30   C     C_3   0.485291 0.267469 0.080136 -0.491856
C31   C     C_R   0.739892 0.499909 0.502035 0.862629
C32   C     C_R   0.171405 0.662940 0.049005 -0.188946
C33   C     C_R   0.134160 0.653651 0.182948 -0.144308
C34   C     C_R   0.108092 0.535153 0.240247 0.138939
C35   C     C_R   0.119098 0.426492 0.163241 -0.163465
C36   C     C_R   0.155096 0.435824 0.029055 0.093186
H1    H     H_    0.210343 0.563522 0.868532 0.146088
H2    H     H_    0.803346 0.361990 0.126751 0.135945
H3    H     H_    0.820790 0.191023 0.960826 0.128611
H4    H     H_    0.879076 0.240936 0.725753 0.120901
H5    H     H_    0.675412 0.119039 0.399735 0.141790
H6    H     H_    0.674646 0.887052 0.395323 0.144700
H7    H     H_    0.223496 0.880844 0.631249 0.198353
H8    H     H_    0.368399 0.875194 0.739917 0.206195
H9    H     H_    0.225841 0.106601 0.640638 0.210457
H10   H     H_    0.372020 0.098725 0.746963 0.215938
H11   H     H_    0.450813 0.692231 0.120757 0.155520
H12   H     H_    0.191701 0.754332 0.004490 0.138808
H13   H     H_    0.450142 0.692119 0.870027 0.145403
H14   H     H_    0.394660 0.267196 0.877656 0.226553
H15   H     H_    0.554617 0.199756 0.886399 0.203299
H16   H     H_    0.390287 0.264939 0.120641 0.222220
H17   H     H_    0.551191 0.199100 0.128251 0.203380
H18   H     H_    0.124142 0.738264 0.241256 0.123257
H19   H     H_    0.095777 0.335241 0.206818 0.121879
H20   H     H_    0.876693 0.549611 0.292247 0.162768
H21   H     H_    0.122793 0.442192 0.705141 0.174703
H22   H     H_    0.895529 0.635665 0.821278 0.121322
H23   H     H_    0.835035 0.584709 0.054620 0.127805
N1    N     N_R   0.499160 0.499140 0.142800 -0.109020
N2    N     N_R   0.499160 0.499180 0.857150 -0.111096
O1    O     O_R   0.500020 0.316790 0.614690 -0.619157
O2    O     O_R   0.500000 0.316760 0.385350 -0.622197
O3    O     O_R   0.316770 0.500030 0.614670 -0.631038
O4    O     O_R   0.316750 0.499990 0.385330 -0.605518
O5    O     O_R   0.500000 0.683240 0.614650 -0.627094
O6    O     O_R   0.499980 0.683210 0.385310 -0.627434
O7    O     O_R   0.683250 0.500010 0.614670 -0.608230
O8    O     O_R   0.683230 0.499970 0.385330 -0.632773
Zn1   Zn    Zn3+2 0.500010 0.500020 0.653130 0.944796
Zn2   Zn    Zn3+2 0.499990 0.499980 0.346870 0.943541
C37   C     C_1   0.157112 0.323950 0.949255 0.098273
N3    N     N_1   0.157165 0.233443 0.885705 -0.243609

loop_
_geom_bond_atom_site_label_1
_geom_bond_atom_site_label_2
_ccdc_geom_bond_type
N2    Zn1   S    
C13   C14   A    
C11   H2    S    
C19   H6    S    
C16   C21   A    
C25   N1    A    
O3    Zn1   S    
C11   C13   A    
C12   O4    A    
O5    Zn1   S    
C1    C17   S    
C19   C20   A    
C2    H1    S    
C20   C23   S    
C33   H18   S    
C24   H10   S    
C28   N2    A    
C33   C34   A    
C9    C15   A    
C7    C8    A    
C16   C24   S    
C10   H23   S    
C8    C34   S    
C21   C22   S    
C32   C33   A    
C25   C28   A    
C32   H12   S    
C6    H21   S    
C26   C27   A    
C29   C30   S    
C26   H11   S    
C24   H9    S    
C1    O2    A    
C23   O5    A    
C2    C32   A    
C28   C29   S    
C29   H15   S    
C9    H22   S    
C6    C7    A    
O6    Zn2   S    
C29   H14   S    
C3    C8    A    
C17   C18   A    
C5    C6    A    
C12   O3    A    
C30   H17   S    
C22   C24   S    
C7    C12   S    
C5    C15   S    
C4    C31   S    
C13   H3    S    
C10   C11   A    
C14   H4    S    
C3    C4    A    
C9    C10   A    
C36   C37   S    
C31   O8    A    
C2    C36   A    
C20   C21   A    
O1    Zn1   S    
C1    O1    A    
O7    Zn1   S    
C34   C35   A    
C3    H20   S    
C18   H5    S    
C23   O6    A    
C25   C30   S    
O8    Zn2   S    
C18   C19   A    
C30   H16   S    
C14   C15   A    
C4    C5    A    
C35   C36   A    
C27   N2    A    
N1    Zn2   S    
O4    Zn2   S    
C26   N1    A    
C31   O7    A    
C35   H19   S    
C22   H8    S    
C27   H13   S    
C16   C17   A    
O2    Zn2   S    
C37   N3    T    
C22   H7    S    
