data_mof_unit_46772.cif
_audit_creation_date              2012-12-11T15:39:27-0500
_audit_creation_method            fapswitch 2.2
_symmetry_space_group_name_H-M    P1
_symmetry_Int_Tables_number       1
_space_group_crystal_system       triclinic
_cell_length_a                    17.329713
_cell_length_b                    24.344889
_cell_length_c                    14.908207
_cell_angle_alpha                 90.234086
_cell_angle_beta                  125.104087
_cell_angle_gamma                 89.231248
_cell_volume                      5145.08111014

loop_
_atom_site_label
_atom_site_type_symbol
_atom_type_description
_atom_site_fract_x
_atom_site_fract_y
_atom_site_fract_z
_atom_type_partial_charge
C1    C     C_R   0.356850 0.347582 0.909766 -0.134955
C2    C     C_R   0.545354 0.498316 0.719021 0.032812
C3    C     C_R   0.109166 0.813343 0.998672 0.026977
C4    C     C_3   0.439388 0.223307 0.805902 -0.303510
C5    C     C_3   0.548474 0.220579 0.186569 -0.316759
C6    C     C_3   0.939388 0.723307 0.805902 -0.303512
C7    C     C_3   0.048473 0.720579 0.186569 -0.316759
C8    C     C_3   0.151807 0.383574 0.672295 -0.368405
C9    C     C_3   0.803602 0.415444 0.134235 -0.279151
C10   C     C_3   0.651806 0.883574 0.672295 -0.368406
C11   C     C_3   0.303601 0.915445 0.134233 -0.279146
C12   C     C_R   0.065169 0.998952 0.367132 0.046513
C13   C     C_R   0.045354 0.998316 0.719021 0.032812
C14   C     C_R   0.198342 0.502240 0.633133 -0.083839
C15   C     C_R   0.827597 0.502188 0.287322 -0.081883
C16   C     C_R   0.698342 0.002240 0.633133 -0.083839
C17   C     C_R   0.327597 0.002188 0.287322 -0.081881
C18   C     C_R   0.071010 0.555877 0.474669 0.158521
C19   C     C_R   0.976569 0.555448 0.389507 0.159844
C20   C     C_R   0.571010 0.055877 0.474669 0.158522
C21   C     C_R   0.638705 0.345559 0.089200 -0.007170
C22   C     C_R   0.476569 0.055448 0.389506 0.159844
C23   C     C_R   0.121273 0.506363 0.517414 0.072137
C24   C     C_R   0.930354 0.505370 0.345655 0.069633
C25   C     C_R   0.621273 0.006363 0.517414 0.072137
C26   C     C_R   0.430354 0.005369 0.345655 0.069634
C27   C     C_R   0.083576 0.459326 0.452733 -0.219987
C28   C     C_R   0.987231 0.457855 0.371317 -0.246945
C29   C     C_R   0.583576 0.959326 0.452733 -0.219988
C30   C     C_R   0.487231 0.957855 0.371317 -0.246945
C31   C     C_3   0.955649 0.602841 0.437478 -0.508366
C32   C     C_R   0.856850 0.847581 0.909766 -0.134955
C33   C     C_3   0.058836 0.603272 0.529836 -0.498953
C34   C     C_3   0.455649 0.102841 0.437478 -0.508366
C35   C     C_3   0.558836 0.103272 0.529836 -0.498954
C36   C     C_R   0.153494 0.681868 0.905347 -0.320819
C37   C     C_R   0.826725 0.696101 0.094909 -0.313289
C38   C     C_R   0.653494 0.181868 0.905347 -0.320819
C39   C     C_R   0.326725 0.196101 0.094909 -0.313290
C40   C     C_R   0.598576 0.224590 0.903905 0.641250
C41   C     C_R   0.389887 0.230477 0.095227 0.639190
C42   C     C_R   0.098576 0.724590 0.903906 0.641250
C43   C     C_R   0.138705 0.845558 0.089200 -0.007171
C44   C     C_R   0.889887 0.730477 0.095227 0.639190
C45   C     C_R   0.634312 0.255146 0.000985 -0.057008
C46   C     C_R   0.358871 0.259266 0.997754 -0.057273
C47   C     C_R   0.134312 0.755146 0.000985 -0.057008
C48   C     C_R   0.858871 0.759266 0.997754 -0.057273
C49   C     C_R   0.402481 0.624769 0.092654 -0.128577
C50   C     C_R   0.582723 0.639071 0.907639 -0.141944
C51   C     C_R   0.902481 0.124769 0.092654 -0.128578
C52   C     C_R   0.082723 0.139071 0.907639 -0.141944
C53   C     C_R   0.708798 0.232660 0.101247 -0.261678
C54   C     C_R   0.312742 0.638238 0.001526 0.078963
C55   C     C_R   0.280848 0.240058 0.897598 -0.263521
C56   C     C_R   0.208798 0.732661 0.101247 -0.261678
C57   C     C_R   0.780848 0.740058 0.897598 -0.263521
C58   C     C_R   0.260496 0.688682 0.102508 -0.152792
C59   C     C_R   0.719869 0.704555 0.897362 -0.157471
C60   C     C_R   0.760496 0.188682 0.102508 -0.152792
C61   C     C_R   0.219869 0.204555 0.897362 -0.157470
C62   C     C_R   0.239364 0.667456 0.003458 0.072221
C63   C     C_R   0.737972 0.687223 0.997055 0.076735
C64   C     C_R   0.739364 0.167456 0.003458 0.072221
C65   C     C_R   0.666314 0.658168 0.998288 0.085353
C66   C     C_R   0.237972 0.187223 0.997055 0.076736
C67   C     C_R   0.606316 0.546958 0.626993 -0.170305
C68   C     C_R   0.610109 0.547264 0.536852 -0.173936
C69   C     C_R   0.106316 0.046958 0.626993 -0.170305
C70   C     C_R   0.110109 0.047264 0.536852 -0.173936
C71   C     C_R   0.598853 0.497944 0.481982 0.138745
C72   C     C_R   0.589774 0.497458 0.660599 0.142177
C73   C     C_R   0.098853 0.997944 0.481982 0.138745
C74   C     C_R   0.089774 0.997458 0.660599 0.142177
C75   C     C_R   0.604729 0.447843 0.531768 -0.166896
C76   C     C_R   0.812742 0.138238 0.001526 0.078964
C77   C     C_R   0.600284 0.447603 0.621318 -0.166906
C78   C     C_R   0.104729 0.947843 0.531768 -0.166896
C79   C     C_R   0.100284 0.947603 0.621318 -0.166906
C80   C     C_R   0.547564 0.453651 0.302306 -0.133203
C81   C     C_R   0.517816 0.452987 0.749412 -0.125991
C82   C     C_R   0.047564 0.953651 0.302306 -0.133203
C83   C     C_R   0.017816 0.952987 0.749412 -0.125991
C84   C     C_R   0.248045 0.546645 0.696665 -0.270440
C85   C     C_R   0.768231 0.546512 0.261782 -0.246865
C86   C     C_R   0.748045 0.046645 0.696665 -0.270439
C87   C     C_R   0.166314 0.158168 0.998288 0.085353
C88   C     C_R   0.268231 0.046512 0.261782 -0.246866
C89   C     C_R   0.549679 0.545037 0.304391 -0.136232
C90   C     C_R   0.512555 0.544689 0.742306 -0.118203
C91   C     C_R   0.049679 0.045037 0.304391 -0.136232
C92   C     C_R   0.012555 0.044689 0.742306 -0.118203
C93   C     C_R   0.242326 0.455688 0.698337 0.619324
C94   C     C_R   0.770364 0.455870 0.246990 0.591983
C95   C     C_R   0.742326 0.955688 0.698337 0.619323
C96   C     C_R   0.270364 0.955870 0.246990 0.591981
C97   C     C_R   0.310163 0.624941 0.908878 -0.127262
C98   C     C_R   0.565169 0.498952 0.367132 0.046513
C99   C     C_R   0.674178 0.639304 0.090316 -0.127857
C100  C     C_R   0.810163 0.124941 0.908878 -0.127263
C101  C     C_R   0.174178 0.139304 0.090316 -0.127857
C102  C     C_R   0.443783 0.348288 0.091924 -0.123100
C103  C     C_R   0.554281 0.347156 0.908456 -0.145743
C104  C     C_R   0.943783 0.848288 0.091924 -0.123100
C105  C     C_R   0.054281 0.847156 0.908456 -0.145743
C106  C     C_R   0.387068 0.315705 0.000814 0.063367
C107  C     C_R   0.609166 0.313343 0.998672 0.026978
C108  C     C_R   0.887067 0.815705 0.000814 0.063367
H1    H     H_    0.324669 0.333419 0.827055 0.148546
H2    H     H_    0.095015 0.640699 0.530083 0.197405
H3    H     H_    0.411165 0.091568 0.466149 0.200948
H4    H     H_    0.595015 0.140699 0.530083 0.197405
H5    H     H_    0.131341 0.662745 0.828538 0.144934
H6    H     H_    0.846711 0.677962 0.171721 0.140160
H7    H     H_    0.631340 0.162745 0.828538 0.144934
H8    H     H_    0.346711 0.177961 0.171721 0.140161
H9    H     H_    0.734642 0.252114 0.178757 0.143786
H10   H     H_    0.259174 0.257157 0.819538 0.134681
H11   H     H_    0.234642 0.752114 0.178757 0.143786
H12   H     H_    0.671084 0.331409 0.172303 0.108792
H13   H     H_    0.759174 0.757157 0.819538 0.134681
H14   H     H_    0.322637 0.676009 0.180837 0.119104
H15   H     H_    0.655826 0.694480 0.819239 0.113249
H16   H     H_    0.822637 0.176009 0.180837 0.119104
H17   H     H_    0.155826 0.194480 0.819239 0.113249
H18   H     H_    0.606605 0.585964 0.662109 0.106297
H19   H     H_    0.612322 0.586530 0.504930 0.107478
H20   H     H_    0.106605 0.085964 0.662109 0.106297
H21   H     H_    0.112322 0.086530 0.504930 0.107478
H22   H     H_    0.602603 0.408743 0.495965 0.114775
H23   H     H_    0.824669 0.833419 0.827055 0.148546
H24   H     H_    0.594856 0.408404 0.650879 0.116272
H25   H     H_    0.102603 0.908743 0.495965 0.114775
H26   H     H_    0.094856 0.908403 0.650879 0.116271
H27   H     H_    0.429944 0.629330 0.177996 0.094152
H28   H     H_    0.547429 0.652571 0.824094 0.084162
H29   H     H_    0.929944 0.129330 0.177996 0.094152
H30   H     H_    0.047429 0.152570 0.824094 0.084162
H31   H     H_    0.563683 0.411132 0.327603 0.092942
H32   H     H_    0.529161 0.410186 0.741138 0.101423
H33   H     H_    0.063682 0.911132 0.327603 0.092942
H34   H     H_    0.171084 0.831409 0.172303 0.108792
H35   H     H_    0.029161 0.910186 0.741137 0.101423
H36   H     H_    0.243393 0.588170 0.668444 0.145396
H37   H     H_    0.787029 0.588512 0.281404 0.140139
H38   H     H_    0.743393 0.088170 0.668444 0.145396
H39   H     H_    0.287029 0.088512 0.281404 0.140139
H40   H     H_    0.568444 0.586812 0.332812 0.087268
H41   H     H_    0.513004 0.586114 0.718548 0.085765
H42   H     H_    0.068444 0.086812 0.332812 0.087268
H43   H     H_    0.013004 0.086115 0.718548 0.085765
H44   H     H_    0.251914 0.630178 0.824021 0.102060
H45   H     H_    0.932354 0.640305 0.385162 0.198640
H46   H     H_    0.722028 0.653884 0.172770 0.088539
H47   H     H_    0.751914 0.130178 0.824021 0.102060
H48   H     H_    0.222028 0.153884 0.172770 0.088539
H49   H     H_    0.123556 0.421427 0.474233 0.199961
H50   H     H_    0.958716 0.417838 0.340006 0.199600
H51   H     H_    0.623556 0.921427 0.474233 0.199962
H52   H     H_    0.458716 0.917838 0.340006 0.199600
H53   H     H_    0.439030 0.244547 0.871798 0.143299
H54   H     H_    0.438965 0.177966 0.815059 0.151453
H55   H     H_    0.373329 0.235210 0.726548 0.184004
H56   H     H_    0.072224 0.592413 0.610107 0.201241
H57   H     H_    0.550864 0.243767 0.124204 0.144896
H58   H     H_    0.541574 0.175814 0.168237 0.154796
H59   H     H_    0.616780 0.226712 0.266876 0.179265
H60   H     H_    0.939030 0.744547 0.871797 0.143299
H61   H     H_    0.938965 0.677966 0.815060 0.151453
H62   H     H_    0.873329 0.735210 0.726548 0.184005
H63   H     H_    0.050864 0.743767 0.124204 0.144897
H64   H     H_    0.041573 0.675814 0.168236 0.154796
H65   H     H_    0.116780 0.726711 0.266876 0.179265
H66   H     H_    0.084786 0.406661 0.615520 0.166965
H67   H     H_    0.432354 0.140305 0.385162 0.198640
H68   H     H_    0.171364 0.386785 0.757519 0.156856
H69   H     H_    0.138761 0.339650 0.648652 0.183447
H70   H     H_    0.867818 0.438489 0.159657 0.143599
H71   H     H_    0.741916 0.437922 0.064112 0.149419
H72   H     H_    0.808904 0.374894 0.103794 0.181479
H73   H     H_    0.584786 0.906662 0.615521 0.166965
H74   H     H_    0.671364 0.886785 0.757519 0.156856
H75   H     H_    0.638761 0.839650 0.648652 0.183447
H76   H     H_    0.367820 0.938487 0.159657 0.143599
H77   H     H_    0.241918 0.937925 0.064114 0.149415
H78   H     H_    0.572224 0.092413 0.610107 0.201241
H79   H     H_    0.308896 0.874895 0.103787 0.181479
H80   H     H_    0.486615 0.336146 0.177020 0.158663
H81   H     H_    0.509796 0.335094 0.823695 0.173370
H82   H     H_    0.986615 0.836146 0.177020 0.158663
H83   H     H_    0.009796 0.835094 0.823695 0.173370
H84   H     H_    0.911165 0.591568 0.466149 0.200948
N1    N     N_R   0.394180 0.396910 0.943210 -0.041715
N2    N     N_R   0.474350 0.471570 0.793850 -0.042764
N3    N     N_R   0.025650 0.971570 0.206150 -0.043260
N4    N     N_R   0.974350 0.971570 0.793850 -0.042764
N5    N     N_R   0.319480 0.528420 0.793810 -0.066507
N6    N     N_R   0.680520 0.528420 0.206190 -0.064071
N7    N     N_R   0.819480 0.028420 0.793810 -0.066507
N8    N     N_R   0.180520 0.028420 0.206190 -0.064071
N9    N     N_R   0.525640 0.528390 0.206120 -0.037190
N10   N     N_R   0.474360 0.528390 0.793880 -0.040223
N11   N     N_R   0.025640 0.028390 0.206120 -0.037190
N12   N     N_R   0.605820 0.396910 0.056790 -0.046261
N13   N     N_R   0.974360 0.028390 0.793880 -0.040223
N14   N     N_R   0.319490 0.471590 0.793840 -0.093454
N15   N     N_R   0.680510 0.471590 0.206160 -0.100694
N16   N     N_R   0.819490 0.971590 0.793840 -0.093454
N17   N     N_R   0.180510 0.971590 0.206160 -0.100694
N18   N     N_R   0.394130 0.603080 0.943110 -0.038997
N19   N     N_R   0.605870 0.603080 0.056890 -0.036462
N20   N     N_R   0.894130 0.103080 0.943110 -0.038997
N21   N     N_R   0.105870 0.103080 0.056890 -0.036462
N22   N     N_R   0.450990 0.396900 0.056840 -0.053875
N23   N     N_R   0.894180 0.896910 0.943210 -0.041715
N24   N     N_R   0.549010 0.396900 0.943160 -0.059810
N25   N     N_R   0.950990 0.896900 0.056840 -0.053875
N26   N     N_R   0.049010 0.896900 0.943160 -0.059810
N27   N     N_R   0.105820 0.896910 0.056790 -0.046260
N28   N     N_R   0.450950 0.603070 0.056740 -0.041068
N29   N     N_R   0.549050 0.603070 0.943260 -0.038756
N30   N     N_R   0.950950 0.103070 0.056740 -0.041068
N31   N     N_R   0.049050 0.103070 0.943260 -0.038756
N32   N     N_R   0.525650 0.471570 0.206150 -0.043260
Ni1   Ni    Ni4+2 0.434860 0.434850 0.869700 0.233667
Ni2   Ni    Ni4+2 0.565140 0.434850 0.130300 0.205281
Ni3   Ni    Ni4+2 0.934860 0.934850 0.869700 0.233667
Ni4   Ni    Ni4+2 0.065140 0.934850 0.130300 0.205281
Ni5   Ni    Ni4+2 0.565130 0.565140 0.130240 0.204089
Ni6   Ni    Ni4+2 0.434870 0.565140 0.869760 0.204748
Ni7   Ni    Ni4+2 0.065130 0.065140 0.130240 0.204089
Ni8   Ni    Ni4+2 0.934870 0.065140 0.869760 0.204748
O1    O     O_3   0.516712 0.239245 0.804734 -0.635323
O2    O     O_3   0.475256 0.240106 0.193810 -0.637849
O3    O     O_3   0.016712 0.739245 0.804734 -0.635322
O4    O     O_3   0.975256 0.740106 0.193810 -0.637849
O5    O     O_3   0.225027 0.401774 0.665010 -0.643560
O6    O     O_3   0.794700 0.406781 0.222237 -0.653681
O7    O     O_3   0.725027 0.901774 0.665010 -0.643560
O8    O     O_3   0.294700 0.906781 0.222236 -0.653681

loop_
_geom_bond_atom_site_label_1
_geom_bond_atom_site_label_2
_ccdc_geom_bond_type
C58   C62   A    
C81   H32   S    
C38   C40   A    
C6    O3    S    
C63   C65   S    
C50   N29   A    
C10   H75   S    
C7    H63   S    
C89   H40   S    
C17   C88   A    
C90   H41   S    
C4    O1    S    
C105  H83   S    
C12   C91   A    
C36   C42   A    
C14   C84   A    
C5    O2    S    
C19   C31   S    
C15   C94   A    
N6    Ni5   S    
N1    N22   A    
C39   C41   A    
N20   N30   A    
N5    Ni6   S    
C3    C105  A    
N8    N17   A    
C30   H52   S    
C3    C43   A    
C72   C77   A    
N3    Ni4   S    
C105  N26   A    
C11   H79   S    
C17   C26   S    
N2    Ni1   S    
N11   Ni7   S    
C85   H37   S    
C18   C19   A    
C21   H12   S    
N23   N25   A    
N16   Ni3   S    
N20   Ni8   S    
C53   H9    S    
C57   C59   A    
N3    N11   A    
C20   C25   A    
C93   N14   A    
C51   N30   A    
C49   C54   A    
N2    N10   A    
C99   H46   S    
C7    H65   S    
N4    N13   A    
N18   N28   A    
C35   H78   S    
C60   H16   S    
C34   C35   S    
C83   N4    A    
C2    C90   A    
C34   H67   S    
C1    C106  A    
C1    H1    S    
C81   N2    A    
C87   C101  A    
C32   N23   A    
C88   H39   S    
C8    H69   S    
C94   O6    S    
C69   H20   S    
C101  N21   A    
N29   Ni6   S    
C52   H30   S    
C41   C46   A    
C31   C33   S    
C54   C97   A    
C92   N13   A    
N8    Ni7   S    
C23   C27   A    
N27   Ni4   S    
C14   C93   A    
N23   Ni3   S    
N21   Ni7   S    
C75   H22   S    
C86   N7    A    
N10   Ni6   S    
N9    Ni5   S    
C49   H27   S    
N4    Ni3   S    
C45   C53   A    
C10   O7    S    
C71   C75   A    
C7    H64   S    
C16   C86   A    
C34   H3    S    
C96   O8    S    
C21   N12   A    
N5    N14   A    
N14   Ni1   S    
C82   H33   S    
C2    C72   S    
C36   H5    S    
C61   C66   A    
C31   H45   S    
C53   C60   A    
C102  N22   A    
C38   C64   A    
C16   C25   S    
C25   C29   A    
C40   C45   A    
C22   C34   S    
C71   C98   S    
C6    H60   S    
C58   H14   S    
C97   N18   A    
C11   H76   S    
C49   N28   A    
C67   C68   A    
C48   C57   A    
C33   H56   S    
C51   C76   A    
C65   C99   A    
C29   H51   S    
C67   H18   S    
C93   O5    S    
C66   C87   S    
C78   C79   A    
C99   N19   A    
C37   H6    S    
C54   C62   S    
C101  H48   S    
C59   H15   S    
C11   O8    S    
C8    O5    S    
C70   C73   A    
C31   H84   S    
C100  N20   A    
C70   H21   S    
C102  H80   S    
C18   C23   A    
N32   Ni2   S    
C36   C62   A    
C77   H24   S    
C14   C23   S    
C46   C55   A    
C1    N1    A    
N7    Ni8   S    
C29   C30   A    
C41   O2    S    
C80   N32   A    
C42   O3    S    
N15   Ni2   S    
C37   C63   A    
C73   C78   A    
C104  H82   S    
C92   H43   S    
C28   H50   S    
C64   C76   S    
C4    H55   S    
C12   C82   A    
C69   C74   A    
C17   C96   A    
C95   O7    S    
C5    H58   S    
C75   C77   A    
C68   H19   S    
C82   N3    A    
C21   C107  A    
C9    H72   S    
C103  H81   S    
N28   Ni5   S    
C100  H47   S    
C15   C24   S    
N17   Ni4   S    
C20   C22   A    
N30   Ni7   S    
C26   C30   A    
C5    H57   S    
C74   C79   A    
C13   C92   A    
C32   C108  A    
C10   H74   S    
C39   C66   A    
C4    H54   S    
C50   C65   A    
C27   H49   S    
C18   C33   S    
C55   C61   A    
N12   Ni2   S    
C51   H29   S    
N26   Ni3   S    
C104  C108  A    
C67   C72   A    
N31   Ni8   S    
C6    H62   S    
C95   N16   A    
C79   H26   S    
N12   N24   A    
C7    O4    S    
C16   C95   A    
C96   N17   A    
N19   Ni5   S    
C80   C98   A    
N6    N15   A    
C11   H77   S    
C20   C35   S    
C52   C87   A    
C43   N27   A    
C94   N15   A    
C24   C28   A    
C86   H38   S    
C40   O1    S    
C2    C81   A    
C9    H71   S    
C91   H42   S    
C61   H17   S    
C8    H68   S    
C84   N5    A    
C76   C100  A    
C80   H31   S    
N13   Ni8   S    
C89   N9    A    
C13   C83   A    
C59   C63   A    
N24   Ni1   S    
C15   C85   A    
C89   C98   A    
C60   C64   A    
C88   N8    A    
C37   C44   A    
C44   O4    S    
C19   C24   A    
N1    Ni1   S    
C50   H28   S    
C83   H35   S    
C38   H7    S    
N21   N31   A    
N26   N27   A    
C48   C108  S    
C68   C71   A    
C46   C106  S    
C3    C47   S    
N7    N16   A    
C56   H11   S    
C97   H44   S    
C56   C58   A    
C102  C106  A    
C8    H66   S    
C42   C47   A    
C5    H59   S    
C69   C70   A    
N22   Ni2   S    
C78   H25   S    
C104  N25   A    
N18   Ni6   S    
C9    H70   S    
N25   Ni4   S    
C57   H13   S    
C44   C48   A    
C85   N6    A    
C13   C74   S    
C52   N31   A    
C39   H8    S    
C22   C26   A    
C9    O6    S    
C10   H73   S    
C84   H36   S    
C4    H53   S    
C43   H34   S    
C103  C107  A    
C33   H2    S    
N9    N32   A    
C90   N10   A    
C12   C73   S    
C103  N24   A    
C6    H61   S    
C32   H23   S    
C91   N11   A    
C35   H4    S    
C45   C107  S    
C47   C56   A    
C27   C28   A    
C55   H10   S    
N19   N29   A    
