data_mof_unit_62732.cif
_audit_creation_date              2012-10-26T20:09:16-0400
_audit_creation_method            fapswitch 2.2
_symmetry_space_group_name_H-M    P1
_symmetry_Int_Tables_number       1
_space_group_crystal_system       triclinic
_cell_length_a                    12.765965
_cell_length_b                    13.919646
_cell_length_c                    15.937624
_cell_angle_alpha                 90.187733
_cell_angle_beta                  92.81602
_cell_angle_gamma                 98.089458
_cell_volume                      2800.36435403

loop_
_atom_site_label
_atom_site_type_symbol
_atom_type_description
_atom_site_fract_x
_atom_site_fract_y
_atom_site_fract_z
_atom_type_partial_charge
C1    C     C_R   0.483458 0.315931 0.499195 0.549321
C2    C     C_2   0.543608 0.977974 0.500446 0.245905
C3    C     C_2   0.456409 0.022027 0.499350 0.243914
C4    C     C_R   0.500629 0.500077 0.340116 0.549569
C5    C     C_1   0.465281 0.125833 0.499194 0.094485
C6    C     C_1   0.534736 0.874169 0.500662 0.096777
C7    C     C_1   0.473809 0.212766 0.499144 0.064918
C8    C     C_2   0.028713 0.474928 0.469133 0.004734
C9    C     C_2   0.970767 0.520652 0.523344 0.177991
C10   C     C_1   0.854165 0.517206 0.516939 0.301774
C11   C     C_1   0.145719 0.481291 0.480481 0.262431
C12   C     C_3   0.385557 0.454205 0.949297 -0.029677
C13   C     C_R   0.516543 0.684070 0.500790 0.551215
C14   C     C_R   0.499402 0.499935 0.659886 0.557442
C15   C     C_3   0.400820 0.447866 0.047808 -0.268102
C16   C     C_3   0.601010 0.452668 0.053331 0.198465
C17   C     C_3   0.589104 0.441004 0.952768 0.373252
C18   C     C_1   0.498104 0.500032 0.748996 0.160996
C19   C     C_3   0.507481 0.507888 0.083607 -0.141102
C20   C     C_2   0.343143 0.353617 0.910988 0.656069
C21   C     C_2   0.296098 0.512567 0.923050 0.627204
C22   C     C_2   0.978276 0.416727 0.395151 0.578372
C23   C     C_3   0.498676 0.501660 0.916677 -0.065125
C24   C     C_2   0.710182 0.502904 0.087774 0.698122
C25   C     C_2   0.418817 0.666148 0.075672 0.630473
C26   C     C_2   0.606586 0.687815 0.093335 0.636624
C27   C     C_3   0.524083 0.612336 0.949301 0.329435
C28   C     C_3   0.515006 0.617903 0.050118 0.006547
C29   C     C_1   0.497651 0.500307 0.824205 0.177825
C30   C     C_1   0.504723 0.504634 0.175968 0.101756
C31   C     C_1   0.502492 0.502054 0.251050 0.120044
C32   C     C_1   0.526201 0.787236 0.500774 0.067810
Cl1   Cl    Cl    0.650721 0.667828 0.914249 -0.319150
Cl2   Cl    Cl    0.327778 0.955953 0.498169 -0.466020
Cl3   Cl    Cl    0.672239 0.044049 0.501603 -0.467336
Cl4   Cl    Cl    0.035864 0.588614 0.609015 -0.455385
Cl5   Cl    Cl    0.589421 0.333046 0.102433 -0.414760
Cl6   Cl    Cl    0.560320 0.315544 0.918609 -0.356625
Cl7   Cl    Cl    0.712834 0.467966 0.901342 -0.335709
Cl8   Cl    Cl    0.442779 0.689293 0.892249 -0.377233
Cu1   Cu    Cu3+1 0.395330 0.493960 0.494700 1.138411
Cu2   Cu    Cu3+1 0.604670 0.506040 0.505300 1.147851
H1    H     H_    0.331008 0.465278 0.080081 0.222018
H2    H     H_    0.400634 0.371796 0.067658 0.227202
H3    H     H_    0.305942 0.271460 0.806037 0.378620
H4    H     H_    0.210157 0.563324 0.827347 0.396307
H5    H     H_    0.847059 0.370949 0.321756 0.393973
H6    H     H_    0.837566 0.605189 0.076188 0.379086
H7    H     H_    0.346495 0.786582 0.074258 0.379887
H8    H     H_    0.711080 0.719280 0.192408 0.370351
N1    N     N_1   0.238030 0.484880 0.486720 -0.150090
N2    N     N_1   0.761970 0.515120 0.513270 -0.148236
O1    O     O_R   0.399110 0.356330 0.494870 -0.489702
O2    O     O_R   0.336297 0.340194 0.823687 -0.635328
O3    O     O_2   0.242955 0.545569 0.974951 -0.425941
O4    O     O_R   0.271292 0.524845 0.837495 -0.605243
O5    O     O_2   0.032554 0.372202 0.352202 -0.436435
O6    O     O_R   0.870232 0.412702 0.373436 -0.662592
O7    O     O_2   0.746083 0.479399 0.156179 -0.411993
O8    O     O_R   0.768280 0.578463 0.045178 -0.585603
O9    O     O_2   0.354982 0.626907 0.123981 -0.488486
O10   O     O_R   0.410564 0.761645 0.051580 -0.544275
O11   O     O_2   0.630758 0.769144 0.064948 -0.335068
O12   O     O_R   0.575900 0.366540 0.503830 -0.477020
O13   O     O_R   0.654837 0.665294 0.170097 -0.697292
O14   O     O_R   0.411570 0.494900 0.374960 -0.493625
O15   O     O_R   0.588350 0.505100 0.383910 -0.473985
O16   O     O_R   0.424100 0.633460 0.496170 -0.477092
O17   O     O_R   0.600890 0.643670 0.505130 -0.488519
O18   O     O_R   0.411650 0.494900 0.616090 -0.473964
O19   O     O_R   0.588430 0.505100 0.625040 -0.481195
O20   O     O_2   0.310070 0.285526 0.955416 -0.419267

loop_
_geom_bond_atom_site_label_1
_geom_bond_atom_site_label_2
_ccdc_geom_bond_type
C2    Cl3   S    
C22   O6    S    
C21   O4    S    
C6    C32   T    
C26   O11   D    
Cu1   Cu2   S    
C26   O13   S    
Cu1   O14   S    
C23   C27   S    
C4    O15   A    
C5    C7    T    
C14   O19   A    
C14   C18   S    
C13   C32   S    
C8    C22   S    
C12   C15   S    
C27   Cl8   S    
C24   O8    S    
C10   N2    T    
C12   C20   S    
C22   O5    D    
C2    C3    D    
C8    C9    D    
C15   H1    S    
C16   C24   S    
C18   C29   T    
C25   O9    D    
C27   Cl1   S    
C25   C28   S    
C15   C19   S    
C19   C28   S    
C14   O18   A    
C12   C23   S    
Cu1   O1    S    
C17   C23   S    
C13   O17   A    
C8    C11   S    
C23   C29   S    
Cu2   O19   S    
C15   H2    S    
H6    O8    S    
Cu1   O16   S    
C9    Cl4   S    
C25   O10   S    
C16   C19   S    
C17   Cl7   S    
Cu2   O15   S    
H3    O2    S    
H8    O13   S    
C4    C31   S    
C11   N1    T    
C1    O12   A    
Cu2   O12   S    
C16   C17   S    
C17   Cl6   S    
C4    O14   A    
C20   O2    S    
C9    C10   S    
H4    O4    S    
C27   C28   S    
C21   O3    D    
C1    O1    A    
C30   C31   T    
C20   O20   D    
H7    O10   S    
C3    Cl2   S    
C3    C5    S    
C1    C7    S    
C19   C30   S    
C26   C28   S    
C12   C21   S    
Cu1   N1    S    
Cu2   O17   S    
C24   O7    D    
C2    C6    S    
C16   Cl5   S    
Cu2   N2    S    
Cu1   O18   S    
H5    O6    S    
C13   O16   A    
