data_mof_unit_24338.cif
_audit_creation_date              2012-12-10T18:58:44-0500
_audit_creation_method            fapswitch 2.2
_symmetry_space_group_name_H-M    P1
_symmetry_Int_Tables_number       1
_space_group_crystal_system       triclinic
_cell_length_a                    13.00452
_cell_length_b                    10.870073
_cell_length_c                    9.542403
_cell_angle_alpha                 90.362202
_cell_angle_beta                  96.006657
_cell_angle_gamma                 90.359226
_cell_volume                      1341.44959324

loop_
_atom_site_label
_atom_site_type_symbol
_atom_type_description
_atom_site_fract_x
_atom_site_fract_y
_atom_site_fract_z
_atom_type_partial_charge
C1    C     C_R   0.498681 0.262780 0.499264 0.807053
C2    C     C_R   0.028013 0.498069 0.567612 0.178129
C3    C     C_R   0.972125 0.496473 0.432454 0.176963
C4    C     C_R   0.864738 0.495613 0.420293 -0.269265
C5    C     C_R   0.868194 0.497663 0.675316 -0.199249
C6    C     C_R   0.975661 0.498159 0.688452 -0.218062
C7    C     C_R   0.483144 0.063571 0.616891 0.083385
C8    C     C_R   0.495384 0.130337 0.496536 -0.088679
C9    C     C_R   0.504841 0.063815 0.371177 -0.216070
C10   C     C_R   0.505033 0.934786 0.372092 -0.201632
C11   C     C_R   0.495842 0.870187 0.498331 -0.109953
C12   C     C_R   0.300535 0.499815 0.473828 0.802941
C13   C     C_R   0.483289 0.939475 0.618270 0.057379
C14   C     C_3   0.475358 0.934693 0.773514 -0.054103
C15   C     C_3   0.473823 0.076674 0.770317 -0.464230
C16   C     C_R   0.588213 0.526856 0.086407 0.262136
C17   C     C_R   0.415875 0.461263 0.062103 -0.085549
C18   C     C_R   0.415829 0.461359 0.913420 -0.087986
C19   C     C_R   0.588594 0.525438 0.939081 0.258242
C20   C     C_3   0.650946 0.640852 0.942005 -0.511434
C21   C     C_3   0.648853 0.643921 0.100668 -0.502730
C22   C     C_R   0.498970 0.737412 0.500107 0.802733
C23   C     C_R   0.699491 0.499147 0.526177 0.807937
C24   C     C_R   0.812294 0.497472 0.541266 -0.049928
C25   C     C_R   0.187786 0.499012 0.458756 -0.049167
C26   C     C_R   0.024455 0.496061 0.311567 -0.217872
C27   C     C_R   0.131933 0.497385 0.324645 -0.197040
C28   C     C_R   0.135399 0.499363 0.579818 -0.272444
Cu1   Cu    Cu3+1 0.499990 0.499980 0.640670 0.932162
Cu2   Cu    Cu3+1 0.500010 0.500020 0.359330 0.938140
H1    H     H_    0.822306 0.493389 0.316389 0.145025
H2    H     H_    0.399257 0.119137 0.790966 0.196012
H3    H     H_    0.543784 0.119814 0.827809 0.183803
H4    H     H_    0.347281 0.431133 0.107276 0.136843
H5    H     H_    0.347162 0.431146 0.848549 0.137302
H6    H     H_    0.729490 0.625406 0.909922 0.187859
H7    H     H_    0.608036 0.716678 0.886741 0.211204
H8    H     H_    0.603688 0.721893 0.137787 0.205558
H9    H     H_    0.829079 0.497248 0.769933 0.147855
H10   H     H_    0.982376 0.494895 0.207320 0.130058
H11   H     H_    0.017702 0.498748 0.792719 0.129503
H12   H     H_    0.171149 0.497059 0.229953 0.147966
H13   H     H_    0.177907 0.500664 0.683835 0.143744
H14   H     H_    0.513613 0.110683 0.273259 0.164610
H15   H     H_    0.513964 0.886436 0.274659 0.158095
N1    N     N_R   0.500660 0.500930 0.148010 -0.185656
N2    N     N_R   0.500660 0.500890 0.852110 -0.185041
O1    O     O_R   0.500000 0.319640 0.618810 -0.578132
O2    O     O_R   0.500010 0.319680 0.381230 -0.586797
O3    O     O_R   0.348990 0.499960 0.599490 -0.598521
O4    O     O_R   0.349000 0.500000 0.361910 -0.592573
O5    O     O_R   0.499990 0.680320 0.618770 -0.591064
O6    O     O_R   0.500000 0.680360 0.381190 -0.581057
O7    O     O_R   0.651000 0.500000 0.638090 -0.586396
O8    O     O_R   0.651010 0.500040 0.400510 -0.585746
H16   H     H_    0.546642 0.898960 0.832618 0.155167
H17   H     H_    0.726471 0.631843 0.159118 0.190806
C29   C     C_3   0.374584 0.874541 0.810997 -0.346321
C30   C     C_3   0.369063 0.876653 0.969909 -0.843601
H18   H     H_    0.434312 0.823881 0.024007 0.247151
H19   H     H_    0.372293 0.972770 0.010431 0.254638
H20   H     H_    0.295419 0.833560 0.994231 0.242929
H21   H     H_    0.306098 0.922222 0.757398 0.204910
H22   H     H_    0.371382 0.777179 0.774880 0.228059

loop_
_geom_bond_atom_site_label_1
_geom_bond_atom_site_label_2
_ccdc_geom_bond_type
C14   H16   S    
C23   C24   S    
C1    O1    A    
C23   O8    A    
Cu1   Cu2   S    
C25   C27   A    
C1    C8    S    
Cu2   O8    S    
C11   C22   S    
C12   O3    A    
C19   C20   S    
C7    C13   A    
C12   C25   S    
Cu2   O4    S    
C10   C11   A    
C18   N2    A    
C10   H15   S    
C7    C15   S    
C2    C3    A    
C30   H18   S    
Cu1   O5    S    
C13   C14   S    
C17   N1    A    
C25   C28   A    
C21   H17   S    
C20   H7    S    
C11   C13   A    
C27   H12   S    
C26   H10   S    
C26   C27   A    
C2    C6    A    
C5    C24   A    
Cu1   N2    S    
C16   C19   A    
C4    C24   A    
C18   H5    S    
Cu2   O2    S    
Cu2   N1    S    
C17   C18   A    
C22   O6    A    
Cu1   O3    S    
C5    H9    S    
C29   H22   S    
C5    C6    A    
C14   C29   S    
Cu2   O6    S    
C19   N2    A    
C30   H19   S    
C4    H1    S    
C7    C8    A    
C17   H4    S    
Cu1   O1    S    
C3    C4    A    
C20   H6    S    
C9    C10   A    
C15   H2    S    
C12   O4    A    
C20   C21   S    
C23   O7    A    
C22   O5    A    
Cu1   O7    S    
C16   N1    A    
C29   H21   S    
C16   C21   S    
C14   C15   S    
C9    H14   S    
C2    C28   A    
C28   H13   S    
C29   C30   S    
C1    O2    A    
C15   H3    S    
C3    C26   A    
C21   H8    S    
C8    C9    A    
C30   H20   S    
C6    H11   S    
