data_mof_unit_45279.cif
_audit_creation_date              2012-12-10T20:53:07-0500
_audit_creation_method            fapswitch 2.2
_symmetry_space_group_name_H-M    P1
_symmetry_Int_Tables_number       1
_space_group_crystal_system       triclinic
_cell_length_a                    18.34146
_cell_length_b                    18.34186
_cell_length_c                    18.341542
_cell_angle_alpha                 59.91473
_cell_angle_beta                  59.918423
_cell_angle_gamma                 59.915569
_cell_volume                      4354.83961391

loop_
_atom_site_label
_atom_site_type_symbol
_atom_type_description
_atom_site_fract_x
_atom_site_fract_y
_atom_site_fract_z
_atom_type_partial_charge
C1    C     C_R   0.389883 0.110178 0.110124 0.477694
C2    C     C_R   0.373728 0.804299 0.782853 -0.079814
C3    C     C_R   0.035023 0.552499 0.910398 0.007635
C4    C     C_R   0.446256 0.089112 0.965410 0.008239
C5    C     C_R   0.553037 0.910609 0.034807 0.007743
C6    C     C_R   0.945867 0.946030 0.553777 0.002810
C7    C     C_R   0.054043 0.054016 0.445962 0.006935
C8    C     C_R   0.946030 0.553777 0.945867 0.002770
C9    C     C_R   0.054016 0.445968 0.054046 0.006900
C10   C     C_R   0.553783 0.945872 0.946026 0.002805
C11   C     C_R   0.445964 0.054041 0.054018 0.006885
C12   C     C_3   0.044851 0.733652 0.096564 -0.259691
C13   C     C_R   0.199579 0.228271 0.614553 -0.081053
C14   C     C_3   0.032227 0.832443 0.064419 -0.447840
C15   C     C_3   0.965492 0.279581 0.903129 -0.285236
C16   C     C_3   0.971087 0.346134 0.925261 -0.399031
C17   C     C_3   0.735277 0.096879 0.045297 -0.259860
C18   C     C_3   0.833757 0.065089 0.033606 -0.447711
C19   C     C_3   0.279347 0.903303 0.964541 -0.285389
C20   C     C_3   0.345814 0.925900 0.969733 -0.398878
C21   C     C_3   0.096722 0.044798 0.734038 -0.259717
C22   C     C_3   0.064779 0.032209 0.832790 -0.447815
C23   C     C_3   0.903399 0.964430 0.279703 -0.285503
C24   C     C_R   0.804218 0.783083 0.373263 -0.079982
C25   C     C_3   0.926025 0.969347 0.346319 -0.398703
C26   C     C_R   0.183644 0.573264 0.288617 0.427436
C27   C     C_R   0.824886 0.415988 0.714799 0.425807
C28   C     C_R   0.572336 0.288788 0.184308 0.427573
C29   C     C_R   0.416219 0.714450 0.824485 0.425694
C30   C     C_R   0.288649 0.183743 0.573154 0.427317
C31   C     C_R   0.714391 0.824668 0.415843 0.425463
C32   C     C_R   0.093391 0.583905 0.315917 0.041674
C33   C     C_R   0.610081 0.889839 0.889843 0.476708
C34   C     C_R   0.912374 0.414397 0.685625 0.041705
C35   C     C_R   0.583761 0.316051 0.093832 0.041708
C36   C     C_R   0.414500 0.685519 0.911977 0.041783
C37   C     C_R   0.315960 0.093466 0.583871 0.041741
C38   C     C_R   0.685536 0.912002 0.414490 0.041856
C39   C     C_R   0.048330 0.636276 0.253456 -0.136062
C40   C     C_R   0.957731 0.370168 0.747135 -0.130679
C41   C     C_R   0.636927 0.253629 0.048717 -0.136402
C42   C     C_R   0.370101 0.747195 0.957166 -0.130579
C43   C     C_R   0.253534 0.048366 0.636377 -0.136098
C44   C     C_R   0.110183 0.110121 0.389882 0.477734
C45   C     C_R   0.747274 0.957073 0.370381 -0.130334
C46   C     C_R   0.092776 0.678281 0.164019 0.024312
C47   C     C_R   0.916330 0.327265 0.837468 0.020304
C48   C     C_R   0.678962 0.164275 0.093320 0.024261
C49   C     C_R   0.327150 0.837448 0.915593 0.020194
C50   C     C_R   0.164126 0.092787 0.678470 0.024286
C51   C     C_R   0.837502 0.915558 0.327315 0.020191
C52   C     C_R   0.183074 0.666744 0.137523 -0.157118
C53   C     C_R   0.828906 0.329177 0.865764 -0.161561
C54   C     C_R   0.666612 0.137809 0.183839 -0.157108
C55   C     C_R   0.889834 0.889847 0.610081 0.476734
C56   C     C_R   0.329172 0.865496 0.828177 -0.161694
C57   C     C_R   0.137616 0.183108 0.666860 -0.157180
C58   C     C_R   0.865469 0.828303 0.328965 -0.161754
C59   C     C_R   0.989706 0.590741 0.464979 -0.144692
C60   C     C_R   0.011625 0.409016 0.535231 -0.142385
C61   C     C_R   0.590689 0.465029 0.989874 -0.145270
C62   C     C_R   0.409047 0.535200 0.011495 -0.142414
C63   C     C_R   0.465021 0.989788 0.590706 -0.144906
C64   C     C_R   0.535192 0.011454 0.409058 -0.142527
C65   C     C_R   0.945174 0.552337 0.555195 0.046003
C66   C     C_R   0.110123 0.389882 0.110183 0.477686
C67   C     C_R   0.056193 0.447385 0.445051 0.048998
C68   C     C_R   0.552339 0.555194 0.945159 0.046044
C69   C     C_R   0.447364 0.445070 0.056244 0.049367
C70   C     C_R   0.555203 0.945150 0.552337 0.045838
C71   C     C_R   0.445052 0.056156 0.447386 0.048878
C72   C     C_R   0.956650 0.460100 0.590958 0.012997
C73   C     C_R   0.045845 0.539282 0.409601 0.012448
C74   C     C_R   0.460144 0.590917 0.956479 0.013010
C75   C     C_R   0.539210 0.409667 0.046063 0.012360
C76   C     C_R   0.590927 0.956479 0.460143 0.012967
C77   C     C_R   0.889847 0.610081 0.889833 0.476679
C78   C     C_R   0.409634 0.045902 0.539252 0.012479
C79   C     C_R   0.111068 0.390392 0.389777 0.540610
C80   C     C_R   0.889313 0.609555 0.610256 0.535834
C81   C     C_R   0.390387 0.389780 0.111086 0.541071
C82   C     C_R   0.609556 0.610255 0.889299 0.535897
C83   C     C_R   0.389777 0.111059 0.390392 0.540631
C84   C     C_R   0.610259 0.889301 0.609556 0.535624
C85   C     C_R   0.178805 0.928702 0.395437 -0.093660
C86   C     C_R   0.820642 0.071762 0.603141 -0.094739
C87   C     C_R   0.928657 0.395566 0.178863 -0.093653
C88   C     C_R   0.228191 0.614592 0.199525 -0.080882
C89   C     C_R   0.071776 0.603093 0.820615 -0.094770
C90   C     C_R   0.394489 0.178441 0.929079 -0.093639
C91   C     C_R   0.604153 0.821018 0.071370 -0.094679
C92   C     C_R   0.212791 0.840913 0.397390 -0.117015
C93   C     C_R   0.786421 0.159767 0.600667 -0.116808
C94   C     C_R   0.840835 0.397595 0.212881 -0.117049
C95   C     C_R   0.159784 0.600612 0.786388 -0.116873
C96   C     C_R   0.395965 0.212241 0.841487 -0.117184
C97   C     C_R   0.602194 0.786992 0.159166 -0.117009
C98   C     C_R   0.159204 0.787337 0.450981 -0.121258
C99   C     C_R   0.783419 0.373557 0.804726 -0.079770
C100  C     C_R   0.840112 0.213246 0.547373 -0.118600
C101  C     C_R   0.787260 0.451176 0.159284 -0.121226
C102  C     C_R   0.213265 0.547322 0.840085 -0.118594
C103  C     C_R   0.449563 0.158663 0.787907 -0.121426
C104  C     C_R   0.548890 0.840673 0.212648 -0.118698
C105  C     C_R   0.071372 0.821273 0.502895 -0.111522
C106  C     C_R   0.928274 0.179013 0.496230 -0.102013
C107  C     C_R   0.821229 0.503007 0.071414 -0.111461
C108  C     C_R   0.179031 0.496187 0.928255 -0.102106
C109  C     C_R   0.501962 0.071029 0.821641 -0.111672
C110  C     C_R   0.613668 0.199767 0.229017 -0.080724
C111  C     C_R   0.497227 0.928632 0.178625 -0.101982
C112  C     C_R   0.034808 0.910739 0.501188 0.001374
C113  C     C_R   0.964978 0.089418 0.498263 0.006640
C114  C     C_R   0.910718 0.501242 0.034831 0.001211
C115  C     C_R   0.089431 0.498237 0.964965 0.006545
C116  C     C_R   0.500714 0.034624 0.910933 0.001364
C117  C     C_R   0.498767 0.965168 0.089216 0.006674
C118  C     C_R   0.089301 0.965212 0.446736 0.008166
C119  C     C_R   0.910414 0.035012 0.552527 0.007626
C120  C     C_R   0.965190 0.446795 0.089329 0.008165
F1    F     F_    0.228388 0.522484 0.348055 -0.605120
F2    F     F_    0.779798 0.459013 0.656358 -0.610718
F3    F     F_    0.520803 0.348192 0.229101 -0.604934
F4    F     F_    0.459394 0.655842 0.779567 -0.610633
F5    F     F_    0.348054 0.228520 0.522246 -0.605279
F6    F     F_    0.655725 0.779865 0.458722 -0.610932
H1    H     H_    0.813190 0.281783 0.545134 0.141929
H2    H     H_    0.338945 0.562503 0.018309 0.131707
H3    H     H_    0.437626 0.982673 0.660918 0.130976
H4    H     H_    0.562492 0.018284 0.338954 0.131763
H5    H     H_    0.223754 0.967068 0.353789 0.122415
H6    H     H_    0.775661 0.033426 0.644572 0.122055
H7    H     H_    0.967029 0.353923 0.223812 0.122297
H8    H     H_    0.033435 0.644522 0.775633 0.121988
H9    H     H_    0.352842 0.223416 0.967413 0.122783
H10   H     H_    0.645590 0.776014 0.033063 0.122424
H11   H     H_    0.281232 0.814187 0.357595 0.123897
H12   H     H_    0.185953 0.718956 0.452835 0.138133
H13   H     H_    0.717742 0.186721 0.639860 0.126209
H14   H     H_    0.814082 0.357868 0.281353 0.123792
H15   H     H_    0.186734 0.639798 0.717702 0.126154
H16   H     H_    0.355804 0.280541 0.814906 0.123799
H17   H     H_    0.641785 0.718461 0.185962 0.126126
H18   H     H_    0.032945 0.776384 0.544479 0.120948
H19   H     H_    0.966756 0.223855 0.454756 0.121037
H20   H     H_    0.776344 0.544589 0.032977 0.120906
H21   H     H_    0.223872 0.454717 0.966744 0.121057
H22   H     H_    0.543559 0.032642 0.776719 0.121339
H23   H     H_    0.281801 0.545084 0.813162 0.141999
H24   H     H_    0.455742 0.967074 0.223500 0.121470
H25   H     H_    0.218435 0.697797 0.068652 0.113966
H26   H     H_    0.795778 0.296982 0.935190 0.112101
H27   H     H_    0.697666 0.068994 0.219310 0.113977
H28   H     H_    0.296932 0.934860 0.794930 0.112176
H29   H     H_    0.068765 0.218448 0.697979 0.114044
H30   H     H_    0.934806 0.795102 0.296615 0.112185
H31   H     H_    0.297927 0.605920 0.178298 0.141231
H32   H     H_    0.715769 0.375278 0.827256 0.136767
H33   H     H_    0.604398 0.178561 0.298921 0.141553
H34   H     H_    0.718855 0.453091 0.186055 0.137786
H35   H     H_    0.375527 0.826649 0.715205 0.136927
H36   H     H_    0.178344 0.298024 0.605826 0.141125
H37   H     H_    0.826503 0.715560 0.374767 0.136768
H38   H     H_    0.978938 0.643697 0.274555 0.104498
H39   H     H_    0.025157 0.369245 0.724677 0.108421
H40   H     H_    0.644952 0.274691 0.979152 0.104456
H41   H     H_    0.369082 0.724927 0.024595 0.108421
H42   H     H_    0.274645 0.978953 0.643861 0.104552
H43   H     H_    0.725058 0.024389 0.369625 0.108468
H44   H     H_    0.993345 0.857715 0.121720 0.147415
H45   H     H_    0.547040 0.813893 0.281033 0.142350
H46   H     H_    0.097841 0.843034 0.029827 0.148203
H47   H     H_    0.994944 0.871138 0.016648 0.136371
H48   H     H_    0.083862 0.709334 0.038553 0.157881
H49   H     H_    0.977970 0.726728 0.125884 0.146526
H50   H     H_    0.007787 0.389743 0.864138 0.164509
H51   H     H_    0.902813 0.388244 0.955300 0.183275
H52   H     H_    0.006995 0.309491 0.974135 0.141817
H53   H     H_    0.931053 0.235352 0.966252 0.135086
H54   H     H_    0.033938 0.236420 0.874694 0.136850
H55   H     H_    0.858712 0.122572 0.995297 0.147186
H56   H     H_    0.451058 0.185275 0.719669 0.138213
H57   H     H_    0.843705 0.030451 0.099535 0.148211
H58   H     H_    0.873210 0.017452 0.996120 0.136132
H59   H     H_    0.711243 0.038699 0.083846 0.157714
H60   H     H_    0.729055 0.126147 0.978100 0.146473
H61   H     H_    0.389557 0.864984 0.006440 0.164815
H62   H     H_    0.387796 0.955889 0.901342 0.182957
H63   H     H_    0.309107 0.974950 0.005438 0.141880
H64   H     H_    0.234946 0.966229 0.930114 0.135150
H65   H     H_    0.236347 0.874864 0.033099 0.136824
H66   H     H_    0.122184 0.993428 0.857905 0.147303
H67   H     H_    0.982503 0.660981 0.437551 0.131110
H68   H     H_    0.030163 0.097837 0.843356 0.148286
H69   H     H_    0.017087 0.994826 0.871644 0.136325
H70   H     H_    0.038612 0.083748 0.709864 0.157849
H71   H     H_    0.126028 0.977898 0.727159 0.146571
H72   H     H_    0.865126 0.005967 0.390143 0.164951
H73   H     H_    0.956015 0.900880 0.388202 0.182999
H74   H     H_    0.975085 0.005026 0.309735 0.141829
H75   H     H_    0.966307 0.930083 0.235228 0.135226
H76   H     H_    0.874983 0.033069 0.236798 0.136762
H77   H     H_    0.018564 0.338878 0.562574 0.131819
H78   H     H_    0.660893 0.437641 0.982793 0.130926
O1    O     O_3   0.250000 0.250000 0.250000 -0.444691
O2    O     O_R   0.865800 0.694910 0.573470 -0.544544
O3    O     O_R   0.305090 0.426530 0.134200 -0.545500
O4    O     O_R   0.694910 0.573470 0.865800 -0.544462
O5    O     O_R   0.426530 0.134200 0.305090 -0.545633
O6    O     O_R   0.573470 0.865800 0.694910 -0.544583
O7    O     O_R   0.134190 0.426530 0.134200 -0.549823
O8    O     O_R   0.865810 0.573470 0.865800 -0.562943
O9    O     O_R   0.426530 0.134200 0.134190 -0.549803
O10   O     O_R   0.573470 0.865800 0.865810 -0.563010
O11   O     O_R   0.134200 0.134190 0.426530 -0.549783
O12   O     O_3   0.750000 0.750000 0.750000 -0.441791
O13   O     O_R   0.865800 0.865810 0.573470 -0.563068
O14   O     O_R   0.426530 0.305080 0.134210 -0.532416
O15   O     O_R   0.573470 0.694920 0.865790 -0.532572
O16   O     O_R   0.305080 0.134210 0.426530 -0.532414
O17   O     O_R   0.694920 0.865790 0.573470 -0.532605
O18   O     O_R   0.134210 0.426530 0.305080 -0.532481
O19   O     O_R   0.865790 0.573470 0.694920 -0.532473
O20   O     O_R   0.305080 0.134200 0.134200 -0.549359
O21   O     O_R   0.694920 0.865800 0.865800 -0.542138
O22   O     O_R   0.134200 0.134200 0.305080 -0.549191
O23   O     O_R   0.865800 0.865800 0.694920 -0.541948
O24   O     O_R   0.134200 0.305080 0.134200 -0.549273
O25   O     O_R   0.865800 0.694920 0.865800 -0.542068
O26   O     O_R   0.134200 0.305090 0.426530 -0.545501
Zn1   Zn    Zn3+2 0.206620 0.206630 0.380140 0.956248
Zn2   Zn    Zn3+2 0.793380 0.793370 0.619860 0.946620
Zn3   Zn    Zn3+2 0.206630 0.380140 0.206620 0.956237
Zn4   Zn    Zn3+2 0.793370 0.619860 0.793380 0.946863
Zn5   Zn    Zn3+2 0.380140 0.206620 0.206630 0.956275
Zn6   Zn    Zn3+2 0.619860 0.793380 0.793370 0.946648
Zn7   Zn    Zn3+2 0.206620 0.206620 0.206620 0.907706
Zn8   Zn    Zn3+2 0.793380 0.793380 0.793380 0.916594

loop_
_geom_bond_atom_site_label_1
_geom_bond_atom_site_label_2
_ccdc_geom_bond_type
C101  C107  A    
C40   C47   A    
C80   O2    A    
C29   F4    S    
O18   Zn3   S    
C26   C32   A    
C83   O16   A    
C15   H53   S    
C103  H56   S    
C94   H14   S    
C87   H7    S    
C36   C42   A    
C19   C20   S    
C1    C11   S    
C17   C48   S    
C15   C47   S    
C6    C55   S    
C14   H44   S    
C54   H27   S    
C82   O4    A    
C28   F3    S    
C92   C98   A    
C13   H36   S    
C55   O13   A    
C38   C76   S    
C43   H42   S    
C53   C99   A    
C48   C54   A    
C57   H29   S    
C29   C36   A    
C35   C75   S    
C98   C105  A    
C23   H75   S    
C1    O20   A    
O11   Zn1   S    
C108  C115  A    
O19   Zn4   S    
O14   Zn5   S    
C14   H47   S    
C33   O21   A    
C84   O17   A    
C61   H78   S    
C84   O6    A    
C64   C71   A    
C13   C57   A    
C45   C51   A    
C68   C74   A    
C15   C16   S    
C100  H1    S    
C87   C94   A    
C46   C52   A    
O12   Zn4   S    
C54   C110  A    
C32   C39   A    
C55   O23   A    
C9    C66   S    
C97   H17   S    
C38   C45   A    
C25   H72   S    
C109  C116  A    
C113  C119  A    
C85   C92   A    
C61   C75   A    
C82   O15   A    
C112  C118  A    
C101  H34   S    
C17   H59   S    
C93   H13   S    
C53   H26   S    
C62   C74   A    
C94   C101  A    
C102  C108  A    
C86   C119  A    
C67   C73   A    
C26   F1    S    
O6    Zn6   S    
C70   C84   S    
O20   Zn7   S    
C59   C73   A    
C4    C90   A    
C77   O8    A    
C95   C102  A    
C8    C114  A    
C47   C53   A    
C108  H21   S    
C16   H50   S    
C23   C25   S    
C103  C109  A    
C30   F5    S    
C65   C80   S    
C21   C22   S    
O9    Zn5   S    
O21   Zn8   S    
C7    C118  A    
C85   C118  A    
C105  H18   S    
C35   C41   A    
C92   H11   S    
C2    H35   S    
C5    C10   A    
C21   C50   S    
C27   F2    S    
C16   H52   S    
C99   H32   S    
C71   C83   S    
C27   C34   A    
O22   Zn7   S    
C91   H10   S    
C23   H76   S    
O2    Zn2   S    
C9    C115  A    
C13   C30   A    
O1    Zn5   S    
C44   O11   A    
C67   C79   S    
C60   C67   A    
C14   H46   S    
C3    C8    A    
C21   H71   S    
C32   C73   S    
C107  H20   S    
C106  C113  A    
C18   H55   S    
C28   C110  A    
C88   H31   S    
O23   Zn8   S    
C59   H67   S    
O7    Zn3   S    
C30   C37   A    
C5    C117  A    
C12   C46   S    
C89   C95   A    
O5    Zn5   S    
C79   O26   A    
C25   H73   S    
C86   C93   A    
C20   H62   S    
C19   C49   S    
C60   H77   S    
C23   C51   S    
C63   C70   A    
C18   H58   S    
C17   H60   S    
C27   C99   A    
C41   H40   S    
C17   C18   S    
C64   C76   A    
C51   C58   A    
C5    C91   A    
C7    C44   S    
C91   C97   A    
C4    C11   A    
O1    Zn7   S    
C106  H19   S    
C93   C100  A    
C40   H39   S    
C83   O5    A    
C36   C74   S    
C12   H49   S    
C56   H28   S    
C105  C112  A    
C98   H12   S    
C95   H15   S    
C104  H45   S    
C1    O9    A    
C8    C77   S    
O12   Zn6   S    
C34   C40   A    
C37   C43   A    
O1    Zn1   S    
C24   H37   S    
C69   C75   A    
C22   H66   S    
C11   C117  A    
C111  H24   S    
C34   C72   S    
C6    C119  A    
C20   H63   S    
C10   C116  A    
C16   H51   S    
O3    Zn3   S    
C79   O18   A    
C12   H48   S    
C19   H64   S    
C107  C114  A    
C28   C35   A    
C89   H8    S    
O16   Zn1   S    
C59   C65   A    
C50   C57   A    
C6    C112  A    
O15   Zn6   S    
C4    C116  A    
O10   Zn6   S    
C81   O3    A    
C12   C14   S    
C45   H43   S    
C104  C111  A    
O8    Zn4   S    
C33   O10   A    
C43   C50   A    
C90   C96   A    
C62   H2    S    
C100  C106  A    
C65   C72   A    
C37   C78   S    
C77   O25   A    
C66   O7    A    
C31   C38   A    
C3    C89   A    
C111  C117  A    
C68   C82   S    
C7    C113  A    
O1    Zn3   S    
C39   H38   S    
C24   C31   A    
O12   Zn8   S    
O24   Zn7   S    
O13   Zn2   S    
C49   C56   A    
C3    C115  A    
C85   H5    S    
C80   O19   A    
C70   C76   A    
C90   H9    S    
C61   C68   A    
C86   H6    S    
C102  H23   S    
C15   H54   S    
C18   H57   S    
C52   H25   S    
C81   O14   A    
O17   Zn2   S    
O12   Zn2   S    
C41   C48   A    
C39   C46   A    
C10   C33   S    
C63   H3    S    
C21   H70   S    
O26   Zn1   S    
C22   H69   S    
C52   C88   A    
C97   C104  A    
C69   C81   S    
C42   C49   A    
C96   H16   S    
C58   H30   S    
C109  H22   S    
C26   C88   A    
C42   H41   S    
C87   C120  A    
C2    C29   A    
C62   C69   A    
C24   C58   A    
C64   H4    S    
C66   O24   A    
C25   H74   S    
C9    C120  A    
C60   C72   A    
C22   H68   S    
C2    C56   A    
C31   F6    S    
O25   Zn8   S    
C96   C103  A    
O4    Zn4   S    
C44   O22   A    
C71   C78   A    
C114  C120  A    
C110  H33   S    
C19   H65   S    
C20   H61   S    
C63   C78   A    
