data_mof_unit_30962.cif
_audit_creation_date              2012-12-10T20:42:42-0500
_audit_creation_method            fapswitch 2.2
_symmetry_space_group_name_H-M    P1
_symmetry_Int_Tables_number       1
_space_group_crystal_system       triclinic
_cell_length_a                    8.892126
_cell_length_b                    10.67573
_cell_length_c                    9.915269
_cell_angle_alpha                 90.052081
_cell_angle_beta                  90.879144
_cell_angle_gamma                 90.412467
_cell_volume                      941.120177377

loop_
_atom_site_label
_atom_site_type_symbol
_atom_type_description
_atom_site_fract_x
_atom_site_fract_y
_atom_site_fract_z
_atom_type_partial_charge
C1    C     C_R   0.509457 0.260053 0.499657 0.869983
C2    C     C_R   0.369033 0.484636 0.927172 0.201981
C3    C     C_3   0.260623 0.377895 0.919177 -0.505861
C4    C     C_R   0.218895 0.500010 0.499349 0.948318
C5    C     C_3   0.263069 0.375294 0.072748 -0.499978
C6    C     C_R   0.506872 0.739671 0.500208 0.919605
C7    C     C_R   0.781124 0.500161 0.500673 0.921258
C8    C     C_1   0.065460 0.500132 0.499119 -0.215707
C9    C     C_1   0.934561 0.500185 0.500997 -0.216051
C10   C     C_R   0.537391 0.064033 0.621687 0.064569
C11   C     C_R   0.541691 0.128767 0.499623 -0.165804
C12   C     C_R   0.579793 0.932301 0.383811 -0.222488
C13   C     C_R   0.582397 0.062341 0.381070 0.082037
C14   C     C_3   0.185516 0.927994 0.608069 -0.778765
C15   C     C_R   0.537370 0.870257 0.501700 -0.144365
C16   C     C_R   0.531708 0.936504 0.621804 0.050062
C17   C     C_3   0.430917 0.930052 0.741457 -0.010521
C18   C     C_3   0.438271 0.073548 0.742696 -0.135252
C19   C     C_R   0.369350 0.483703 0.068939 0.210801
C20   C     C_R   0.624200 0.533827 0.075223 -0.126613
C21   C     C_R   0.624883 0.535487 0.932487 0.111436
H1    H     H_    0.309312 0.293696 0.872508 0.223802
H2    H     H_    0.523814 0.161525 0.213366 0.204696
H3    H     H_    0.224835 0.851921 0.798707 0.226566
H4    H     H_    0.099833 0.856764 0.577982 0.237443
H5    H     H_    0.249556 0.953833 0.517097 0.247325
H6    H     H_    0.125788 0.011385 0.646496 0.221054
H7    H     H_    0.622960 0.077281 0.873505 0.194067
H8    H     H_    0.456575 0.105740 0.945479 0.176994
H9    H     H_    0.733016 0.646206 0.798695 0.223094
H10   H     H_    0.816442 0.502361 0.831807 0.218688
H11   H     H_    0.153473 0.400960 0.117164 0.208315
H12   H     H_    0.315537 0.289654 0.115605 0.203231
H13   H     H_    0.600618 0.881045 0.291612 0.179740
H14   H     H_    0.487616 0.884099 0.829000 0.120532
H15   H     H_    0.331408 0.123481 0.722026 0.173496
H16   H     H_    0.724974 0.559623 0.131403 0.166987
H17   H     H_    0.150183 0.406614 0.875682 0.203816
H18   H     H_    0.702284 0.190446 0.274638 0.207935
N1    N     N_R   0.499010 0.499140 0.142800 -0.128148
N2    N     N_R   0.499010 0.499180 0.857150 -0.116559
N3    N     N_3   0.620156 0.121690 0.256300 -0.463086
N4    N     N_2   0.282270 0.876043 0.712890 -0.273552
N5    N     N_3   0.520666 0.123936 0.860069 -0.444103
N6    N     N_3   0.759573 0.578877 0.871435 -0.475876
O1    O     O_R   0.500020 0.316790 0.614690 -0.595338
O2    O     O_R   0.500000 0.316760 0.385350 -0.632261
O3    O     O_R   0.285350 0.500020 0.614650 -0.611760
O4    O     O_R   0.285340 0.499980 0.385310 -0.611491
O5    O     O_R   0.500000 0.683240 0.614650 -0.615809
O6    O     O_R   0.499980 0.683210 0.385310 -0.628725
O7    O     O_R   0.714660 0.500020 0.614690 -0.642980
O8    O     O_R   0.714650 0.499980 0.385350 -0.627084
Zn1   Zn    Zn3+2 0.500010 0.500020 0.653130 0.941231
Zn2   Zn    Zn3+2 0.499990 0.499980 0.346870 0.929112

loop_
_geom_bond_atom_site_label_1
_geom_bond_atom_site_label_2
_ccdc_geom_bond_type
C17   N4    S    
C5    C19   S    
C18   N5    S    
C6    O6    A    
H9    N6    S    
O6    Zn2   S    
C1    C11   S    
C12   C15   A    
C4    O4    A    
C4    C8    S    
N1    Zn2   S    
C5    H11   S    
C2    C3    S    
C2    C19   A    
H8    N5    S    
C10   C16   A    
C14   H5    S    
O3    Zn1   S    
C20   H16   S    
C11   C13   A    
N2    Zn1   S    
O1    Zn1   S    
O5    Zn1   S    
H2    N3    S    
C18   H15   S    
C10   C18   S    
C21   N2    A    
C1    O2    A    
C13   N3    S    
O7    Zn1   S    
C7    O7    A    
C17   C18   S    
H18   N3    S    
C21   N6    S    
C10   C11   A    
O8    Zn2   S    
C14   H4    S    
H10   N6    S    
C14   H6    S    
C1    O1    A    
C19   N1    A    
C7    O8    A    
C2    N2    A    
C12   H13   S    
C15   C16   A    
C20   C21   A    
C14   N4    S    
O2    Zn2   S    
C4    O3    A    
C7    C9    S    
H3    N4    S    
C8    C9    T    
C3    H1    S    
C17   H14   S    
C12   C13   A    
C6    C15   S    
O4    Zn2   S    
C20   N1    A    
H7    N5    S    
C6    O5    A    
C3    H17   S    
C16   C17   S    
C3    C5    S    
C5    H12   S    
