data_mof_unit_58526.cif
_audit_creation_date              2012-12-11T14:21:10-0500
_audit_creation_method            fapswitch 2.2
_symmetry_space_group_name_H-M    P1
_symmetry_Int_Tables_number       1
_space_group_crystal_system       triclinic
_cell_length_a                    11.504497
_cell_length_b                    11.58849
_cell_length_c                    19.445432
_cell_angle_alpha                 90.577889
_cell_angle_beta                  89.453154
_cell_angle_gamma                 59.617005
_cell_volume                      2235.98545438

loop_
_atom_site_label
_atom_site_type_symbol
_atom_type_description
_atom_site_fract_x
_atom_site_fract_y
_atom_site_fract_z
_atom_type_partial_charge
C1    C     C_R   0.640601 0.118104 0.598978 0.543242
C2    C     C_1   0.651710 0.682785 0.663706 0.003381
C3    C     C_1   0.149697 0.187100 0.863724 0.006204
C4    C     C_1   0.231720 0.143196 0.735902 -0.031119
C5    C     C_1   0.192042 0.162362 0.805541 -0.027247
C6    C     C_1   0.262026 0.131672 0.675917 0.002193
C7    C     C_1   0.678409 0.190411 0.861110 0.005453
C8    C     C_1   0.657650 0.168243 0.729030 -0.031927
C9    C     C_1   0.665130 0.180770 0.800527 -0.030470
C10   C     C_1   0.652205 0.151095 0.668420 0.002113
C11   C     C_R   0.690526 0.592219 0.207717 -0.007686
C12   C     C_R   0.613856 0.743251 0.597780 0.532868
C13   C     C_R   0.571814 0.621666 0.245749 0.002754
C14   C     C_R   0.584274 0.601234 0.316632 0.026703
C15   C     C_R   0.794550 0.599436 0.314558 -0.152445
C16   C     C_R   0.805194 0.570447 0.244041 -0.155001
C17   C     C_R   0.439850 0.679664 0.218817 -0.044554
C18   C     C_R   0.332038 0.697290 0.260381 -0.051728
C19   C     C_R   0.355260 0.648578 0.326933 -0.126983
C20   C     C_R   0.483653 0.591500 0.353376 -0.097663
C21   C     C_R   0.677242 0.626845 0.350142 -0.000976
C22   C     C_R   0.164626 0.181293 0.187120 0.003591
C23   C     C_R   0.299297 0.119716 0.604882 0.559271
C24   C     C_R   0.203917 0.262113 0.221413 -0.089790
C25   C     C_R   0.186603 0.275602 0.293016 0.003339
C26   C     C_R   0.178023 0.069896 0.294630 -0.118675
C27   C     C_R   0.158150 0.079958 0.223841 0.350085
C28   C     C_R   0.244176 0.341439 0.185506 -0.044432
C29   C     C_R   0.237313 0.452009 0.217488 0.373844
C30   C     C_R   0.193235 0.481932 0.285645 -0.121335
C31   C     C_R   0.167469 0.395581 0.323264 -0.137958
C32   C     C_R   0.189273 0.168907 0.330694 -0.047339
C33   C     C_R   0.652180 0.182884 0.187295 -0.005499
C34   C     C_R   0.643529 0.106151 0.399464 0.549030
C35   C     C_R   0.712282 0.050048 0.208311 0.036762
C36   C     C_R   0.735825 0.022737 0.278845 0.038249
C37   C     C_R   0.580447 0.260570 0.303649 -0.153044
C38   C     C_R   0.580503 0.287685 0.234549 -0.141125
C39   C     C_R   0.761375 0.944299 0.159289 -0.069815
C40   C     C_R   0.852333 0.814723 0.178107 -0.071117
C41   C     C_R   0.893015 0.789672 0.245719 -0.110860
C42   C     C_R   0.834201 0.890059 0.296096 -0.087411
C43   C     C_R   0.661855 0.130262 0.327414 -0.000166
C44   C     C_R   0.085304 0.229315 0.929632 0.532790
C45   C     C_R   0.624759 0.724064 0.408255 0.543327
C46   C     C_R   0.710097 0.545601 0.922421 0.556527
C47   C     C_R   0.707937 0.206190 0.930416 0.530923
C48   C     C_R   0.089103 0.231621 0.123131 0.542716
C49   C     C_R   0.705351 0.557276 0.134063 0.553286
C50   C     C_R   0.702847 0.210180 0.124541 0.530954
C51   C     C_R   0.242933 0.142146 0.401052 0.554161
C52   C     C_1   0.700702 0.579936 0.851421 0.001002
C53   C     C_1   0.673799 0.643771 0.721845 -0.028055
C54   C     C_1   0.690828 0.607575 0.791480 -0.029654
Cr1   Cr    Cr6+3 0.404720 0.198220 0.499960 1.017345
Cr2   Cr    Cr6+3 0.698290 0.897110 0.500380 1.013089
Cr3   Cr    Cr6+3 0.396970 0.904720 0.499610 1.024541
Cr4   Cr    Cr6+3 0.926180 0.151990 0.028120 1.084758
Cr5   Cr    Cr6+3 0.921330 0.451820 0.027470 1.029741
Cr6   Cr    Cr6+3 0.626260 0.446870 0.028710 1.056842
H1    H     H_    0.873658 0.606408 0.340425 0.113006
H2    H     H_    0.173285 0.574449 0.309005 0.099269
H3    H     H_    0.127132 0.426976 0.374909 0.142071
H4    H     H_    0.520178 0.342329 0.339175 0.138974
H5    H     H_    0.734438 0.963160 0.105642 0.121150
H6    H     H_    0.530776 0.390824 0.218661 0.187555
H7    H     H_    0.895179 0.734749 0.139882 0.150130
H8    H     H_    0.968409 0.690754 0.259524 0.111283
H9    H     H_    0.875130 0.860142 0.346466 0.147792
H10   H     H_    0.414313 0.723391 0.168600 0.192830
H11   H     H_    0.899500 0.540074 0.217239 0.144288
H12   H     H_    0.230557 0.748089 0.240897 0.215123
H13   H     H_    0.273011 0.663926 0.360366 0.096441
H14   H     H_    0.498126 0.561045 0.406621 0.124590
H15   H     H_    0.181777 0.986523 0.321342 0.146968
H16   H     H_    0.273217 0.322461 0.131584 0.152561
O1    O     O_R   0.267740 0.231960 0.575440 -0.503420
O2    O     O_R   0.685970 0.784660 0.430010 -0.503636
O3    O     O_R   0.502530 0.767000 0.423990 -0.513346
O4    O     O_R   0.288330 0.026350 0.429250 -0.489728
O5    O     O_3   0.499990 0.000020 0.499980 -0.267492
O6    O     O_R   0.821500 0.119340 0.952830 -0.506084
O7    O     O_R   0.037130 0.162530 0.957360 -0.494387
O8    O     O_R   0.056440 0.344740 0.951340 -0.510496
O9    O     O_R   0.797900 0.560360 0.957470 -0.481008
O10   O     O_R   0.596130 0.579390 0.952730 -0.487237
O11   O     O_R   0.639060 0.321160 0.958670 -0.510206
O12   O     O_R   0.527280 0.186640 0.570530 -0.510530
O13   O     O_R   0.821240 0.124200 0.104370 -0.474847
O14   O     O_R   0.036890 0.167040 0.097840 -0.419315
O15   O     O_R   0.056180 0.349610 0.102880 -0.543377
O16   O     O_R   0.797660 0.564870 0.097950 -0.499601
O17   O     O_R   0.595880 0.584250 0.104270 -0.511091
O18   O     O_R   0.638830 0.325670 0.099150 -0.505666
O19   O     O_3   0.824590 0.350230 0.028100 -0.302575
O20   O     O_R   0.728090 0.003450 0.576380 -0.500609
O21   O     O_R   0.682970 0.789190 0.570490 -0.498536
O22   O     O_R   0.499290 0.771880 0.575530 -0.517085
O23   O     O_R   0.285330 0.030870 0.569730 -0.488011
O24   O     O_R   0.270980 0.227080 0.423890 -0.516355
O25   O     O_R   0.530280 0.182120 0.430050 -0.496697
O26   O     O_R   0.731330 0.998570 0.424830 -0.532584
F1    F     F_    0.261744 0.535709 0.180216 -0.664196
F2    F     F_    0.129722 0.992671 0.191874 -0.632930

loop_
_geom_bond_atom_site_label_1
_geom_bond_atom_site_label_2
_ccdc_geom_bond_type
C25   C31   A    
C23   O23   A    
C26   C32   A    
C41   C42   A    
Cr3   O3    S    
C22   C48   S    
C35   C36   A    
C44   O7    A    
C2    C12   S    
Cr2   O5    S    
C53   C54   S    
C26   C27   A    
C29   C30   A    
C14   C21   A    
C28   C29   A    
Cr4   O6    S    
C30   C31   A    
Cr1   O1    S    
C6    C23   S    
C15   C16   A    
Cr3   O23   S    
C46   C52   S    
C27   F2    S    
Cr2   O2    S    
C29   F1    S    
C7    C9    T    
C18   C19   A    
C47   O6    A    
Cr1   O12   S    
C51   O4    A    
C36   C42   A    
C38   H6    S    
C8    C9    S    
C48   O15   A    
Cr1   O24   S    
C45   O2    A    
Cr1   O5    S    
C12   O22   A    
C46   O9    A    
Cr6   O17   S    
C25   C32   A    
C17   H10   S    
C48   O14   A    
C13   C14   A    
C39   H5    S    
Cr3   O4    S    
C16   H11   S    
Cr5   O19   S    
Cr2   O21   S    
Cr6   O11   S    
C52   C54   T    
C26   H15   S    
C41   H8    S    
C21   C45   S    
C18   H12   S    
C3    C44   S    
C34   O25   A    
C34   C43   S    
C14   C20   A    
C19   H13   S    
Cr5   O8    S    
C4    C6    T    
C39   C40   A    
Cr6   O10   S    
C50   O18   A    
Cr5   O15   S    
C3    C5    T    
C33   C50   S    
C40   H7    S    
C42   H9    S    
C23   O1    A    
C47   O11   A    
C37   C43   A    
C35   C39   A    
Cr4   O19   S    
Cr5   O9    S    
C32   C51   S    
C37   C38   A    
C11   C49   S    
C31   H3    S    
C11   C16   A    
C50   O13   A    
C17   C18   A    
C15   H1    S    
C20   H14   S    
C45   O3    A    
C34   O26   A    
C24   C25   A    
Cr4   O14   S    
C12   O21   A    
C40   C41   A    
C22   C27   A    
C30   H2    S    
C22   C24   A    
C49   O16   A    
C28   H16   S    
C37   H4    S    
C51   O24   A    
Cr2   O20   S    
C1    C10   S    
C24   C28   A    
C4    C5    S    
C44   O8    A    
C2    C53   T    
Cr1   O25   S    
C33   C38   A    
C13   C17   A    
C19   C20   A    
Cr2   O26   S    
Cr4   O7    S    
C11   C13   A    
C1    O12   A    
C1    O20   A    
Cr3   O22   S    
C33   C35   A    
Cr3   O5    S    
Cr5   O16   S    
Cr4   O13   S    
Cr6   O19   S    
C15   C21   A    
C8    C10   T    
C36   C43   A    
C49   O17   A    
C7    C47   S    
C46   O10   A    
Cr6   O18   S    
