data_mof_unit_12353.cif
_audit_creation_date              2012-10-26T21:11:03-0400
_audit_creation_method            fapswitch 2.2
_symmetry_space_group_name_H-M    P1
_symmetry_Int_Tables_number       1
_space_group_crystal_system       triclinic
_cell_length_a                    10.879719
_cell_length_b                    10.887423
_cell_length_c                    13.115509
_cell_angle_alpha                 90.456691
_cell_angle_beta                  89.943993
_cell_angle_gamma                 89.724624
_cell_volume                      1553.49152601

loop_
_atom_site_label
_atom_site_type_symbol
_atom_type_description
_atom_site_fract_x
_atom_site_fract_y
_atom_site_fract_z
_atom_type_partial_charge
C1    C     C_R   0.490920 0.259776 0.499405 0.554439
C2    C     C_R   0.688153 0.819189 0.690073 -0.113312
C3    C     C_R   0.423166 0.114740 0.311884 0.027297
C4    C     C_R   0.576859 0.885259 0.688095 0.027289
C5    C     C_R   0.487959 0.094863 0.220434 -0.135619
C6    C     C_R   0.512111 0.905138 0.779567 -0.135634
C7    C     C_R   0.442400 0.140715 0.128591 -0.093887
C8    C     C_R   0.557703 0.859267 0.871388 -0.093895
C9    C     C_R   0.331509 0.206141 0.127160 0.258030
C10   C     C_R   0.668583 0.793820 0.872776 0.258030
C11   C     C_R   0.480860 0.932577 0.410798 -0.154732
C12   C     C_R   0.509071 0.740224 0.500594 0.554436
C13   C     C_R   0.519118 0.067422 0.589200 -0.154727
C14   C     C_R   0.510311 0.872978 0.501632 -0.003959
C15   C     C_R   0.489671 0.127022 0.498365 -0.003960
C16   C     C_R   0.259673 0.507768 0.499945 0.554541
C17   C     C_R   0.740327 0.492232 0.500055 0.554540
C18   C     C_R   0.532626 0.940897 0.591811 -0.022132
C19   C     C_R   0.467361 0.059103 0.408183 -0.022135
C20   C     C_1   0.499972 0.500032 0.173557 0.177950
C21   C     C_1   0.500033 0.499970 0.826443 0.177996
C22   C     C_1   0.499994 0.500023 0.050688 0.084930
C23   C     C_R   0.872937 0.491804 0.500370 -0.007170
C24   C     C_1   0.500017 0.499981 0.949312 0.084965
C25   C     C_R   0.223479 0.795253 0.261787 -0.147008
C26   C     C_R   0.776533 0.204703 0.738149 -0.147020
C27   C     C_R   0.174835 0.731337 0.344453 -0.084624
C28   C     C_R   0.825173 0.268641 0.655504 -0.084631
C29   C     C_R   0.118060 0.617110 0.328962 0.000243
C30   C     C_R   0.881941 0.382862 0.671023 0.000233
C31   C     C_R   0.111067 0.567629 0.229887 -0.041014
C32   C     C_R   0.888932 0.432309 0.770108 -0.040997
C33   C     C_R   0.161923 0.630947 0.147598 0.279468
C34   C     C_R   0.127063 0.508200 0.499632 -0.007167
C35   C     C_R   0.838075 0.368969 0.852377 0.279473
C36   C     C_R   0.218057 0.744749 0.163673 -0.070195
C37   C     C_R   0.781951 0.255175 0.836273 -0.070199
C38   C     C_R   0.933102 0.542719 0.416580 -0.143397
C39   C     C_R   0.066897 0.457287 0.583422 -0.143391
C40   C     C_R   0.939971 0.447179 0.584403 -0.036129
C41   C     C_R   0.060028 0.552820 0.415597 -0.036126
C42   C     C_R   0.266682 0.226731 0.217901 -0.067157
C43   C     C_R   0.733370 0.773237 0.782013 -0.067146
C44   C     C_R   0.311866 0.180797 0.309864 -0.113331
Cl1   Cl    Cl    0.153182 0.569155 0.023948 -0.495218
Cl2   Cl    Cl    0.846799 0.430725 0.976040 -0.495223
Cl3   Cl    Cl    0.272580 0.259887 0.011299 -0.556606
Cl4   Cl    Cl    0.727547 0.740032 0.988607 -0.556575
Cu1   Cu    Cu3+1 0.499990 0.499990 0.592680 1.009141
Cu2   Cu    Cu3+1 0.500010 0.500010 0.407320 1.009121
H1    H     H_    0.256367 0.794653 0.100134 0.146725
H2    H     H_    0.507391 0.875649 0.941496 0.140783
H3    H     H_    0.264035 0.884708 0.273454 0.122163
H4    H     H_    0.735983 0.115256 0.726460 0.122172
H5    H     H_    0.179336 0.771721 0.420102 0.115549
H6    H     H_    0.820674 0.228284 0.579846 0.115552
H7    H     H_    0.066029 0.480422 0.216793 0.157347
H8    H     H_    0.933967 0.519510 0.783225 0.157386
H9    H     H_    0.180588 0.276870 0.217092 0.147966
H10   H     H_    0.819459 0.723088 0.782787 0.147927
H11   H     H_    0.259565 0.195446 0.379258 0.110192
H12   H     H_    0.743642 0.205255 0.899796 0.146731
H13   H     H_    0.740421 0.804540 0.620661 0.110182
H14   H     H_    0.464248 0.879792 0.341849 0.137019
H15   H     H_    0.535732 0.120205 0.658147 0.137031
H16   H     H_    0.880724 0.579016 0.353137 0.157859
H17   H     H_    0.119275 0.420988 0.646865 0.157865
H18   H     H_    0.573285 0.043210 0.220253 0.138730
H19   H     H_    0.426791 0.956804 0.779781 0.138750
H20   H     H_    0.492745 0.124330 0.058501 0.140789
N1    N     N_1   0.500030 0.500030 0.268070 -0.171782
N2    N     N_1   0.499970 0.499970 0.731930 -0.171778
O1    O     O_R   0.499980 0.319630 0.578260 -0.502270
O2    O     O_R   0.500020 0.680370 0.421740 -0.502280
O3    O     O_R   0.500000 0.319650 0.421740 -0.485383
O4    O     O_R   0.500000 0.680350 0.578260 -0.485385
O5    O     O_R   0.319630 0.500000 0.578260 -0.493817
O6    O     O_R   0.680370 0.500000 0.421740 -0.493818
O7    O     O_R   0.319650 0.500020 0.421740 -0.495007
O8    O     O_R   0.680350 0.499980 0.578260 -0.495005

loop_
_geom_bond_atom_site_label_1
_geom_bond_atom_site_label_2
_ccdc_geom_bond_type
C6    H19   S    
C12   O2    A    
C27   C29   A    
C33   Cl1   S    
C14   C18   A    
C32   H8    S    
Cu2   O7    S    
C7    H20   S    
C37   H12   S    
C28   H6    S    
C13   H15   S    
C15   C19   A    
C11   C19   A    
C9    C42   A    
C17   C23   S    
C13   C18   A    
C35   C37   A    
C25   H3    S    
Cu2   O2    S    
C11   C14   A    
C27   H5    S    
C23   C40   A    
C26   H4    S    
C33   C36   A    
C16   O5    A    
C16   C34   S    
C38   H16   S    
Cu1   N2    S    
C31   C33   A    
C20   N1    T    
C3    C19   S    
C1    C15   S    
C8    H2    S    
C4    C18   S    
C34   C41   A    
C42   C44   A    
C5    H18   S    
Cu2   O6    S    
C3    C44   A    
C21   N2    T    
C34   C39   A    
C1    O3    A    
C32   C35   A    
C38   C41   A    
C4    C6    A    
C11   H14   S    
C39   C40   A    
C5    C7    A    
C6    C8    A    
C17   O8    A    
C2    C4    A    
Cu2   N1    S    
C2    C43   A    
Cu1   O4    S    
C30   C40   S    
C36   H1    S    
C43   H10   S    
C20   C22   S    
C9    Cl3   S    
C13   C15   A    
C12   O4    A    
C10   Cl4   S    
C22   C24   T    
C2    H13   S    
C7    C9    A    
C29   C41   S    
C10   C43   A    
C39   H17   S    
C12   C14   S    
C3    C5    A    
C42   H9    S    
C26   C37   A    
C44   H11   S    
C25   C27   A    
C23   C38   A    
C26   C28   A    
Cu1   O8    S    
C16   O7    A    
C1    O1    A    
C31   H7    S    
C28   C30   A    
C29   C31   A    
Cu2   O3    S    
C30   C32   A    
C17   O6    A    
Cu1   O5    S    
Cu1   O1    S    
C25   C36   A    
C8    C10   A    
Cu1   Cu2   S    
C21   C24   S    
C35   Cl2   S    
