data_mof_unit_10774.cif
_audit_creation_date              2012-12-10T17:17:52-0500
_audit_creation_method            fapswitch 2.2
_symmetry_space_group_name_H-M    P1
_symmetry_Int_Tables_number       1
_space_group_crystal_system       triclinic
_cell_length_a                    14.59457
_cell_length_b                    16.17955
_cell_length_c                    9.612016
_cell_angle_alpha                 89.548456
_cell_angle_beta                  92.543039
_cell_angle_gamma                 90.109393
_cell_volume                      2267.41124414

loop_
_atom_site_label
_atom_site_type_symbol
_atom_type_description
_atom_site_fract_x
_atom_site_fract_y
_atom_site_fract_z
_atom_type_partial_charge
C1    C     C_R   0.383965 0.879099 0.498009 0.789701
C2    C     C_R   0.384440 0.121953 0.498046 0.808445
C3    C     C_R   0.883977 0.379090 0.498007 0.789725
C4    C     C_R   0.884439 0.621952 0.498047 0.808453
C5    C     C_R   0.266635 0.213620 0.373382 0.261202
C6    C     C_R   0.260002 0.794332 0.380093 0.245043
C7    C     C_R   0.766629 0.713615 0.373387 0.261197
C8    C     C_R   0.760079 0.294272 0.380030 0.244895
C9    C     C_R   0.696099 0.770239 0.381100 -0.239905
C10   C     C_R   0.693495 0.234011 0.389218 -0.246311
C11   C     C_R   0.196109 0.270248 0.381095 -0.239926
C12   C     C_R   0.193439 0.734052 0.389271 -0.246298
C13   C     C_R   0.671987 0.803230 0.507960 -0.198414
C14   C     C_R   0.684657 0.187637 0.510674 -0.175442
C15   C     C_R   0.171997 0.303237 0.507957 -0.198413
C16   C     C_R   0.184646 0.687642 0.510692 -0.175450
C17   C     C_R   0.676777 0.976546 0.145074 0.234597
C18   C     C_R   0.176770 0.476541 0.145080 0.234614
C19   C     C_R   0.749985 0.948809 0.064243 0.213758
C20   C     C_R   0.249972 0.448785 0.064255 0.213736
C21   C     C_R   0.742448 0.955031 0.921753 -0.295185
C22   C     C_R   0.242446 0.455025 0.921765 -0.295112
C23   C     C_R   0.662763 0.981926 0.857661 -0.212565
C24   C     C_R   0.162766 0.481932 0.857666 -0.212623
C25   C     C_R   0.581702 0.990288 0.928372 0.084022
C26   C     C_R   0.081703 0.490296 0.928373 0.084033
C27   C     C_R   0.584606 0.989334 0.078447 0.084953
C28   C     C_R   0.084605 0.489337 0.078448 0.084939
C29   C     C_R   0.421845 0.007380 0.069036 -0.143644
C30   C     C_R   0.921845 0.507368 0.069038 -0.143629
C31   C     C_R   0.617540 0.120109 0.503057 0.805378
C32   C     C_R   0.611765 0.875994 0.502571 0.794040
C33   C     C_R   0.117539 0.620108 0.503060 0.805392
C34   C     C_R   0.111771 0.375997 0.502570 0.794005
C35   C     C_R   0.421160 0.006789 0.921009 0.349595
C36   C     C_R   0.921157 0.506765 0.921011 0.349554
C37   C     C_R   0.358032 0.226910 0.745448 -0.145627
C38   C     C_R   0.398453 0.747714 0.707922 -0.149436
C39   C     C_R   0.858010 0.726892 0.745466 -0.145661
C40   C     C_R   0.898447 0.247714 0.707948 -0.149464
C41   C     C_R   0.324469 0.243199 0.875773 -0.186771
C42   C     C_R   0.391971 0.702993 0.831222 -0.163305
C43   C     C_R   0.824442 0.743181 0.875789 -0.186753
C44   C     C_R   0.891956 0.202986 0.831240 -0.163480
C45   C     C_R   0.733422 0.766243 0.886278 -0.148131
C46   C     C_R   0.809974 0.164415 0.860016 -0.161216
C47   C     C_R   0.233445 0.266250 0.886270 -0.148155
C48   C     C_R   0.309991 0.664419 0.860017 -0.161299
C49   C     C_R   0.680243 0.784529 0.765917 -0.147395
C50   C     C_R   0.737416 0.164810 0.760924 -0.175932
C51   C     C_R   0.180260 0.284534 0.765913 -0.147380
C52   C     C_R   0.237430 0.664802 0.760929 -0.175980
C53   C     C_R   0.715943 0.773860 0.632758 0.099669
C54   C     C_R   0.746688 0.200970 0.627540 0.098421
C55   C     C_R   0.215958 0.273869 0.632752 0.099667
C56   C     C_R   0.246690 0.700966 0.627544 0.098433
C57   C     C_R   0.299440 0.231008 0.623982 0.063895
C58   C     C_R   0.323266 0.752607 0.609804 0.057664
C59   C     C_R   0.799424 0.730997 0.623993 0.063886
C60   C     C_R   0.823271 0.252604 0.609811 0.057722
C61   C     C_R   0.320096 0.192632 0.495919 -0.204234
C62   C     C_R   0.323245 0.806981 0.493937 -0.185526
C63   C     C_R   0.820088 0.692626 0.495925 -0.204240
C64   C     C_R   0.823275 0.306958 0.493922 -0.185529
Cu1   Cu    Cu3+1 0.499990 0.000000 0.640660 0.935074
Cu2   Cu    Cu3+1 0.999990 0.500000 0.640660 0.935076
Cu3   Cu    Cu3+1 0.500010 1.000000 0.359340 0.941527
Cu4   Cu    Cu3+1 0.000010 0.500000 0.359340 0.941507
H1    H     H_    0.668421 0.996160 0.750733 0.229017
H2    H     H_    0.168425 0.496162 0.750737 0.229014
H3    H     H_    0.429629 0.210470 0.741488 0.156824
H4    H     H_    0.463188 0.777052 0.688832 0.139991
H5    H     H_    0.929608 0.710454 0.741515 0.156839
H6    H     H_    0.963185 0.277052 0.688873 0.139998
H7    H     H_    0.660792 0.789635 0.284691 0.175867
H8    H     H_    0.647402 0.224038 0.299229 0.174297
H9    H     H_    0.160799 0.289643 0.284688 0.175855
H10   H     H_    0.147314 0.724100 0.299312 0.174306
N1    N     N_R   0.501200 1.000000 0.147910 -0.192214
N2    N     N_R   0.001200 0.500000 0.147910 -0.192207
N3    N     N_R   0.501270 0.000000 0.852040 -0.203087
N4    N     N_R   0.001270 0.500000 0.852040 -0.203092
O1    O     O_R   0.409820 0.909830 0.618810 -0.557630
O2    O     O_R   0.409820 0.090170 0.618810 -0.557741
O3    O     O_R   0.909820 0.409830 0.618810 -0.557576
O4    O     O_R   0.909820 0.590170 0.618810 -0.557805
O5    O     O_R   0.409840 0.909830 0.381240 -0.581866
O6    O     O_R   0.409840 0.090170 0.381240 -0.583886
O7    O     O_R   0.909840 0.409830 0.381240 -0.581882
O8    O     O_R   0.909840 0.590170 0.381240 -0.583862
O9    O     O_R   0.590170 0.090170 0.618760 -0.628992
O10   O     O_R   0.590170 0.909830 0.618760 -0.617263
O11   O     O_R   0.090170 0.590170 0.618760 -0.628985
O12   O     O_R   0.090170 0.409830 0.618760 -0.617254
O13   O     O_R   0.590190 0.090180 0.381190 -0.552885
O14   O     O_R   0.590190 0.909820 0.381190 -0.554236
O15   O     O_R   0.090190 0.590180 0.381190 -0.552869
O16   O     O_R   0.090190 0.409820 0.381190 -0.554276
N5    N     N_2   0.282637 0.181877 0.239048 -0.439818
H11   H     H_    0.349327 0.176451 0.209919 0.266833
C65   C     C_3   0.219144 0.118485 0.190683 -0.714494
H12   H     H_    0.230596 0.104636 0.080024 0.216502
H13   H     H_    0.147191 0.139902 0.197290 0.229841
H14   H     H_    0.229168 0.061374 0.254380 0.226708
N6    N     N_2   0.264836 0.836683 0.250556 -0.430301
H15   H     H_    0.269278 0.900153 0.254278 0.256105
C66   C     C_3   0.324210 0.797093 0.154647 -0.656894
H16   H     H_    0.396807 0.799384 0.194149 0.237781
H17   H     H_    0.318686 0.828574 0.052350 0.225942
H18   H     H_    0.303613 0.731566 0.140225 0.212643
N7    N     N_2   0.782641 0.681880 0.239051 -0.439789
H19   H     H_    0.849334 0.676462 0.209930 0.266839
C67   C     C_3   0.719159 0.618484 0.190670 -0.714482
H20   H     H_    0.730625 0.604637 0.080013 0.216507
H21   H     H_    0.647204 0.639895 0.197261 0.229838
H22   H     H_    0.729184 0.561371 0.254366 0.226712
N8    N     N_2   0.765014 0.336539 0.250423 -0.430233
H23   H     H_    0.769331 0.400021 0.254070 0.256052
C68   C     C_3   0.824661 0.296982 0.154830 -0.656544
H24   H     H_    0.819396 0.328490 0.052525 0.225890
H25   H     H_    0.804115 0.231452 0.140263 0.212564
H26   H     H_    0.897177 0.299269 0.194748 0.237733
H27   H     H_    0.800939 0.942851 0.859413 0.186351
H28   H     H_    0.300933 0.442834 0.859426 0.186368
N9    N     N_2   0.336913 0.017295 0.843304 -0.372558
H29   H     H_    0.306079 0.072901 0.862945 0.244635
C69   C     C_3   0.272564 0.949626 0.851510 -0.697493
H30   H     H_    0.215678 0.959068 0.772495 0.229779
H31   H     H_    0.243116 0.947293 0.956065 0.199633
H32   H     H_    0.306310 0.890069 0.829549 0.256886
N10   N     N_2   0.836896 0.517196 0.843309 -0.372572
H33   H     H_    0.806040 0.572807 0.862852 0.244637
C70   C     C_3   0.772583 0.449500 0.851666 -0.697433
H34   H     H_    0.715632 0.458917 0.772753 0.229747
H35   H     H_    0.743214 0.447153 0.956289 0.199665
H36   H     H_    0.806340 0.389952 0.829659 0.256916
H37   H     H_    0.368382 0.235304 0.968551 0.133360
H38   H     H_    0.449407 0.700757 0.906412 0.132025
H39   H     H_    0.868352 0.735285 0.968571 0.133373
H40   H     H_    0.949389 0.200744 0.906436 0.132054
H41   H     H_    0.705483 0.774644 0.987659 0.157444
H42   H     H_    0.802311 0.133718 0.959140 0.138463
H43   H     H_    0.205507 0.274644 0.987654 0.157438
H44   H     H_    0.302335 0.633729 0.959153 0.138444
H45   H     H_    0.610871 0.804555 0.779501 0.155060
H46   H     H_    0.673957 0.140699 0.795619 0.171714
H47   H     H_    0.110887 0.304555 0.779501 0.155058
H48   H     H_    0.173974 0.640686 0.795630 0.171716
H49   H     H_    0.358267 0.012833 0.120973 0.148892
H50   H     H_    0.858266 0.512807 0.120979 0.148872
N11   N     N_2   0.706750 0.021043 0.265340 -0.355465
H51   H     H_    0.723622 0.081309 0.241172 0.229872
C71   C     C_3   0.769088 0.985376 0.371963 -0.549435
H52   H     H_    0.743842 0.998338 0.476519 0.190397
H53   H     H_    0.837998 0.014161 0.367682 0.204218
H54   H     H_    0.775468 0.917705 0.361423 0.233742
N12   N     N_2   0.206752 0.521061 0.265317 -0.355480
H55   H     H_    0.223619 0.581323 0.241119 0.229839
C72   C     C_3   0.269095 0.485409 0.371951 -0.549448
H56   H     H_    0.243862 0.498397 0.476504 0.190390
H57   H     H_    0.338009 0.514181 0.367629 0.204219
H58   H     H_    0.275458 0.417735 0.361460 0.233740
N13   N     N_2   0.837105 0.926736 0.126220 -0.420560
H59   H     H_    0.856125 0.867246 0.103239 0.254545
C73   C     C_3   0.910519 0.985585 0.106388 -0.715742
H60   H     H_    0.971306 0.967608 0.173272 0.228915
H61   H     H_    0.889273 0.048657 0.136254 0.226683
H62   H     H_    0.930517 0.986347 0.996246 0.223748
N14   N     N_2   0.337072 0.426667 0.126251 -0.420586
H63   H     H_    0.356024 0.367144 0.103371 0.254538
C74   C     C_3   0.410550 0.485440 0.106357 -0.715637
H64   H     H_    0.471313 0.467440 0.173283 0.228875
H65   H     H_    0.389366 0.548549 0.136140 0.226710
H66   H     H_    0.430562 0.486129 0.996218 0.223727

loop_
_geom_bond_atom_site_label_1
_geom_bond_atom_site_label_2
_ccdc_geom_bond_type
C58   C62   A    
Cu1   O10   S    
Cu2   Cu4   S    
C74   H64   S    
C1    O5    A    
C73   H60   S    
C40   C60   A    
C3    O3    A    
C66   H17   S    
N14   H63   S    
C23   H1    S    
C13   C32   S    
C2    O2    A    
N13   H59   S    
C14   C31   S    
C1    C62   S    
Cu2   O3    S    
C16   C56   A    
C70   H34   S    
C53   C59   A    
C24   H2    S    
C46   H42   S    
C54   C60   A    
C3    C64   S    
N6    C66   S    
C4    C63   S    
Cu3   O6    S    
C50   C54   A    
C1    O1    A    
N13   C73   S    
C24   C26   A    
C5    C11   A    
C27   N1    A    
N8    C68   S    
C6    C12   A    
C31   O13   A    
C30   H50   S    
C4    O4    A    
C47   H43   S    
C48   H44   S    
Cu1   O9    S    
C35   N9    S    
C9    C13   A    
Cu4   O15   S    
C11   H9    S    
C17   C19   A    
C38   C58   A    
C11   C15   A    
N12   H55   S    
C12   C16   A    
C7    N7    S    
Cu1   Cu3   S    
C12   H10   S    
C70   H36   S    
Cu4   O8    S    
N11   H51   S    
C72   H57   S    
C2    O6    A    
C51   H47   S    
C56   C58   A    
C71   H53   S    
C15   C34   S    
C51   C55   A    
C2    C61   S    
Cu2   O12   S    
C67   H22   S    
C30   N2    A    
C50   H46   S    
C39   H5    S    
C20   N14   S    
C26   N4    A    
C25   N3    A    
N14   C74   S    
C17   N11   S    
C10   H8    S    
C26   C28   A    
C44   C46   A    
C8    N8    S    
C13   C53   A    
C68   H25   S    
C21   C23   A    
C35   N3    A    
C74   H66   S    
C38   H4    S    
C5    C61   A    
C17   C27   A    
C65   H12   S    
C5    N5    S    
C18   C28   A    
C10   C14   A    
C36   N10   S    
C36   N4    A    
Cu1   O2    S    
C47   C51   A    
C60   C64   A    
C15   C55   A    
C21   H27   S    
C42   C48   A    
C69   H31   S    
C19   C21   A    
C16   C33   S    
Cu2   N4    S    
C74   H65   S    
Cu1   N3    S    
C72   H56   S    
C29   N1    A    
C45   C49   A    
C66   H16   S    
C39   C59   A    
Cu4   O7    S    
C41   C47   A    
C72   H58   S    
C49   H45   S    
N7    C67   S    
C19   N13   S    
C71   H54   S    
C22   H28   S    
C43   C45   A    
C7    C63   A    
C45   H41   S    
Cu2   O11   S    
C8    C10   A    
N5    C65   S    
Cu3   O13   S    
C8    C64   A    
C73   H62   S    
C31   O9    A    
C55   C57   A    
N9    H29   S    
C66   H18   S    
C22   C24   A    
C59   C63   A    
N12   C72   S    
C25   C27   A    
C40   C44   A    
Cu4   N2    S    
C70   H35   S    
C67   H20   S    
C65   H13   S    
C68   H26   S    
C7    C9    A    
C46   C50   A    
N7    H19   S    
C14   C54   A    
C52   H48   S    
C41   H37   S    
C34   O12   A    
C20   C22   A    
N10   C70   S    
C33   O11   A    
Cu2   O4    S    
C39   C43   A    
C68   H24   S    
C4    O8    A    
C57   C61   A    
C69   H30   S    
C43   H39   S    
C65   H14   S    
N6    H15   S    
C29   C35   A    
Cu3   O5    S    
N5    H11   S    
C30   C36   A    
C3    O7    A    
C6    C62   A    
C37   H3    S    
C69   H32   S    
C32   O14   A    
C18   N12   S    
N8    H23   S    
Cu3   O14   S    
C49   C53   A    
C34   O16   A    
C6    N6    S    
C40   H6    S    
C44   H40   S    
C18   C20   A    
N11   C71   S    
C37   C41   A    
C28   N2    A    
Cu4   O16   S    
Cu1   O1    S    
C32   O10   A    
C29   H49   S    
C38   C42   A    
C52   C56   A    
C48   C52   A    
C23   C25   A    
C73   H61   S    
N9    C69   S    
C42   H38   S    
C9    H7    S    
C33   O15   A    
C71   H52   S    
Cu3   N1    S    
C37   C57   A    
N10   H33   S    
C67   H21   S    
