data_mof_unit_63836.cif
_audit_creation_date              2012-12-10T17:56:10-0500
_audit_creation_method            fapswitch 2.2
_symmetry_space_group_name_H-M    P1
_symmetry_Int_Tables_number       1
_space_group_crystal_system       triclinic
_cell_length_a                    30.26627
_cell_length_b                    30.26117
_cell_length_c                    21.647236
_cell_angle_alpha                 89.997157
_cell_angle_beta                  133.692632
_cell_angle_gamma                 90.004155
_cell_volume                      14335.7029399

loop_
_atom_site_label
_atom_site_type_symbol
_atom_type_description
_atom_site_fract_x
_atom_site_fract_y
_atom_site_fract_z
_atom_type_partial_charge
C1    C     C_R   0.309438 0.809946 0.117751 0.850077
C2    C     C_R   0.690563 0.809946 0.882248 0.850064
C3    C     C_R   0.809417 0.309947 0.117752 0.850673
C4    C     C_R   0.190575 0.309946 0.882248 0.850543
C5    C     C_R   0.547389 0.791857 0.001278 -0.026517
C6    C     C_R   0.452596 0.791860 0.998686 -0.026517
C7    C     C_R   0.046833 0.291912 0.000127 -0.024646
C8    C     C_R   0.953489 0.291911 0.000542 -0.024508
C9    C     C_R   0.524383 0.669774 0.002063 -0.071714
C10   C     C_R   0.475606 0.669774 0.997963 -0.071439
C11   C     C_R   0.023578 0.169819 0.000391 -0.054876
C12   C     C_R   0.975510 0.169823 0.997809 -0.053983
C13   C     C_R   0.473965 0.831763 0.993430 0.144844
C14   C     C_R   0.526018 0.831762 0.006513 0.144838
C15   C     C_R   0.974641 0.331845 0.994943 0.144293
C16   C     C_R   0.026065 0.331815 0.006489 0.144243
C17   C     C_R   0.357915 0.837234 0.259626 0.073012
C18   C     C_R   0.642085 0.837237 0.740373 0.073004
C19   C     C_R   0.857915 0.337229 0.259643 0.073553
C20   C     C_R   0.142090 0.337235 0.740366 0.073656
C21   C     C_R   0.339981 0.844788 0.181557 -0.080832
C22   C     C_R   0.660018 0.844787 0.818442 -0.080892
C23   C     C_R   0.839939 0.344793 0.181550 -0.080562
C24   C     C_R   0.160043 0.344790 0.818446 -0.080753
C25   C     C_R   0.348307 0.887381 0.164416 -0.131540
C26   C     C_R   0.651682 0.887375 0.835577 -0.131497
C27   C     C_R   0.848223 0.387397 0.164390 -0.130784
C28   C     C_R   0.151727 0.387383 0.835590 -0.130906
C29   C     C_R   0.381766 0.919369 0.229448 -0.152100
C30   C     C_R   0.618216 0.919360 0.770542 -0.151856
C31   C     C_R   0.881714 0.419376 0.229435 -0.150737
C32   C     C_R   0.118238 0.419361 0.770544 -0.150574
C33   C     C_R   0.403757 0.909688 0.310060 -0.038894
C34   C     C_R   0.596235 0.909685 0.689936 -0.038837
C35   C     C_R   0.903755 0.409682 0.310071 -0.038528
C36   C     C_R   0.096236 0.409681 0.689928 -0.038488
C37   C     C_R   0.385986 0.870134 0.320675 -0.063308
C38   C     C_R   0.614012 0.870138 0.679324 -0.063259
C39   C     C_R   0.885997 0.370125 0.320699 -0.063272
C40   C     C_R   0.114012 0.370133 0.679313 -0.063181
C41   C     C_3   0.424484 0.838427 0.392667 -0.315109
C42   C     C_3   0.575514 0.838431 0.607331 -0.315168
C43   C     C_3   0.924504 0.338413 0.392679 -0.315071
C44   C     C_3   0.075512 0.338422 0.607328 -0.315161
C45   C     C_R   0.335631 0.750276 0.000154 0.805559
C46   C     C_R   0.664369 0.750272 0.999849 0.805572
C47   C     C_R   0.835665 0.250294 0.000225 0.806431
C48   C     C_R   0.164322 0.250301 0.999755 0.806380
C49   C     C_3   0.398176 0.802109 0.325806 0.300866
C50   C     C_3   0.601823 0.802111 0.674192 0.300899
C51   C     C_3   0.898185 0.302100 0.325805 0.301363
C52   C     C_3   0.101823 0.302106 0.674196 0.301316
C53   C     C_R   0.870151 0.745085 0.924737 -0.073021
C54   C     C_R   0.129854 0.745112 0.075269 -0.072980
C55   C     C_R   0.370148 0.245084 0.924732 -0.073118
C56   C     C_R   0.629858 0.245100 0.075275 -0.073081
C57   C     C_R   0.886161 0.746712 0.003390 -0.126086
C58   C     C_R   0.113842 0.746702 0.996613 -0.126081
C59   C     C_R   0.386159 0.246717 0.003385 -0.126080
C60   C     C_R   0.613845 0.246706 0.996619 -0.126079
C61   C     C_R   0.948047 0.742437 0.081630 0.095415
C62   C     C_R   0.051963 0.742382 0.918378 0.095403
C63   C     C_R   0.448046 0.242451 0.081626 0.095464
C64   C     C_R   0.551962 0.242407 0.918383 0.095472
C65   C     C_R   0.993384 0.733536 0.080301 0.014533
C66   C     C_R   0.006628 0.733491 0.919720 0.014542
C67   C     C_R   0.493381 0.233542 0.080296 0.014537
C68   C     C_R   0.506628 0.233507 0.919722 0.014531
C69   C     C_R   0.977078 0.734323 0.001033 0.030214
C70   C     C_R   0.022933 0.734320 0.998987 0.030208
C71   C     C_R   0.477077 0.234328 0.001030 0.030287
C72   C     C_R   0.522932 0.234324 0.998987 0.030277
C73   C     C_R   0.915272 0.736649 0.923601 0.011599
C74   C     C_R   0.084738 0.736679 0.076417 0.011596
C75   C     C_R   0.415270 0.236653 0.923596 0.011642
C76   C     C_R   0.584738 0.236673 0.076419 0.011648
C77   C     C_R   0.055035 0.724276 0.154758 0.203709
C78   C     C_R   0.944980 0.724201 0.845279 0.203704
C79   C     C_R   0.555029 0.224278 0.154754 0.203649
C80   C     C_R   0.444982 0.224221 0.845275 0.203652
C81   C     C_R   0.099898 0.729285 0.153254 -0.211902
C82   C     C_R   0.900116 0.729219 0.846775 -0.211930
C83   C     C_R   0.599895 0.229279 0.153254 -0.211774
C84   C     C_R   0.400115 0.229230 0.846771 -0.211812
C85   C     C_R   0.178004 0.613852 0.829586 -0.044998
C86   C     C_R   0.821903 0.613900 0.170501 -0.045086
C87   C     C_R   0.678364 0.113976 0.829346 -0.046223
C88   C     C_R   0.321526 0.114028 0.170750 -0.046443
C89   C     C_R   0.190328 0.690200 0.882047 0.771152
C90   C     C_R   0.809682 0.690200 0.117948 0.770995
C91   C     C_R   0.690357 0.190201 0.882050 0.772077
C92   C     C_R   0.309645 0.190201 0.117946 0.771984
C93   C     C_R   0.155847 0.656497 0.816287 -0.076516
C94   C     C_R   0.844177 0.656490 0.183686 -0.076381
C95   C     C_R   0.655952 0.156505 0.816281 -0.075347
C96   C     C_R   0.344058 0.156500 0.183697 -0.075193
C97   C     C_R   0.098536 0.666502 0.734047 -0.135803
C98   C     C_R   0.901615 0.666438 0.265800 -0.135910
C99   C     C_R   0.598439 0.166425 0.734232 -0.135569
C100  C     C_R   0.401697 0.166363 0.265618 -0.135674
C101  C     C_R   0.066289 0.634196 0.669257 -0.181016
C102  C     C_R   0.933861 0.634133 0.330597 -0.180921
C103  C     C_R   0.566159 0.134118 0.669447 -0.179996
C104  C     C_R   0.433980 0.134056 0.330408 -0.179910
C105  C     C_R   0.091746 0.591954 0.685095 -0.036521
C106  C     C_R   0.908267 0.591964 0.314911 -0.036743
C107  C     C_R   0.591788 0.091972 0.685072 -0.037201
C108  C     C_R   0.408223 0.091980 0.314931 -0.037429
C109  C     C_R   0.148219 0.583465 0.766158 0.016905
C110  C     C_R   0.851672 0.583535 0.233964 0.016897
C111  C     C_R   0.648537 0.083608 0.765880 0.016859
C112  C     C_R   0.351349 0.083676 0.234244 0.016809
C113  C     C_3   0.195061 0.548422 0.821432 -0.127760
C114  C     C_3   0.804650 0.548573 0.178848 -0.127192
C115  C     C_3   0.695437 0.048578 0.821004 -0.127586
C116  C     C_3   0.304280 0.048720 0.179275 -0.126947
C117  C     C_3   0.229623 0.583394 0.894235 0.110814
C118  C     C_3   0.770125 0.583514 0.105995 0.110951
C119  C     C_3   0.729997 0.083497 0.893896 0.108459
C120  C     C_3   0.269732 0.083618 0.106347 0.108222
C121  C     C_R   0.940526 0.558779 0.380626 0.785031
C122  C     C_R   0.059482 0.558769 0.619387 0.785151
C123  C     C_R   0.440522 0.058782 0.380630 0.784254
C124  C     C_R   0.559486 0.058774 0.619381 0.784354
C125  C     C_R   0.439786 0.941427 0.379687 0.764331
C126  C     C_R   0.560212 0.941426 0.620311 0.764408
C127  C     C_R   0.939788 0.441423 0.379694 0.764778
C128  C     C_R   0.060210 0.441423 0.620306 0.764877
C129  C     C_R   0.163322 0.748854 0.998056 0.868722
C130  C     C_R   0.836678 0.748858 0.001942 0.868574
C131  C     C_R   0.663323 0.248856 0.998059 0.868645
C132  C     C_R   0.336677 0.248860 0.001940 0.868568
C133  C     C_R   0.589166 0.791309 0.991853 0.145085
C134  C     C_R   0.410822 0.791316 0.008114 0.145059
C135  C     C_R   0.088479 0.291329 0.990459 0.144016
C136  C     C_R   0.911846 0.291277 0.010214 0.143643
C137  C     C_R   0.615921 0.751244 0.999689 -0.085402
C138  C     C_R   0.384074 0.751250 0.000307 -0.085365
C139  C     C_R   0.115643 0.251316 0.999123 -0.083635
C140  C     C_R   0.884325 0.251306 0.000831 -0.083184
C141  C     C_R   0.595723 0.711483 0.005311 -0.252053
C142  C     C_R   0.404273 0.711489 0.994709 -0.252007
C143  C     C_R   0.095461 0.211577 0.004834 -0.254063
C144  C     C_R   0.904104 0.211597 0.994330 -0.253445
C145  C     C_R   0.548309 0.710441 0.003336 0.043335
C146  C     C_R   0.451682 0.710443 0.996674 0.043332
C147  C     C_R   0.047025 0.210495 0.000708 0.038391
C148  C     C_R   0.952498 0.210497 0.998366 0.038544
C149  C     C_R   0.523834 0.751075 0.001011 0.023142
C150  C     C_R   0.476152 0.751076 0.998973 0.023107
C151  C     C_R   0.023224 0.251135 0.999777 0.022468
C152  C     C_R   0.976698 0.251134 0.000093 0.022258
Cu1   Cu    Cu3+1 0.280880 0.719080 0.061820 1.096159
Cu2   Cu    Cu3+1 0.719120 0.719080 0.938180 1.096024
Cu3   Cu    Cu3+1 0.780880 0.219080 0.061820 1.092202
Cu4   Cu    Cu3+1 0.219120 0.219080 0.938180 1.091827
Cu5   Cu    Cu3+1 0.219090 0.780890 0.938220 1.064380
Cu6   Cu    Cu3+1 0.780910 0.780890 0.061780 1.064421
Cu7   Cu    Cu3+1 0.719090 0.280890 0.938220 1.066039
Cu8   Cu    Cu3+1 0.280910 0.280890 0.061780 1.066298
Cu9   Cu    Cu3+1 0.544430 0.999980 0.499990 1.036261
Cu10  Cu    Cu3+1 0.455570 0.999980 0.500010 1.036275
Cu11  Cu    Cu3+1 0.044430 0.499980 0.499990 1.036474
Cu12  Cu    Cu3+1 0.955570 0.499980 0.500010 1.036486
H1    H     H_    0.146647 0.724153 0.212516 0.159523
H2    H     H_    0.853368 0.724065 0.787523 0.159514
H3    H     H_    0.646643 0.224144 0.212517 0.159405
H4    H     H_    0.353368 0.224078 0.787515 0.159399
H5    H     H_    0.078491 0.699016 0.719861 0.184896
H6    H     H_    0.921753 0.698904 0.279875 0.184879
H7    H     H_    0.578235 0.198858 0.720228 0.184883
H8    H     H_    0.421994 0.198749 0.279510 0.184864
H9    H     H_    0.022246 0.642359 0.606909 0.151588
H10   H     H_    0.978008 0.642247 0.392841 0.151764
H11   H     H_    0.521936 0.142200 0.607276 0.152188
H12   H     H_    0.478305 0.142090 0.392476 0.152367
H13   H     H_    0.176110 0.520679 0.830761 0.158072
H14   H     H_    0.823393 0.520711 0.169423 0.158037
H15   H     H_    0.676564 0.020765 0.830322 0.157044
H16   H     H_    0.322951 0.020803 0.169834 0.157077
H17   H     H_    0.616608 0.681413 0.008691 0.151774
H18   H     H_    0.383394 0.681420 0.991357 0.151473
H19   H     H_    0.117768 0.181583 0.011248 0.146818
H20   H     H_    0.881517 0.181636 0.987376 0.145630
H21   H     H_    0.331990 0.895138 0.102718 0.187266
H22   H     H_    0.667995 0.895129 0.897273 0.187266
H23   H     H_    0.831874 0.395163 0.102674 0.187239
H24   H     H_    0.168057 0.395142 0.897296 0.187321
H25   H     H_    0.391184 0.951071 0.217369 0.146817
H26   H     H_    0.608781 0.951054 0.782614 0.146715
H27   H     H_    0.891124 0.451079 0.217348 0.146609
H28   H     H_    0.108800 0.451053 0.782616 0.146530
H29   H     H_    0.473356 0.845094 0.432007 0.162897
H30   H     H_    0.526643 0.845092 0.567991 0.162890
H31   H     H_    0.973372 0.345082 0.432008 0.163014
H32   H     H_    0.026641 0.345085 0.567990 0.162972
O1    O     O_R   0.321150 0.768980 0.142380 -0.559614
O2    O     O_R   0.678850 0.768980 0.857620 -0.559613
O3    O     O_R   0.821150 0.268980 0.142380 -0.559697
O4    O     O_R   0.178850 0.268980 0.857620 -0.559735
O5    O     O_R   0.917370 0.545120 0.409780 -0.556254
O6    O     O_R   0.082630 0.545120 0.590220 -0.556357
O7    O     O_R   0.417370 0.045120 0.409780 -0.556645
O8    O     O_R   0.582630 0.045120 0.590220 -0.556701
O9    O     O_R   0.492430 0.954900 0.409810 -0.578609
O10   O     O_R   0.507570 0.954900 0.590190 -0.578654
O11   O     O_R   0.992430 0.454900 0.409810 -0.578745
O12   O     O_R   0.007570 0.454900 0.590190 -0.578860
O13   O     O_R   0.417320 0.954950 0.409780 -0.572610
O14   O     O_R   0.582680 0.954950 0.590220 -0.572538
O15   O     O_R   0.917320 0.454950 0.409780 -0.571874
O16   O     O_R   0.082680 0.454950 0.590220 -0.571772
O17   O     O_R   0.268980 0.821170 0.038000 -0.576173
O18   O     O_R   0.731020 0.821170 0.962000 -0.576157
O19   O     O_R   0.768980 0.321170 0.038000 -0.576067
O20   O     O_R   0.231020 0.321170 0.962000 -0.575926
O21   O     O_R   0.340930 0.723870 0.052190 -0.557543
O22   O     O_R   0.659070 0.723870 0.947810 -0.557487
O23   O     O_R   0.840930 0.223870 0.052190 -0.560805
O24   O     O_R   0.159070 0.223870 0.947810 -0.561120
O25   O     O_R   0.288760 0.776060 0.947810 -0.569959
O26   O     O_R   0.711240 0.776060 0.052190 -0.569940
O27   O     O_R   0.788760 0.276060 0.947810 -0.569008
O28   O     O_R   0.211240 0.276060 0.052190 -0.568793
O29   O     O_R   0.230990 0.678800 0.962040 -0.565346
O30   O     O_R   0.769010 0.678800 0.037960 -0.565378
O31   O     O_R   0.730990 0.178800 0.962040 -0.564937
O32   O     O_R   0.269010 0.178800 0.037960 -0.564979
O33   O     O_R   0.178820 0.731000 0.857660 -0.584950
O34   O     O_R   0.821180 0.731000 0.142340 -0.584867
O35   O     O_R   0.678820 0.231000 0.857660 -0.584559
O36   O     O_R   0.321180 0.231000 0.142340 -0.584454
O37   O     O_R   0.211210 0.723910 0.052230 -0.577792
O38   O     O_R   0.788790 0.723910 0.947770 -0.577862
O39   O     O_R   0.711210 0.223910 0.052230 -0.577860
O40   O     O_R   0.288790 0.223910 0.947770 -0.577899
O41   O     O_R   0.159040 0.776100 0.947850 -0.551114
O42   O     O_R   0.840960 0.776100 0.052150 -0.551115
O43   O     O_R   0.659040 0.276100 0.947850 -0.550850
O44   O     O_R   0.340960 0.276100 0.052150 -0.550824
O45   O     O_R   0.992480 0.545070 0.409820 -0.578590
O46   O     O_R   0.007520 0.545070 0.590180 -0.578521
O47   O     O_R   0.492480 0.045070 0.409820 -0.578393
O48   O     O_R   0.507520 0.045070 0.590180 -0.578327
I1    I     I_    0.593599 0.844528 0.930704 -0.279289
I2    I     I_    0.406380 0.844546 0.069228 -0.279278
I3    I     I_    0.092528 0.344299 0.928589 -0.280480
I4    I     I_    0.908235 0.343943 0.072995 -0.280525
I5    I     I_    0.351853 0.747573 0.323956 -0.150685
I6    I     I_    0.648139 0.747580 0.676031 -0.150649
I7    I     I_    0.851877 0.247553 0.323958 -0.153285
I8    I     I_    0.148128 0.247567 0.676032 -0.153283
C153  C     C_2   0.807784 0.758176 0.844700 0.428257
H33   H     H_    0.783300 0.739159 0.786749 0.090248
O49   O     O_2   0.783869 0.791296 0.842942 -0.534721
C154  C     C_2   0.192216 0.758234 0.155287 0.428157
H34   H     H_    0.216702 0.739250 0.213276 0.090285
O50   O     O_2   0.216126 0.791343 0.156988 -0.534808
C155  C     C_2   0.307776 0.258165 0.844692 0.428714
H35   H     H_    0.283294 0.239139 0.786750 0.090041
O51   O     O_2   0.283856 0.291285 0.842920 -0.534293
C156  C     C_2   0.692228 0.258197 0.155303 0.428625
H36   H     H_    0.716712 0.239188 0.213265 0.090072
O52   O     O_2   0.716146 0.291313 0.157043 -0.534396
I9    I     I_    0.973352 0.761452 0.198605 -0.245693
I10   I     I_    0.026669 0.761297 0.801369 -0.245581
I11   I     I_    0.473364 0.261504 0.198593 -0.243746
I12   I     I_    0.526654 0.261382 0.801388 -0.243642
I13   I     I_    0.085447 0.687463 0.262483 -0.241564
I14   I     I_    0.914577 0.687336 0.737609 -0.241365
I15   I     I_    0.585427 0.187474 0.262479 -0.241865
I16   I     I_    0.414589 0.187375 0.737595 -0.241637
I17   I     I_    0.236258 0.527128 0.775972 -0.250317
I18   I     I_    0.763603 0.527627 0.224689 -0.249999
I19   I     I_    0.736521 0.027499 0.775278 -0.225881
I20   I     I_    0.263377 0.027934 0.225404 -0.225854
I21   I     I_    0.231957 0.566744 0.993150 -0.193310
I22   I     I_    0.767469 0.566626 0.006867 -0.193443
I23   I     I_    0.732234 0.066661 0.992669 -0.198322
I24   I     I_    0.267124 0.066570 0.007304 -0.198451
C157  C     C_2   0.289204 0.599983 0.925646 0.446545
H37   H     H_    0.290344 0.615369 0.881436 0.037323
O53   O     O_2   0.336581 0.596569 0.000752 -0.486865
C158  C     C_2   0.710680 0.600287 0.074773 0.446005
H38   H     H_    0.709736 0.615885 0.119026 0.037038
O54   O     O_2   0.663191 0.596780 0.999769 -0.487232
C159  C     C_2   0.789655 0.100082 0.925517 0.448089
H39   H     H_    0.791084 0.115197 0.881412 0.062225
O55   O     O_2   0.836837 0.096967 0.000805 -0.506238
C160  C     C_2   0.210219 0.100371 0.074973 0.448473
H40   H     H_    0.209006 0.115673 0.119165 0.062189
O56   O     O_2   0.162910 0.097174 0.999789 -0.506762
C161  C     C_2   0.549233 0.627183 0.002510 0.513684
H41   H     H_    0.598131 0.621502 0.048971 0.066091
O57   O     O_2   0.515181 0.598451 0.950040 -0.463134
C162  C     C_2   0.450760 0.627185 0.997544 0.513129
H42   H     H_    0.401859 0.621523 0.951188 0.065593
O58   O     O_2   0.484820 0.598433 0.049942 -0.463363
C163  C     C_2   0.049753 0.127255 0.003472 0.465776
H43   H     H_    0.057249 0.121884 0.961763 0.112881
O59   O     O_2   0.064178 0.098250 0.053818 -0.473369
C164  C     C_2   0.948855 0.127273 0.993765 0.464341
H44   H     H_    0.941338 0.121631 0.035388 0.112619
O60   O     O_2   0.934050 0.098594 0.942712 -0.473948
I25   I     I_    0.417489 0.889359 0.931359 -0.170939
I26   I     I_    0.582493 0.889366 0.068558 -0.170892
I27   I     I_    0.918497 0.389717 0.934801 -0.169978
I28   I     I_    0.082763 0.389375 0.067721 -0.169600
C165  C     C_2   0.404924 0.838264 0.440549 0.434684
H45   H     H_    0.380108 0.866158 0.435768 0.105350
O61   O     O_2   0.418343 0.807593 0.487327 -0.469219
C166  C     C_2   0.595074 0.838276 0.559448 0.434750
H46   H     H_    0.619886 0.866174 0.564227 0.105372
O62   O     O_2   0.581659 0.807607 0.512673 -0.469225
C167  C     C_2   0.904958 0.338242 0.440580 0.435062
H47   H     H_    0.880175 0.366143 0.435851 0.105468
O63   O     O_2   0.918355 0.307556 0.487319 -0.469267
C168  C     C_2   0.095069 0.338259 0.559442 0.435189
H48   H     H_    0.119888 0.366152 0.564220 0.105516
O64   O     O_2   0.081647 0.307587 0.512666 -0.469272
I29   I     I_    0.463810 0.777393 0.323564 -0.142580
I30   I     I_    0.536190 0.777387 0.676436 -0.142583
I31   I     I_    0.963805 0.277403 0.323521 -0.147269
I32   I     I_    0.036196 0.277395 0.676463 -0.147889

loop_
_geom_bond_atom_site_label_1
_geom_bond_atom_site_label_2
_ccdc_geom_bond_type
C99   C103  A    
C144  H20   S    
C133  C137  A    
C55   C59   A    
C142  C146  A    
C113  H13   S    
C136  C140  A    
C14   I26   S    
C135  C139  A    
C41   C165  S    
Cu1   O29   S    
C158  H38   S    
C86   C110  A    
Cu2   Cu6   S    
C119  I23   S    
C35   C39   A    
C20   C40   A    
C95   C99   A    
C120  I24   S    
C92   O36   A    
C3    O19   A    
C29   C33   A    
C100  C104  A    
C5    C149  A    
C116  I20   S    
C127  O11   A    
C41   H29   S    
C54   C74   A    
C16   I28   S    
C70   C74   A    
C159  O55   D    
C124  O48   A    
C141  C145  A    
Cu4   O32   S    
Cu9   O9    S    
C107  C124  S    
C76   C83   A    
C41   C49   S    
C25   C29   A    
C44   H32   S    
C65   C77   A    
C27   C31   A    
C28   C32   A    
C67   C79   A    
C118  I22   S    
C62   C66   A    
C131  O39   A    
C98   C102  A    
C79   I15   S    
C80   I16   S    
Cu7   O35   S    
C19   C23   A    
C84   H4    S    
C78   C82   A    
C68   C72   A    
Cu2   O38   S    
C33   C125  S    
Cu4   O24   S    
C27   H23   S    
C85   C117  S    
C132  O40   A    
C25   H21   S    
Cu6   O42   S    
C162  H42   S    
Cu8   O28   S    
C2    O18   A    
C116  H16   S    
C29   H25   S    
C74   C81   A    
C113  I17   S    
C47   O27   A    
C129  O41   A    
C54   C154  S    
C90   O30   A    
C155  O51   D    
C52   I32   S    
C39   C43   S    
C11   C163  S    
Cu9   O14   S    
C59   C63   A    
C46   O26   A    
C123  O7    A    
C60   C64   A    
C18   C38   A    
C121  O5    A    
C2    C22   S    
C66   C70   A    
C138  C142  A    
C141  H17   S    
C69   C70   A    
Cu9   O47   S    
C118  C158  S    
C61   C65   A    
C91   O35   A    
C103  C107  A    
C128  O12   A    
C44   C168  S    
C134  I2    S    
C4    O20   A    
C100  H8    S    
C101  H9    S    
C18   C50   S    
C43   C51   S    
C9    C161  S    
Cu5   O33   S    
C104  H12   S    
C5    C133  A    
C50   I30   S    
Cu3   O31   S    
C64   C68   A    
C8    C152  A    
Cu1   Cu5   S    
C153  H33   S    
Cu2   O2    S    
C75   C84   A    
C58   C129  S    
C92   C96   S    
C166  H46   S    
C43   H31   S    
Cu11  O11   S    
C168  O64   D    
C139  C143  A    
C114  H14   S    
C154  O50   D    
C47   C140  S    
Cu8   O36   S    
Cu3   O39   S    
C9    C10   A    
C110  C114  S    
Cu1   O21   S    
C50   I6    S    
C55   C75   A    
C44   C52   S    
C146  C150  A    
C13   C14   A    
Cu5   O25   S    
C36   C128  S    
C165  O61   D    
C164  O60   D    
Cu7   O19   S    
C30   C34   A    
Cu3   Cu7   S    
C135  I3    S    
C57   C130  S    
Cu4   Cu8   S    
Cu12  O12   S    
C17   C49   S    
C125  O13   A    
C48   O28   A    
C83   H3    S    
C116  C120  S    
C87   C95   A    
C6    C150  A    
C147  C151  A    
C87   C119  S    
C161  H41   S    
Cu3   O23   S    
C52   I8    S    
C49   I29   S    
C42   C50   S    
C46   C137  S    
C113  C117  S    
C10   C146  A    
C26   C30   A    
C115  C119  S    
C77   I13   S    
Cu10  O48   S    
C93   C97   A    
C112  C116  S    
Cu3   O3    S    
C119  C159  S    
C21   C25   A    
C18   C22   A    
C107  C111  A    
C1    O1    A    
C24   C28   A    
Cu11  O16   S    
C156  H36   S    
Cu6   O18   S    
C45   O25   A    
C158  O54   D    
C132  O44   A    
C71   C72   A    
C62   I10   S    
C26   H22   S    
Cu4   O40   S    
C96   C100  A    
C45   C138  S    
C105  C122  S    
Cu11  O45   S    
C55   C155  S    
C30   H26   S    
C37   C41   S    
Cu12  O5    S    
C91   C95   S    
C98   H6    S    
C4    O4    A    
C90   O34   A    
C133  I1    S    
C58   C62   A    
C88   C96   A    
C46   O22   A    
C8    C136  A    
Cu9   O8    S    
C120  C160  S    
C80   C84   A    
Cu12  O46   S    
Cu9   Cu10  S    
Cu2   O30   S    
C13   I25   S    
C10   C162  S    
C85   C109  A    
C28   H24   S    
C106  C110  A    
C4    C24   S    
C87   C111  A    
C94   C98   A    
Cu8   O20   S    
C31   H27   S    
C136  I4    S    
C160  H40   S    
C105  C109  A    
C151  C152  A    
C69   C73   A    
C88   C120  S    
C72   C76   A    
C49   I5    S    
C162  O58   D    
C167  H47   S    
C34   C38   A    
Cu10  O10   S    
C53   C153  S    
C60   C131  S    
C123  O47   A    
C90   C94   S    
C66   C78   A    
C59   C132  S    
C82   H2    S    
C148  C152  A    
C64   I12   S    
C53   C57   A    
C130  O38   A    
C33   C37   A    
C108  C112  A    
C143  H19   S    
C56   C156  S    
C163  H43   S    
C159  H39   S    
C77   C81   A    
C34   C126  S    
C103  H11   S    
Cu1   O37   S    
C86   C118  S    
C5    C14   A    
C7    C151  A    
Cu5   O41   S    
C7    C16   A    
C8    C15   A    
C1    O17   A    
C31   C35   A    
C157  O53   D    
C108  C123  S    
C32   C36   A    
C73   C82   A    
C104  C108  A    
C114  I18   S    
C121  O45   A    
C137  C141  A    
C91   O31   A    
C140  C144  A    
C89   O29   A    
C125  O9    A    
Cu10  O13   S    
C15   I27   S    
C43   C167  S    
Cu10  O7    S    
C122  O6    A    
C149  C150  A    
C128  O16   A    
C79   C83   A    
C11   C147  A    
C126  O10   A    
C65   C69   A    
C9    C145  A    
C166  O62   D    
C67   C71   A    
C78   I14   S    
C117  C157  S    
C17   C21   A    
C88   C112  A    
C56   C60   A    
C99   H7    S    
C92   O32   A    
C161  O57   D    
C22   C26   A    
Cu7   O43   S    
C145  C149  A    
C68   C80   A    
Cu11  O6    S    
C1    C21   S    
C56   C76   A    
C45   O21   A    
C3    C23   S    
Cu11  Cu12  S    
C144  C148  A    
Cu6   O34   S    
C122  O46   A    
C51   I31   S    
C165  H45   S    
C143  C147  A    
C124  O8    A    
C38   C42   S    
Cu1   O1    S    
Cu12  O15   S    
C15   C16   A    
C97   H5    S    
C57   C61   A    
C42   H30   S    
C117  I21   S    
C86   C94   A    
C20   C24   A    
C131  O43   A    
C3    O3    A    
C23   C27   A    
Cu2   O22   S    
C51   I7    S    
C109  C113  S    
Cu6   O26   S    
C89   C93   S    
Cu4   O4    S    
C85   C93   A    
C101  C105  A    
C63   C67   A    
C167  O63   D    
C36   C40   A    
C126  O14   A    
C153  O49   D    
C156  O52   D    
C157  H37   S    
C47   O23   A    
C129  O37   A    
C35   C127  S    
C7    C135  A    
C168  H48   S    
C19   C51   S    
C48   O24   A    
C40   C44   S    
C154  H34   S    
C17   C37   A    
C163  O59   D    
C61   I9    S    
C114  C118  S    
C19   C39   A    
C127  O15   A    
C155  H35   S    
C54   C58   A    
C164  H44   S    
C130  O42   A    
Cu8   O44   S    
C48   C139  S    
C42   C166  S    
C2    O2    A    
C142  H18   S    
C53   C73   A    
C134  C138  A    
C11   C12   A    
C102  H10   S    
C32   H28   S    
Cu5   O17   S    
C12   C148  A    
C20   C52   S    
C6    C13   A    
C71   C75   A    
Cu7   O27   S    
C106  C121  S    
C102  C106  A    
C160  O56   D    
C115  H15   S    
C115  I19   S    
C6    C134  A    
C12   C164  S    
C81   H1    S    
C111  C115  S    
C89   O33   A    
C63   I11   S    
C97   C101  A    
