data_mof_unit_18173.cif
_audit_creation_date              2012-12-10T17:02:58-0500
_audit_creation_method            fapswitch 2.2
_symmetry_space_group_name_H-M    P1
_symmetry_Int_Tables_number       1
_space_group_crystal_system       triclinic
_cell_length_a                    18.715652
_cell_length_b                    18.206697
_cell_length_c                    19.049266
_cell_angle_alpha                 108.646967
_cell_angle_beta                  109.935822
_cell_angle_gamma                 108.503223
_cell_volume                      5076.29933654

loop_
_atom_site_label
_atom_site_type_symbol
_atom_type_description
_atom_site_fract_x
_atom_site_fract_y
_atom_site_fract_z
_atom_type_partial_charge
C1    C     C_R   0.624882 0.619715 0.506059 0.843426
C2    C     C_R   0.206664 0.359312 0.444635 -0.316311
C3    C     C_3   0.965206 0.659753 0.807552 -0.723209
C4    C     C_2   0.875113 0.551386 0.590201 0.330807
C5    C     C_2   0.102592 0.415535 0.413392 0.423512
C6    C     C_R   0.866041 0.620715 0.568816 -0.066909
C7    C     C_R   0.120073 0.339909 0.403906 -0.017755
C8    C     C_R   0.928878 0.679936 0.560989 0.034486
C9    C     C_R   0.054497 0.250540 0.358932 -0.034481
C10   C     C_R   0.904818 0.727403 0.519440 -0.026928
C11   C     C_R   0.077756 0.185959 0.369149 -0.107692
C12   C     C_R   0.832160 0.740982 0.514717 -0.049043
C13   C     C_R   0.161846 0.214787 0.434570 0.019532
C14   C     C_R   0.771810 0.683722 0.526168 0.094767
C15   C     C_R   0.380869 0.379532 0.500520 0.876815
C16   C     C_R   0.228119 0.296266 0.459212 0.121329
C17   C     C_R   0.694234 0.686555 0.510773 -0.107939
C18   C     C_R   0.313815 0.312009 0.498438 -0.106773
C19   C     C_R   0.386756 0.507641 0.381103 0.871314
C20   C     C_R   0.618566 0.496476 0.618075 0.887287
C21   C     C_R   0.678673 0.750038 0.494002 -0.208310
C22   C     C_R   0.334183 0.254539 0.524191 -0.185416
C23   C     C_R   0.738468 0.811666 0.488325 -0.040126
C24   C     C_R   0.270082 0.183291 0.516954 0.005525
C25   C     C_R   0.815534 0.807469 0.497948 -0.195112
C26   C     C_R   0.242001 0.477245 0.304529 -0.237894
C27   C     C_R   0.183307 0.166397 0.476608 -0.252370
C28   C     C_R   0.000124 0.621520 0.119331 0.927531
C29   C     C_R   0.003588 0.378688 0.884792 0.852029
C30   C     C_R   0.119861 0.496930 0.118133 0.803730
C31   C     C_R   0.879169 0.504194 0.883336 0.891208
C32   C     C_R   0.995881 0.117278 0.619075 0.956901
C33   C     C_R   0.998415 0.876540 0.381023 0.888082
C34   C     C_R   0.880367 0.877918 0.499217 0.834996
C35   C     C_R   0.119251 0.111930 0.491494 0.854527
C36   C     C_R   0.871257 0.688473 0.086044 -0.078469
C37   C     C_R   0.765088 0.570966 0.732286 -0.300322
C38   C     C_R   0.042265 0.238455 0.909900 -0.105212
C39   C     C_R   0.791698 0.688591 0.071011 -0.055352
C40   C     C_R   0.085050 0.188990 0.923877 -0.050044
C41   C     C_R   0.770764 0.703248 0.136942 0.194589
C42   C     C_R   0.065381 0.115039 0.852750 0.116793
C43   C     C_R   0.424491 0.583517 0.263967 0.096601
C44   C     C_R   0.607810 0.330204 0.630402 0.151612
C45   C     C_R   0.835302 0.733283 0.220471 0.171163
C46   C     C_R   0.013956 0.101016 0.771044 0.210346
C47   C     C_R   0.919721 0.746625 0.236620 -0.022255
C48   C     C_R   0.172661 0.466294 0.237432 0.196064
C49   C     C_R   0.005306 0.172470 0.761137 0.003143
C50   C     C_R   0.929736 0.705840 0.167628 -0.005340
C51   C     C_R   0.014159 0.240352 0.830529 0.006483
C52   C     C_R   0.002653 0.692197 0.184312 -0.128459
C53   C     C_R   0.998588 0.308377 0.818230 -0.140192
C54   C     C_R   0.077484 0.744655 0.264940 0.127231
C55   C     C_R   0.975735 0.308927 0.739992 0.171745
C56   C     C_R   0.075305 0.803750 0.331109 0.174236
C57   C     C_R   0.971915 0.244478 0.673610 0.153844
C58   C     C_R   0.996006 0.803869 0.317563 -0.144187
C59   C     C_R   0.830331 0.575318 0.798593 0.172960
C60   C     C_R   0.987206 0.176610 0.683891 -0.220803
C61   C     C_R   0.432251 0.618380 0.208843 -0.043489
C62   C     C_R   0.586163 0.265416 0.656786 -0.059716
C63   C     C_R   0.359789 0.581167 0.128674 -0.075337
C64   C     C_R   0.617659 0.293761 0.744727 -0.148711
C65   C     C_R   0.279655 0.519671 0.111790 -0.091122
C66   C     C_R   0.684481 0.381400 0.804628 -0.018908
C67   C     C_R   0.268447 0.515774 0.181267 -0.007723
C68   C     C_R   0.722770 0.436641 0.774785 0.006334
C69   C     C_R   0.341182 0.537617 0.255302 0.049866
C70   C     C_R   0.186428 0.489049 0.177528 -0.133747
C71   C     C_R   0.671203 0.419242 0.692671 0.000879
C72   C     C_R   0.325068 0.513213 0.315286 -0.094401
C73   C     C_R   0.686624 0.493159 0.678725 -0.098929
C74   C     C_2   0.020689 0.698011 0.601685 0.489792
C75   C     C_2   0.963466 0.224248 0.301778 0.594630
C76   C     C_2   0.939076 0.738364 0.461543 0.500405
C77   C     C_2   0.024639 0.090404 0.303306 0.461655
C78   C     C_2   0.721215 0.883990 0.480303 0.434894
C79   C     C_2   0.294780 0.125713 0.548567 0.441339
C80   C     C_3   0.190710 0.706494 0.324798 -0.771634
C81   C     C_R   0.809810 0.507514 0.820905 -0.143498
C82   C     C_3   0.020523 0.447417 0.733821 -0.640824
C83   C     C_2   0.900964 0.691160 0.023753 0.407244
C84   C     C_2   0.004982 0.259728 0.965710 0.475483
C85   C     C_2   0.732079 0.677589 0.988200 0.469315
C86   C     C_2   0.143508 0.208906 0.011347 0.393350
C87   C     C_3   0.614420 0.602175 0.063227 -0.584477
C88   C     C_3   0.040369 0.988754 0.877780 -0.787392
C89   C     C_3   0.767842 0.655177 0.280322 -0.827175
C90   C     C_3   0.871316 0.979765 0.696721 -0.801396
C91   C     C_3   0.181058 0.849907 0.476538 -0.607625
C92   C     C_R   0.788555 0.623177 0.551080 -0.271407
C93   C     C_3   0.025011 0.287109 0.583942 -0.698139
C94   C     C_3   0.535510 0.539570 0.289764 -0.681257
C95   C     C_3   0.630608 0.297282 0.508771 -0.593645
C96   C     C_2   0.517629 0.691744 0.236645 0.501983
C97   C     C_2   0.529312 0.169253 0.594194 0.407973
C98   C     C_2   0.366907 0.602665 0.061526 0.606198
C99   C     C_2   0.582201 0.230915 0.773227 0.389548
C100  C     C_2   0.212040 0.449778 0.023012 0.500994
C101  C     C_2   0.705278 0.417673 0.895315 0.525191
C102  C     C_3   0.062951 0.488143 0.267715 -0.657860
H1    H     H_    0.230558 0.456283 0.348651 0.127439
H2    H     H_    0.049134 0.044789 0.309259 0.073891
H3    H     H_    0.773830 0.949697 0.507872 0.094708
H4    H     H_    0.249160 0.056328 0.519142 0.077516
H5    H     H_    0.174173 0.746086 0.230466 0.263306
H6    H     H_    0.191168 0.648762 0.282285 0.232288
H7    H     H_    0.151004 0.684840 0.353449 0.252151
H8    H     H_    0.258332 0.754334 0.376284 0.256209
H9    H     H_    0.915646 0.388793 0.750582 0.214326
H10   H     H_    0.040573 0.509161 0.789676 0.229035
H11   H     H_    0.994951 0.454041 0.675709 0.265941
H12   H     H_    0.776690 0.626950 0.720436 0.151256
H13   H     H_    0.078805 0.439354 0.741985 0.243752
H14   H     H_    0.855523 0.652348 0.956854 0.048881
H15   H     H_    0.046272 0.304110 0.033354 0.111393
H16   H     H_    0.727054 0.636992 0.929161 0.080123
H17   H     H_    0.163531 0.161737 0.021406 0.123808
H18   H     H_    0.679421 0.729861 0.167276 0.244323
H19   H     H_    0.582473 0.580272 0.097754 0.215300
H20   H     H_    0.635867 0.554366 0.037860 0.228851
H21   H     H_    0.566101 0.601377 0.008977 0.291197
H22   H     H_    0.110025 0.025730 0.818949 0.237116
H23   H     H_    0.619420 0.752233 0.486736 0.190119
H24   H     H_    0.977700 0.940030 0.818653 0.246759
H25   H     H_    0.027862 0.021242 0.929074 0.251493
H26   H     H_    0.074435 0.952839 0.897407 0.253527
H27   H     H_    0.783409 0.778087 0.294381 0.249872
H28   H     H_    0.754983 0.665505 0.334387 0.235762
H29   H     H_    0.807813 0.621149 0.282867 0.277262
H30   H     H_    0.704793 0.612203 0.220739 0.252677
H31   H     H_    0.980167 0.969386 0.703428 0.251781
H32   H     H_    0.835801 0.011132 0.669466 0.248850
H33   H     H_    0.833973 0.907345 0.655587 0.241437
H34   H     H_    0.400635 0.266670 0.551651 0.158341
H35   H     H_    0.876699 0.993404 0.760057 0.263876
H36   H     H_    0.204911 0.900868 0.398114 0.232345
H37   H     H_    0.240905 0.844305 0.488188 0.210768
H38   H     H_    0.129996 0.787373 0.463119 0.283799
H39   H     H_    0.195491 0.904368 0.535582 0.249221
H40   H     H_    0.895921 0.198731 0.543021 0.251039
H41   H     H_    0.022312 0.340304 0.568465 0.258141
H42   H     H_    0.021154 0.235717 0.529864 0.244961
H43   H     H_    0.088198 0.315430 0.641670 0.231213
H44   H     H_    0.508959 0.608612 0.383529 0.218515
H45   H     H_    0.741845 0.578110 0.558902 0.143018
H46   H     H_    0.606259 0.570755 0.332205 0.240563
H47   H     H_    0.525854 0.532049 0.226460 0.213192
H48   H     H_    0.502807 0.472918 0.282544 0.271443
H49   H     H_    0.509503 0.255545 0.502853 0.256430
H50   H     H_    0.645973 0.244338 0.513400 0.258024
H51   H     H_    0.691804 0.360691 0.544452 0.219992
H52   H     H_    0.599241 0.281221 0.440922 0.222955
H53   H     H_    0.577383 0.700951 0.283313 0.094131
H54   H     H_    0.492144 0.124753 0.610021 0.115357
H55   H     H_    0.314568 0.607459 0.019182 0.065454
H56   H     H_    0.256786 0.425976 0.471257 0.160142
H57   H     H_    0.582564 0.168241 0.752213 0.067320
H58   H     H_    0.152152 0.402820 0.012112 0.019706
H59   H     H_    0.695277 0.375011 0.923628 0.098637
H60   H     H_    0.077668 0.376318 0.243193 0.260477
H61   H     H_    0.999319 0.450936 0.261569 0.282645
H62   H     H_    0.055556 0.528710 0.235906 0.244184
H63   H     H_    0.111482 0.532051 0.336266 0.212942
H64   H     H_    0.909276 0.709482 0.872982 0.241788
H65   H     H_    0.939411 0.677441 0.757334 0.204664
H66   H     H_    0.966541 0.596906 0.779335 0.244147
H67   H     H_    0.038897 0.657109 0.626425 0.114162
H68   H     H_    0.032517 0.712729 0.855441 0.246241
H69   H     H_    0.838339 0.524720 0.617650 0.087920
H70   H     H_    0.154704 0.479634 0.435181 0.047503
H71   H     H_    0.910903 0.173952 0.299299 0.079631
H72   H     H_    0.922145 0.772296 0.427708 0.073846
N1    N     N_2   0.158221 0.747495 0.277346 -0.307214
N2    N     N_2   0.572890 0.304751 0.542236 -0.277786
N3    N     N_2   0.088487 0.426812 0.227909 -0.277551
N4    N     N_2   0.912909 0.652235 0.848475 -0.263646
N5    N     N_2   0.953310 0.373069 0.726067 -0.289687
N6    N     N_2   0.686058 0.691217 0.119578 -0.271301
N7    N     N_2   0.093550 0.053205 0.863266 -0.327013
N8    N     N_2   0.812876 0.739491 0.285582 -0.321024
N9    N     N_2   0.956097 0.013006 0.703643 -0.299645
N10   N     N_2   0.154757 0.870153 0.407243 -0.316937
N11   N     N_2   0.952635 0.249762 0.596735 -0.276642
N12   N     N_2   0.501559 0.594570 0.324535 -0.335434
O1    O     O_R   0.591640 0.539900 0.448300 -0.627824
O2    O     O_R   0.408390 0.356670 0.448280 -0.611549
O3    O     O_R   0.408410 0.448290 0.356670 -0.595402
O4    O     O_R   0.591590 0.551710 0.643330 -0.605296
O5    O     O_R   0.408380 0.551730 0.460100 -0.629444
O6    O     O_R   0.591620 0.448270 0.539900 -0.616349
O7    O     O_R   0.948260 0.539910 0.091610 -0.617100
O8    O     O_R   0.051740 0.460090 0.908390 -0.611768
O9    O     O_R   0.051720 0.643340 0.091610 -0.593239
O10   O     O_R   0.948280 0.356660 0.908390 -0.594338
O11   O     O_R   0.039880 0.448280 0.091630 -0.594785
O12   O     O_R   0.408360 0.460100 0.551700 -0.615768
O13   O     O_R   0.960120 0.551720 0.908370 -0.584939
O14   O     O_R   0.143330 0.551710 0.091620 -0.643672
O15   O     O_R   0.856670 0.448290 0.908380 -0.637192
O16   O     O_R   0.948270 0.091630 0.539910 -0.634200
O17   O     O_R   0.051730 0.908370 0.460090 -0.611903
O18   O     O_2   0.078838 0.763099 0.613056 -0.562589
O19   O     O_2   0.946349 0.256215 0.254998 -0.535143
O20   O     O_2   0.980122 0.701992 0.444411 -0.567171
O21   O     O_2   0.955359 0.061599 0.240866 -0.573460
O22   O     O_2   0.647167 0.871323 0.444237 -0.556499
O23   O     O_R   0.051700 0.091600 0.643340 -0.606135
O24   O     O_2   0.366179 0.155623 0.608638 -0.579439
O25   O     O_2   0.975597 0.741428 0.047104 -0.549841
O26   O     O_2   0.926727 0.221416 0.936884 -0.532624
O27   O     O_2   0.688550 0.715425 0.985236 -0.520295
O28   O     O_2   0.173385 0.280008 0.073091 -0.607566
O29   O     O_2   0.522081 0.746037 0.211530 -0.522009
O30   O     O_2   0.526042 0.137218 0.525563 -0.573238
O31   O     O_2   0.428920 0.611152 0.050404 -0.550356
O32   O     O_2   0.549276 0.247238 0.817518 -0.530191
O33   O     O_2   0.223609 0.440486 0.962114 -0.592319
O34   O     O_R   0.948300 0.908400 0.356660 -0.624152
O35   O     O_2   0.734121 0.496441 0.939668 -0.655680
O36   O     O_2   0.918522 0.518949 0.572358 -0.572739
O37   O     O_2   0.032302 0.409233 0.402501 -0.519869
O38   O     O_R   0.856660 0.908400 0.448280 -0.640863
O39   O     O_R   0.143340 0.091600 0.551720 -0.608793
O40   O     O_R   0.960090 0.908380 0.551710 -0.628342
O41   O     O_R   0.039910 0.091620 0.448290 -0.637718
O42   O     O_R   0.591610 0.643330 0.551720 -0.623241
Zn1   Zn    Zn3+2 0.500020 0.430940 0.430940 0.966437
Zn2   Zn    Zn3+2 0.499980 0.569060 0.569060 0.994052
Zn3   Zn    Zn3+2 0.930920 0.430950 0.000010 1.028948
Zn4   Zn    Zn3+2 0.069080 0.569050 0.999990 0.990457
Zn5   Zn    Zn3+2 0.930940 0.000030 0.430950 0.974068
Zn6   Zn    Zn3+2 0.069060 0.999970 0.569050 0.997507

loop_
_geom_bond_atom_site_label_1
_geom_bond_atom_site_label_2
_ccdc_geom_bond_type
C54   N1    S    
C15   C18   S    
C66   C68   A    
H27   N8    S    
C63   C65   A    
C33   C58   S    
C90   H33   S    
C4    H69   S    
C99   H57   S    
C79   O24   D    
C26   C72   A    
C41   N6    S    
C30   O14   A    
C2    C7    A    
C14   C17   A    
C24   C27   A    
O13   Zn4   S    
O42   Zn2   S    
C61   C96   S    
C3    H65   S    
C39   C41   A    
C94   H47   S    
C46   C49   A    
C96   O29   D    
C29   C53   S    
C59   N4    S    
C78   H3    S    
C35   O41   A    
C68   C81   A    
C34   O40   A    
C3    N4    S    
C82   H13   S    
C63   C98   S    
C77   O21   D    
C20   O4    A    
C90   H32   S    
C4    O36   D    
C96   H53   S    
C75   H71   S    
C36   C83   S    
C29   O8    A    
C28   O9    A    
C44   C71   A    
C19   O5    A    
C42   C46   A    
C97   H54   S    
C40   C86   S    
C61   C63   A    
O23   Zn6   S    
C74   H67   S    
C62   C64   A    
C11   C77   S    
C87   N6    S    
C10   C76   S    
H31   N9    S    
C64   C99   S    
C100  O33   D    
C76   O20   D    
C84   H15   S    
C65   C67   A    
C97   O30   D    
C80   H7    S    
C20   C73   S    
C88   H24   S    
C67   C70   A    
C99   O32   D    
C93   H43   S    
C86   H17   S    
H64   N4    S    
H36   N10   S    
C57   N11   S    
C93   H41   S    
C26   C48   A    
C25   C34   S    
C45   C47   A    
C101  H59   S    
C43   C69   A    
C38   C40   A    
C18   C22   A    
C91   N10   S    
C92   H45   S    
H9    N5    S    
C66   C101  S    
C19   C72   S    
C1    O1    A    
C31   O13   A    
C48   N3    S    
C30   C70   S    
C52   C54   A    
C45   N8    S    
C47   C50   A    
O11   Zn3   S    
C42   N7    S    
C94   H46   S    
O6    Zn1   S    
O41   Zn5   S    
C54   C56   A    
C31   C81   S    
C94   N12   S    
O34   Zn5   S    
C82   H11   S    
O17   Zn6   S    
C4    C6    S    
C88   H25   S    
C71   C73   A    
C15   O12   A    
C102  H61   S    
C57   C60   A    
C6    C8    A    
C37   H12   S    
C56   N10   S    
C43   N12   S    
C49   C51   A    
O16   Zn5   S    
C33   O17   A    
C17   C21   A    
C89   H28   S    
C79   H4    S    
C22   H34   S    
C67   C69   A    
C82   H10   S    
C46   N9    S    
C82   N5    S    
C69   C72   A    
O3    Zn1   S    
C95   N2    S    
C86   O28   D    
C85   O27   D    
C26   H1    S    
C62   C97   S    
C27   C35   S    
C100  H58   S    
C24   C79   S    
C50   C52   A    
O10   Zn3   S    
O15   Zn3   S    
C2    H56   S    
C8    C74   S    
C28   O7    A    
C49   C60   A    
C90   N9    S    
C9    C11   A    
C32   C60   S    
C14   C92   A    
C37   C59   A    
C93   H42   S    
C10   C12   A    
C19   O3    A    
C91   H37   S    
C1    O42   A    
C102  H62   S    
C5    O37   D    
C12   C14   A    
C102  H63   S    
C87   H19   S    
C21   C23   A    
O38   Zn5   S    
C28   C52   S    
C22   C24   A    
C13   C16   A    
C8    C10   A    
O39   Zn6   S    
C53   C55   A    
C21   H23   S    
O2    Zn1   S    
O12   Zn2   S    
C98   H55   S    
C90   H35   S    
C36   C50   A    
C43   C61   A    
C5    C7    S    
C33   O34   A    
C101  O35   D    
C7    C9    A    
H40   N11   S    
C37   C73   A    
C41   C45   A    
H49   N2    S    
C38   C84   S    
C95   H51   S    
C35   O39   A    
C55   N5    S    
C83   H14   S    
H44   N12   S    
C36   C39   A    
C59   C81   A    
C80   N1    S    
C48   C70   A    
C65   C100  S    
O40   Zn6   S    
C20   O6    A    
C87   H20   S    
C84   O26   D    
C3    H68   S    
C68   C71   A    
C38   C51   A    
C2    C16   A    
C94   H48   S    
C29   O10   A    
C9    C75   S    
C15   O2    A    
C80   H6    S    
C89   H30   S    
C89   H29   S    
C12   C25   A    
C95   H52   S    
C44   C62   A    
C89   N8    S    
C34   O38   A    
C55   C57   A    
H18   N6    S    
H22   N7    S    
C88   H26   S    
C47   C58   A    
C87   H21   S    
C32   O23   A    
C11   C13   A    
C88   N7    S    
H5    N1    S    
O5    Zn2   S    
C6    C92   A    
C40   C42   A    
O8    Zn4   S    
C5    H70   S    
C56   C58   A    
O9    Zn4   S    
C76   H72   S    
C23   C25   A    
C23   C78   S    
C32   O16   A    
C85   H16   S    
C78   O22   D    
C31   O15   A    
C44   N2    S    
C51   C53   A    
C91   H38   S    
O1    Zn1   S    
C75   O19   D    
C30   O11   A    
C1    C17   S    
C74   O18   D    
C16   C18   A    
C98   O31   D    
C80   H8    S    
C102  N3    S    
C39   C85   S    
C13   C27   A    
C77   H2    S    
C95   H50   S    
O14   Zn4   S    
O7    Zn3   S    
O4    Zn2   S    
H60   N3    S    
C83   O25   D    
C64   C66   A    
C3    H66   S    
C91   H39   S    
C93   N11   S    
