data_mof_unit_34996.cif
_audit_creation_date              2012-12-11T17:34:18-0500
_audit_creation_method            fapswitch 2.2
_symmetry_space_group_name_H-M    P1
_symmetry_Int_Tables_number       1
_space_group_crystal_system       triclinic
_cell_length_a                    23.942452
_cell_length_b                    7.242812
_cell_length_c                    20.561034
_cell_angle_alpha                 90.41183
_cell_angle_beta                  105.37505
_cell_angle_gamma                 90.162582
_cell_volume                      3437.76649785

loop_
_atom_site_label
_atom_site_type_symbol
_atom_type_description
_atom_site_fract_x
_atom_site_fract_y
_atom_site_fract_z
_atom_type_partial_charge
O1    O     O_R   0.449110 0.494310 0.552140 -0.526564
O2    O     O_R   0.550890 0.994310 0.447860 -0.533980
O3    O     O_R   0.440010 0.824420 0.415850 -0.541572
O4    O     O_R   0.559990 0.324420 0.584150 -0.526938
C1    C     C_R   0.425589 0.654643 0.390639 0.731352
C2    C     C_R   0.574400 0.156854 0.609543 0.686541
O5    O     O_R   0.442260 0.824040 0.549660 -0.520972
O6    O     O_R   0.557740 0.324040 0.450340 -0.510606
O7    O     O_R   0.553160 0.993960 0.582620 -0.528620
O8    O     O_R   0.446840 0.493960 0.417380 -0.516182
C3    C     C_R   0.426718 0.654165 0.565316 0.690298
C4    C     C_R   0.572623 0.154524 0.433655 0.693296
O9    O     O_3   0.536380 0.660670 0.510660 -0.355968
O10   O     O_3   0.463620 0.160670 0.489340 -0.361075
V1    V     V_3+5 0.493250 0.935680 0.498020 1.577792
V2    V     V_3+5 0.506750 0.435680 0.501980 1.610269
C5    C     C_R   0.802298 0.961659 0.146384 -0.124373
C6    C     C_R   0.196241 0.455865 0.851093 -0.138832
H1    H     H_    0.767397 0.863426 0.143380 0.147206
H2    H     H_    0.230268 0.355994 0.852766 0.149842
C7    C     C_R   0.841319 0.933964 0.106616 -0.027123
C8    C     C_R   0.157519 0.429596 0.891315 -0.030754
C9    C     C_R   0.887137 0.062506 0.110410 -0.141769
C10   C     C_R   0.112728 0.560267 0.889170 -0.131733
C11   C     C_R   0.891995 0.214829 0.154832 -0.141484
C12   C     C_R   0.108444 0.712238 0.845508 -0.154566
H3    H     H_    0.926402 0.315471 0.159442 0.178238
H4    H     H_    0.074647 0.813791 0.841746 0.180956
C13   C     C_R   0.853167 0.239602 0.194393 -0.118726
C14   C     C_R   0.146906 0.735271 0.805414 -0.116196
H5    H     H_    0.858453 0.357309 0.228338 0.133675
H6    H     H_    0.142002 0.852799 0.772098 0.133569
C15   C     C_R   0.808190 0.113277 0.190435 0.090565
C16   C     C_R   0.190947 0.607343 0.807932 0.093922
C17   C     C_1   0.769049 0.134752 0.233001 0.014364
C18   C     C_1   0.229598 0.626842 0.764657 0.014868
C19   C     C_1   0.736271 0.144023 0.268835 0.024640
C20   C     C_1   0.261925 0.635285 0.728240 0.026886
C21   C     C_R   0.669615 0.974839 0.322607 -0.020520
C22   C     C_R   0.328258 0.468162 0.672772 -0.023240
C23   C     C_R   0.632301 0.974800 0.366131 -0.138770
C24   C     C_R   0.365211 0.469962 0.628843 -0.161183
C25   C     C_R   0.617433 0.143052 0.393697 -0.140993
C26   C     C_R   0.380666 0.640064 0.603366 -0.154073
C27   C     C_R   0.646405 0.303922 0.382847 -0.093605
C28   C     C_R   0.350763 0.798805 0.614039 -0.092099
H7    H     H_    0.639626 0.430948 0.406586 0.197382
H8    H     H_    0.356788 0.925605 0.590140 0.193746
C29   C     C_R   0.685913 0.302674 0.343474 -0.159043
C30   C     C_R   0.310994 0.794998 0.653065 -0.151363
H9    H     H_    0.708057 0.429175 0.337633 0.159708
H10   H     H_    0.288178 0.919845 0.658991 0.158084
C31   C     C_R   0.696726 0.140697 0.311751 0.039400
C32   C     C_R   0.300953 0.632833 0.684621 0.042424
C33   C     C_R   0.640793 0.217153 0.798722 -0.053687
C34   C     C_R   0.360049 0.712384 0.204516 -0.036949
C35   C     C_R   0.616941 0.155878 0.677384 -0.104973
C36   C     C_R   0.382585 0.645111 0.323493 -0.115112
C37   C     C_R   0.897201 0.994241 0.768360 0.317506
C38   C     C_R   0.100798 0.521949 0.232227 0.314985
C39   C     C_R   0.856708 0.985687 0.705371 -0.193213
C40   C     C_R   0.140498 0.522635 0.295843 -0.193610
C41   C     C_R   0.798916 0.028800 0.698225 -0.158231
C42   C     C_R   0.198797 0.559879 0.303279 -0.156550
C43   C     C_R   0.778580 0.083957 0.753949 0.027614
C44   C     C_R   0.220327 0.600142 0.247262 0.031983
C45   C     C_R   0.820021 0.098147 0.818725 -0.064269
C46   C     C_R   0.180199 0.599228 0.181437 -0.065267
C47   C     C_R   0.718281 0.123155 0.746924 0.027232
C48   C     C_R   0.280745 0.637598 0.255072 0.019255
C49   C     C_R   0.700669 0.184217 0.804437 -0.005833
C50   C     C_R   0.300444 0.671876 0.196897 -0.023473
C51   C     C_R   0.743331 0.219491 0.865703 0.299468
C52   C     C_R   0.261802 0.653485 0.132228 0.345659
C53   C     C_R   0.800829 0.159113 0.874612 0.236482
C54   C     C_R   0.201591 0.633399 0.124571 0.217677
C55   C     C_R   0.674960 0.107171 0.684080 -0.165596
C56   C     C_R   0.322864 0.642802 0.318953 -0.184565
C57   C     C_R   0.600115 0.212057 0.734947 -0.128079
C58   C     C_R   0.400543 0.653407 0.263567 -0.142681
C59   C     C_R   0.879676 0.050550 0.825438 -0.097626
C60   C     C_R   0.119880 0.559575 0.174645 -0.094509
H11   H     H_    0.684883 0.062385 0.638409 0.093261
H12   H     H_    0.311027 0.638572 0.365954 0.094868
H13   H     H_    0.771361 0.017538 0.647694 0.120721
H14   H     H_    0.226092 0.553667 0.354062 0.122001
H15   H     H_    0.869939 0.943791 0.661025 0.118745
H16   H     H_    0.126231 0.492672 0.340447 0.119130
O11   O     O_R   0.053190 0.709680 0.082610 -0.530225
O12   O     O_R   0.946810 0.209680 0.917390 -0.525926
O13   O     O_R   0.057740 0.380240 0.950340 -0.522924
O14   O     O_R   0.942260 0.880240 0.049660 -0.524301
C61   C     C_R   0.071107 0.548467 0.932180 0.730353
C62   C     C_R   0.928907 0.048986 0.067758 0.721608
O15   O     O_R   0.060000 0.379940 0.084150 -0.537088
O16   O     O_R   0.940000 0.879940 0.915850 -0.537178
O17   O     O_R   0.949110 0.210100 0.052140 -0.527801
O18   O     O_R   0.050890 0.710100 0.947860 -0.533984
C63   C     C_R   0.075133 0.549323 0.108717 0.854968
C64   C     C_R   0.924983 0.047487 0.891089 0.852904
O19   O     O_3   0.963630 0.543720 0.989330 -0.375112
O20   O     O_3   0.036370 0.043720 0.010670 -0.378701
V3    V     V_3+5 0.006750 0.268680 0.001980 1.544506
V4    V     V_3+5 0.993250 0.768680 0.998020 1.537567
O21   O     O_3   0.729120 0.323516 0.915663 -0.620329
H17   H     H_    0.763810 0.392687 0.941502 0.320107
O22   O     O_3   0.284639 0.638492 0.077210 -0.604580
H18   H     H_    0.257258 0.569947 0.040355 0.336149
C65   C     C_2   0.618971 0.247594 0.859303 0.932600
O23   O     O_2   0.627118 0.130371 0.903312 -0.505747
O24   O     O_R   0.588982 0.409258 0.865590 -0.635656
H19   H     H_    0.576252 0.413412 0.908833 0.324748
C66   C     C_2   0.378632 0.855580 0.161929 0.897422
O25   O     O_2   0.342788 0.936996 0.118140 -0.511605
O26   O     O_R   0.436571 0.912539 0.176790 -0.637915
H20   H     H_    0.443258 0.014543 0.146135 0.320443
O27   O     O_3   0.954582 0.948835 0.775477 -0.661465
H21   H     H_    0.959781 0.911825 0.730923 0.285772
O28   O     O_3   0.042789 0.483962 0.224892 -0.661916
H22   H     H_    0.036483 0.460145 0.269862 0.286106
O29   O     O_3   0.838610 0.161422 0.938255 -0.666005
H23   H     H_    0.816315 0.146457 0.972208 0.300743
O30   O     O_3   0.163508 0.645586 0.061364 -0.667688
H24   H     H_    0.179837 0.731060 0.033633 0.292272
C67   C     C_2   0.831272 0.773095 0.060502 0.770967
O31   O     O_2   0.789084 0.770014 0.011549 -0.541468
O32   O     O_R   0.868516 0.621819 0.074572 -0.649836
H25   H     H_    0.856605 0.519020 0.039866 0.298928
C68   C     C_2   0.166354 0.265896 0.935158 0.783742
O33   O     O_2   0.210239 0.253750 0.981621 -0.541724
O34   O     O_R   0.126214 0.120981 0.921152 -0.651063
H26   H     H_    0.137570 0.015583 0.954150 0.297829
C69   C     C_2   0.680872 0.801469 0.289044 0.732527
O35   O     O_2   0.730627 0.754412 0.292716 -0.576571
O36   O     O_R   0.634423 0.694976 0.251759 -0.624884
H27   H     H_    0.647443 0.582779 0.230004 0.305360
C70   C     C_2   0.318112 0.294442 0.706140 0.733430
O37   O     O_2   0.268815 0.246857 0.705048 -0.577354
O38   O     O_R   0.365251 0.188169 0.740416 -0.610258
H28   H     H_    0.353141 0.076413 0.762879 0.316018
C71   C     C_2   0.615754 0.796576 0.389773 0.808310
O39   O     O_2   0.578793 0.701577 0.352185 -0.496411
O40   O     O_R   0.640343 0.739451 0.455994 -0.661592
H29   H     H_    0.670339 0.829744 0.482654 0.234917
C72   C     C_2   0.379556 0.292356 0.601378 0.805991
O41   O     O_2   0.417176 0.194442 0.635581 -0.504227
O42   O     O_R   0.352027 0.239303 0.535079 -0.662536
H30   H     H_    0.322003 0.331763 0.511146 0.238502
C73   C     C_2   0.539561 0.266024 0.729155 0.857039
O43   O     O_2   0.508072 0.164730 0.751193 -0.500358
O44   O     O_R   0.520255 0.438759 0.702941 -0.639323
H31   H     H_    0.480443 0.469315 0.708210 0.318731
C74   C     C_2   0.456456 0.570300 0.258763 0.878159
O45   O     O_2   0.486780 0.485902 0.306306 -0.532169
O46   O     O_R   0.471564 0.570139 0.197538 -0.622537
H32   H     H_    0.509540 0.504770 0.200441 0.331272

loop_
_geom_bond_atom_site_label_1
_geom_bond_atom_site_label_2
_ccdc_geom_bond_type
C44   C46   A    
C41   C43   A    
C48   C56   A    
O27   H21   S    
C51   C53   A    
C60   C63   S    
C35   C57   A    
C47   C55   A    
O24   H19   S    
O1    C3    A    
O2    C4    A    
C2    O7    A    
C72   O41   D    
C58   C74   S    
C21   C23   A    
C21   C31   A    
O5    C3    A    
C70   O38   S    
C30   C32   A    
C5    C15   A    
C1    C36   S    
O11   C63   A    
C17   C19   T    
C10   C12   A    
C68   O33   D    
C4    C25   S    
C65   O24   S    
O15   C63   A    
C55   H11   S    
O26   H20   S    
C13   C15   A    
C38   O28   S    
C38   C40   A    
C34   C66   S    
C42   H14   S    
C47   C49   A    
C40   C42   A    
C39   H15   S    
C5    H1    S    
C52   O22   S    
C38   C60   A    
O42   H30   S    
C26   C28   A    
C43   C45   A    
C30   H10   S    
O44   H31   S    
C74   O46   S    
C6    H2    S    
C36   C58   A    
C57   C73   S    
O30   H24   S    
C19   C31   S    
C22   C24   A    
C67   O31   D    
C70   O37   D    
O6    V2    S    
C6    C8    A    
C41   H13   S    
C23   C25   A    
C2    C35   S    
C24   C26   A    
O12   C64   A    
C72   O42   S    
O15   V3    S    
C27   H7    S    
C11   C13   A    
C28   H8    S    
C37   C39   A    
C14   C16   A    
C35   C55   A    
O36   H27   S    
C50   C52   A    
C49   C51   A    
O14   V4    S    
O5    V1    S    
C62   O17   A    
C29   H9    S    
C40   H16   S    
C5    C7    A    
C42   C44   A    
O4    V2    S    
C23   C71   S    
O13   C61   A    
C33   C57   A    
C51   O21   S    
C20   C32   S    
C10   C61   S    
C27   C29   A    
O6    C4    A    
C22   C70   S    
C39   C41   A    
C3    C26   S    
O1    V2    S    
O28   H22   S    
O2    V1    S    
C25   C27   A    
O29   H23   S    
O17   V3    S    
C52   C54   A    
O4    C2    A    
C12   C14   A    
O19   V4    S    
C22   C32   A    
C7    C9    A    
O11   V4    S    
C69   O35   D    
C8    C10   A    
C45   C53   A    
C37   O27   S    
O22   H18   S    
C7    C67   S    
O32   H25   S    
O3    V1    S    
C69   O36   S    
C66   O25   D    
C21   C69   S    
C43   C47   A    
O16   V4    S    
C34   C50   A    
C53   O29   S    
C54   O30   S    
C37   C59   A    
O13   V3    S    
O3    C1    A    
O34   H26   S    
O38   H28   S    
C45   C59   A    
C59   C64   S    
C46   C54   A    
O21   H17   S    
C28   C30   A    
C12   H4    S    
C34   C58   A    
C9    C62   S    
C46   C60   A    
C71   O40   S    
O7    V1    S    
C1    O8    A    
C8    C68   S    
O8    V2    S    
C73   O43   D    
C14   H6    S    
O14   C62   A    
C44   C48   A    
C6    C16   A    
C29   C31   A    
O16   C64   A    
C18   C20   T    
C15   C17   S    
C16   C18   S    
C9    C11   A    
O20   V3    S    
C33   C49   A    
O12   V3    S    
C36   C56   A    
C73   O44   S    
C56   H12   S    
C13   H5    S    
O9    V2    S    
C65   O23   D    
O46   H32   S    
C67   O32   S    
O10   V1    S    
C48   C50   A    
C66   O26   S    
C74   O45   D    
C71   O39   D    
C24   C72   S    
C61   O18   A    
O18   V4    S    
C33   C65   S    
O40   H29   S    
C68   O34   S    
C11   H3    S    
