data_mof_unit_51611.cif
_audit_creation_date              2012-12-10T19:46:37-0500
_audit_creation_method            fapswitch 2.2
_symmetry_space_group_name_H-M    P1
_symmetry_Int_Tables_number       1
_space_group_crystal_system       triclinic
_cell_length_a                    12.888775
_cell_length_b                    14.973632
_cell_length_c                    14.176942
_cell_angle_alpha                 89.808954
_cell_angle_beta                  96.582199
_cell_angle_gamma                 90.303523
_cell_volume                      2717.95004115

loop_
_atom_site_label
_atom_site_type_symbol
_atom_type_description
_atom_site_fract_x
_atom_site_fract_y
_atom_site_fract_z
_atom_type_partial_charge
C1    C     C_R   0.500844 0.327939 0.500224 0.917389
C2    C     C_R   0.497750 0.672343 0.499776 0.910760
C3    C     C_R   0.505102 0.232318 0.500404 -0.209962
C4    C     C_R   0.492971 0.768551 0.499466 -0.191680
C5    C     C_R   0.446557 0.186597 0.426713 -0.273430
C6    C     C_R   0.533450 0.814868 0.426188 -0.277936
C7    C     C_R   0.445478 0.094674 0.426835 -0.233079
C8    C     C_R   0.535001 0.906628 0.426344 -0.305272
C9    C     C_R   0.504201 0.048395 0.499792 0.000722
C10   C     C_R   0.496421 0.952641 0.500003 0.007054
C11   C     C_R   0.412894 0.465400 0.096942 -0.285140
C12   C     C_R   0.545010 0.570635 0.899148 -0.286339
C13   C     C_R   0.416628 0.464828 0.196603 -0.091522
C14   C     C_R   0.546645 0.568165 0.800197 -0.076957
C15   C     C_R   0.581332 0.537646 0.211820 0.628877
C16   C     C_R   0.448637 0.433578 0.790023 0.651699
C17   C     C_R   0.581453 0.536427 0.111993 -0.395403
C18   C     C_R   0.448439 0.432508 0.889868 -0.376428
C19   C     C_R   0.496248 0.501514 0.052726 0.124836
C20   C     C_R   0.495958 0.501859 0.946102 0.104545
C21   C     C_R   0.298156 0.499933 0.481818 0.865486
C22   C     C_R   0.701832 0.500078 0.518207 0.865257
C23   C     C_R   0.813704 0.500454 0.528987 -0.052425
C24   C     C_R   0.186260 0.498880 0.471160 -0.044676
C25   C     C_R   0.021848 0.482255 0.373921 -0.229703
C26   C     C_R   0.978105 0.516933 0.626267 -0.240514
C27   C     C_R   0.129698 0.485948 0.381801 -0.205071
C28   C     C_R   0.870225 0.514540 0.618151 -0.216289
C29   C     C_R   0.135751 0.509204 0.552281 -0.312780
C30   C     C_R   0.864236 0.488232 0.448183 -0.279886
C31   C     C_R   0.028647 0.506142 0.545061 0.197770
C32   C     C_R   0.971327 0.492021 0.455292 0.175056
C33   C     C_R   0.568886 0.093519 0.571341 0.426105
C34   C     C_R   0.452930 0.908128 0.573467 0.430582
C35   C     C_R   0.567910 0.186428 0.572438 0.382877
C36   C     C_R   0.448046 0.814570 0.571380 0.303824
H1    H     H_    0.831268 0.524159 0.681088 0.163578
H2    H     H_    0.168605 0.477716 0.318616 0.155309
H3    H     H_    0.399083 0.222093 0.370779 0.179847
H4    H     H_    0.565647 0.780197 0.369614 0.189808
N1    N     N_R   0.500000 0.499980 0.252470 -0.122147
N2    N     N_R   0.500000 0.500020 0.747530 -0.135965
O1    O     O_R   0.500010 0.369070 0.579480 -0.521573
O2    O     O_R   0.499990 0.630930 0.420520 -0.619176
O3    O     O_R   0.500010 0.369060 0.420520 -0.641384
O4    O     O_R   0.499990 0.630940 0.579480 -0.584226
O5    O     O_R   0.346360 0.499990 0.566340 -0.626107
O6    O     O_R   0.653640 0.500010 0.433660 -0.565456
O7    O     O_R   0.346360 0.499980 0.407390 -0.641882
O8    O     O_R   0.653640 0.500020 0.592610 -0.642513
Zn1   Zn    Zn3+2 0.500000 0.500010 0.606140 0.994252
Zn2   Zn    Zn3+2 0.500000 0.499990 0.393860 0.966934
H5    H     H_    0.820517 0.476381 0.379322 0.201735
H6    H     H_    0.179488 0.519295 0.621433 0.150982
O9    O     O_3   0.667291 0.568889 0.269952 -0.600584
C37   C     C_3   0.689457 0.658604 0.248278 0.071280
H7    H     H_    0.617225 0.699811 0.238695 0.123752
H8    H     H_    0.729456 0.662625 0.182989 0.132421
C38   C     C_3   0.762956 0.697585 0.329639 -0.816613
H9    H     H_    0.777252 0.769419 0.316000 0.198561
H10   H     H_    0.728195 0.690793 0.397476 0.257674
H11   H     H_    0.838683 0.661749 0.336189 0.255020
O10   O     O_3   0.405853 0.363428 0.735151 -0.570477
C39   C     C_3   0.297702 0.353403 0.742274 0.086792
H12   H     H_    0.254885 0.363701 0.670582 0.175164
H13   H     H_    0.264760 0.401774 0.790574 0.094450
C40   C     C_3   0.275814 0.258596 0.773931 -0.845017
H14   H     H_    0.317191 0.245798 0.845718 0.246286
H15   H     H_    0.190621 0.249252 0.776270 0.209227
H16   H     H_    0.302854 0.209858 0.723225 0.276907
H17   H     H_    0.649347 0.560404 0.081175 0.141260
H18   H     H_    0.412972 0.376675 0.922945 0.156750
H19   H     H_    0.978190 0.471757 0.304802 0.144707
H20   H     H_    0.021751 0.527835 0.695320 0.137138
O11   O     O_3   0.628108 0.048665 0.644140 -0.599375
C41   C     C_3   0.714462 0.007140 0.609516 0.068807
H21   H     H_    0.744306 0.044553 0.549848 0.106616
H22   H     H_    0.692769 0.938423 0.585257 0.158693
C42   C     C_3   0.802919 0.000040 0.689884 -0.819200
H23   H     H_    0.827092 0.067717 0.715978 0.258317
H24   H     H_    0.776971 0.960447 0.749377 0.251948
H25   H     H_    0.870941 0.966486 0.664164 0.204919
O12   O     O_3   0.405420 0.957671 0.639089 -0.617739
C43   C     C_3   0.451447 0.940236 0.732745 0.171746
H26   H     H_    0.536136 0.923577 0.736688 0.157595
H27   H     H_    0.409580 0.884406 0.763910 0.177652
C44   C     C_3   0.440393 0.022599 0.793357 -0.801355
H28   H     H_    0.356502 0.038728 0.794315 0.243671
H29   H     H_    0.475995 0.009905 0.867232 0.198615
H30   H     H_    0.480334 0.080674 0.764273 0.300096
O13   O     O_3   0.624397 0.231500 0.646621 -0.553428
C45   C     C_3   0.722048 0.256988 0.618704 0.131008
H31   H     H_    0.712312 0.304170 0.557547 0.105652
H32   H     H_    0.766667 0.197881 0.598902 0.124410
C46   C     C_3   0.785888 0.303411 0.701326 -0.783701
H33   H     H_    0.798367 0.257340 0.763097 0.250627
H34   H     H_    0.863032 0.323684 0.680363 0.201511
H35   H     H_    0.744254 0.363746 0.722067 0.263801
O14   O     O_3   0.402277 0.768500 0.640632 -0.618515
C47   C     C_3   0.295897 0.753891 0.608371 0.141780
H36   H     H_    0.287120 0.711182 0.543708 0.126134
H37   H     H_    0.254483 0.818301 0.592481 0.151206
C48   C     C_3   0.244625 0.706009 0.685798 -0.835149
H38   H     H_    0.249053 0.748383 0.750297 0.246418
H39   H     H_    0.161303 0.692103 0.660780 0.205506
H40   H     H_    0.285187 0.641930 0.704153 0.260963
H41   H     H_    0.397152 0.059391 0.371235 0.170150
H42   H     H_    0.568413 0.942077 0.370151 0.170376
H43   H     H_    0.344604 0.438279 0.054999 0.144198
H44   H     H_    0.581448 0.626615 0.938337 0.144711
H45   H     H_    0.352179 0.436378 0.229305 0.145294
H46   H     H_    0.585027 0.621263 0.765364 0.160979

loop_
_geom_bond_atom_site_label_1
_geom_bond_atom_site_label_2
_ccdc_geom_bond_type
C22   O6    A    
C44   H28   S    
C4    C36   A    
C11   H43   S    
C46   H33   S    
C43   C44   S    
O9    C37   S    
C1    O3    A    
C21   O7    A    
C46   H35   S    
C2    O4    A    
C14   H46   S    
C11   C19   A    
C41   H22   S    
C33   C35   A    
C29   H6    S    
C27   H2    S    
C37   H7    S    
C18   C20   A    
C7    C9    A    
C24   C29   A    
C47   H36   S    
C17   C19   A    
C33   O11   S    
O12   C43   S    
C2    O2    A    
C24   C27   A    
C16   O10   S    
C48   H40   S    
C9    C10   S    
N1    Zn2   S    
C34   C36   A    
N2    Zn1   S    
C22   O8    A    
O2    Zn2   S    
C25   C32   A    
C38   H9    S    
C9    C33   A    
C8    H42   S    
C47   H37   S    
C1    O1    A    
C18   H18   S    
C30   H5    S    
C38   H10   S    
C40   H14   S    
C39   C40   S    
C6    H4    S    
C41   H21   S    
C15   N1    A    
C48   H39   S    
O13   C45   S    
C5    C7    A    
C6    C8    A    
O3    Zn2   S    
O4    Zn1   S    
C45   C46   S    
C42   H23   S    
C1    C3    S    
C39   H13   S    
C2    C4    S    
O11   C41   S    
C23   C30   A    
C31   C32   A    
C3    C35   A    
O7    Zn2   S    
C12   C20   A    
C45   H32   S    
O8    Zn1   S    
C10   C34   A    
C16   C18   A    
C23   C28   A    
C43   H26   S    
C4    C6    A    
C12   C14   A    
C17   H17   S    
C5    H3    S    
C7    H41   S    
C44   H30   S    
C34   O12   S    
C16   N2    A    
C42   H24   S    
C15   C17   A    
C38   H11   S    
C26   C31   A    
C43   H27   S    
C3    C5    A    
C42   H25   S    
O5    Zn1   S    
C46   H34   S    
C13   N1    A    
C25   C27   A    
C26   C28   A    
C37   C38   S    
C14   N2    A    
C40   H16   S    
C39   H12   S    
C19   C20   S    
C44   H29   S    
C29   C31   A    
O14   C47   S    
C30   C32   A    
C11   C13   A    
O1    Zn1   S    
C28   H1    S    
C12   H44   S    
C13   H45   S    
C45   H31   S    
C26   H20   S    
C37   H8    S    
C36   O14   S    
C25   H19   S    
C47   C48   S    
O10   C39   S    
O6    Zn2   S    
C41   C42   S    
C8    C10   A    
C21   C24   S    
C48   H38   S    
C22   C23   S    
C40   H15   S    
C15   O9    S    
C21   O5    A    
C35   O13   S    
