data_mof_unit_29117.cif
_audit_creation_date              2012-12-11T14:21:00-0500
_audit_creation_method            fapswitch 2.2
_symmetry_space_group_name_H-M    P1
_symmetry_Int_Tables_number       1
_space_group_crystal_system       triclinic
_cell_length_a                    11.537199
_cell_length_b                    11.602539
_cell_length_c                    19.580163
_cell_angle_alpha                 89.845815
_cell_angle_beta                  90.083921
_cell_angle_gamma                 59.773777
_cell_volume                      2264.65444523

loop_
_atom_site_label
_atom_site_type_symbol
_atom_type_description
_atom_site_fract_x
_atom_site_fract_y
_atom_site_fract_z
_atom_type_partial_charge
C1    C     C_R   0.640627 0.116292 0.599457 0.548893
C2    C     C_1   0.653952 0.147828 0.668760 0.002855
C3    C     C_R   0.680911 0.592518 0.204796 0.005829
C4    C     C_R   0.614009 0.743343 0.597987 0.553021
C5    C     C_R   0.547317 0.648980 0.231272 0.007516
C6    C     C_R   0.512575 0.732895 0.287239 0.015734
C7    C     C_R   0.750577 0.642592 0.310456 -0.123898
C8    C     C_R   0.783019 0.581108 0.247792 0.179812
C9    C     C_R   0.449155 0.619074 0.206081 -0.088653
C10   C     C_R   0.317941 0.686582 0.228029 -0.132969
C11   C     C_R   0.278939 0.786042 0.275649 -0.122404
C12   C     C_1   0.651981 0.683249 0.664259 0.002747
C13   C     C_R   0.375355 0.808727 0.304646 -0.087540
C14   C     C_R   0.616982 0.728459 0.327600 -0.044122
C15   C     C_R   0.163164 0.181608 0.186441 0.043599
C16   C     C_R   0.294804 0.121071 0.605459 0.558389
C17   C     C_R   0.257641 0.217383 0.205791 0.058355
C18   C     C_R   0.288333 0.214822 0.275876 0.038803
C19   C     C_R   0.155914 0.110189 0.301632 -0.137795
C20   C     C_R   0.112551 0.129556 0.234754 -0.118543
C21   C     C_R   0.309460 0.270458 0.157702 -0.064768
C22   C     C_R   0.364040 0.346443 0.179380 -0.094563
C23   C     C_1   0.143525 0.191551 0.862763 0.005261
C24   C     C_R   0.373716 0.363736 0.248708 -0.120075
C25   C     C_R   0.345141 0.292387 0.296301 -0.090425
C26   C     C_R   0.248496 0.146445 0.322733 -0.000739
C27   C     C_R   0.743549 0.201989 0.207551 -0.000407
C28   C     C_R   0.644436 0.109179 0.401142 0.522684
C29   C     C_R   0.812731 0.066767 0.231757 0.047074
C30   C     C_R   0.760613 0.036779 0.289043 0.028187
C31   C     C_R   0.644313 0.271804 0.319543 -0.151098
C32   C     C_R   0.673082 0.301594 0.255137 -0.168397
C33   C     C_R   0.928018 0.959314 0.200122 -0.091939
C34   C     C_1   0.222087 0.147211 0.735163 -0.027985
C35   C     C_R   0.967039 0.828179 0.214144 -0.119002
C36   C     C_R   0.903651 0.799578 0.264874 -0.108948
C37   C     C_R   0.797522 0.902083 0.299694 -0.099460
C38   C     C_R   0.677524 0.141319 0.334638 0.002212
C39   C     C_R   0.083022 0.230967 0.929087 0.533441
C40   C     C_R   0.587689 0.789184 0.394262 0.508220
C41   C     C_R   0.709041 0.546385 0.922856 0.559784
C42   C     C_R   0.707914 0.207505 0.929992 0.554363
C43   C     C_R   0.087511 0.232386 0.123257 0.550416
C44   C     C_R   0.707793 0.550249 0.133495 0.567722
C45   C     C_1   0.183261 0.167510 0.804625 -0.025860
C46   C     C_R   0.747031 0.234551 0.134285 0.537504
C47   C     C_R   0.296491 0.119326 0.393730 0.514098
C48   C     C_1   0.698653 0.581151 0.851988 0.001493
C49   C     C_1   0.673267 0.644633 0.722532 -0.026699
C50   C     C_1   0.689159 0.608766 0.792160 -0.029039
C51   C     C_1   0.253652 0.134117 0.675678 0.000968
C52   C     C_1   0.677426 0.193126 0.860596 0.000501
C53   C     C_1   0.659037 0.166313 0.728996 -0.029260
C54   C     C_1   0.665099 0.181844 0.800217 -0.029693
Cl1   Cl    Cl    0.953074 0.482401 0.229145 -0.649981
Cr1   Cr    Cr6+3 0.404720 0.198220 0.499960 1.020276
Cr2   Cr    Cr6+3 0.698290 0.897110 0.500380 1.025926
Cr3   Cr    Cr6+3 0.396970 0.904720 0.499610 1.027318
Cr4   Cr    Cr6+3 0.926180 0.151990 0.028120 1.011364
Cr5   Cr    Cr6+3 0.921330 0.451820 0.027470 1.063229
Cr6   Cr    Cr6+3 0.626260 0.446870 0.028710 1.005916
H1    H     H_    0.830661 0.624604 0.345576 0.165863
H2    H     H_    0.745362 0.874193 0.334644 0.149740
H3    H     H_    0.473228 0.536970 0.172285 0.142186
H4    H     H_    0.249536 0.656980 0.209137 0.109755
H5    H     H_    0.176049 0.840516 0.292972 0.120766
H6    H     H_    0.341784 0.880782 0.343361 0.156719
H7    H     H_    0.113435 0.070496 0.337578 0.135513
H8    H     H_    0.299424 0.261521 0.103278 0.122064
H9    H     H_    0.031403 0.113350 0.222124 0.119083
H10   H     H_    0.392585 0.396620 0.142300 0.125787
H11   H     H_    0.405010 0.431576 0.266305 0.118230
H12   H     H_    0.358646 0.309723 0.348499 0.169156
H13   H     H_    0.589955 0.351366 0.355902 0.134503
H14   H     H_    0.991275 0.972584 0.164183 0.148482
H15   H     H_    0.641866 0.401394 0.242795 0.108765
H16   H     H_    0.044103 0.748881 0.184380 0.130716
H17   H     H_    0.940562 0.697634 0.278575 0.179322
O1    O     O_R   0.267740 0.231960 0.575440 -0.486989
O2    O     O_R   0.596130 0.579390 0.952730 -0.492013
O3    O     O_R   0.639060 0.321160 0.958670 -0.505951
O4    O     O_R   0.527280 0.186640 0.570530 -0.504483
O5    O     O_R   0.821240 0.124200 0.104370 -0.514265
O6    O     O_R   0.036890 0.167040 0.097840 -0.541494
O7    O     O_R   0.056180 0.349610 0.102880 -0.462264
O8    O     O_R   0.797660 0.564870 0.097950 -0.428102
O9    O     O_R   0.595880 0.584250 0.104270 -0.535950
O10   O     O_R   0.638830 0.325670 0.099150 -0.524234
O11   O     O_3   0.824590 0.350230 0.028100 -0.317421
O12   O     O_R   0.685970 0.784660 0.430010 -0.512508
O13   O     O_R   0.728090 0.003450 0.576380 -0.495839
O14   O     O_R   0.682970 0.789190 0.570490 -0.485383
O15   O     O_R   0.499290 0.771880 0.575530 -0.503008
O16   O     O_R   0.285330 0.030870 0.569730 -0.476530
O17   O     O_R   0.270980 0.227080 0.423890 -0.497756
O18   O     O_R   0.530280 0.182120 0.430050 -0.532739
O19   O     O_R   0.731330 0.998570 0.424830 -0.521691
O20   O     O_R   0.502530 0.767000 0.423990 -0.509148
O21   O     O_R   0.288330 0.026350 0.429250 -0.519223
O22   O     O_3   0.499990 0.000020 0.499980 -0.304467
O23   O     O_R   0.821500 0.119340 0.952830 -0.491605
O24   O     O_R   0.037130 0.162530 0.957360 -0.493956
O25   O     O_R   0.056440 0.344740 0.951340 -0.518488
O26   O     O_R   0.797900 0.560360 0.957470 -0.480393

loop_
_geom_bond_atom_site_label_1
_geom_bond_atom_site_label_2
_ccdc_geom_bond_type
C28   O19   A    
Cr1   O17   S    
C23   C45   T    
Cr2   O14   S    
C27   C29   A    
C9    H3    S    
C19   C20   A    
Cr3   O20   S    
C16   C51   S    
C41   O2    A    
C12   C49   T    
C7    C8    A    
C53   C54   S    
C42   O3    A    
C34   C51   T    
Cr1   O1    S    
C36   C37   A    
Cr3   O15   S    
Cr4   O5    S    
C40   O20   A    
C5    C6    A    
Cr6   O2    S    
C29   C33   A    
C47   O21   A    
C30   C38   A    
C15   C17   A    
C1    C2    S    
Cr4   O11   S    
C19   C26   A    
Cr6   O9    S    
C33   H14   S    
C7    C14   A    
C35   C36   A    
C52   C54   T    
C18   C26   A    
C4    C12   S    
C44   O9    A    
C9    C10   A    
C11   H5    S    
C48   C50   T    
C1    O13   A    
C21   C22   A    
C43   O6    A    
C20   H9    S    
C18   C25   A    
C44   O8    A    
C8    Cl1   S    
C37   H2    S    
Cr6   O11   S    
C46   O10   A    
C15   C20   A    
C3    C44   S    
Cr2   O12   S    
Cr4   O23   S    
Cr3   O22   S    
Cr4   O6    S    
C3    C8    A    
Cr5   O8    S    
C31   H13   S    
C1    O4    A    
Cr5   O11   S    
Cr2   O22   S    
C35   H16   S    
C17   C21   A    
C46   O5    A    
C30   C37   A    
C21   H8    S    
C43   O7    A    
C7    H1    S    
C5    C9    A    
C29   C30   A    
Cr6   O10   S    
C6    C14   A    
C31   C32   A    
C28   C38   S    
Cr2   O19   S    
C17   C18   A    
C19   H7    S    
C34   C45   S    
C24   C25   A    
Cr1   O4    S    
C26   C47   S    
C27   C46   S    
C22   C24   A    
Cr1   O22   S    
Cr5   O25   S    
C42   O23   A    
C22   H10   S    
C24   H11   S    
C39   O24   A    
C13   H6    S    
C10   H4    S    
Cr1   O18   S    
Cr2   O13   S    
C27   C32   A    
Cr4   O24   S    
Cr3   O21   S    
C3    C5    A    
C2    C53   T    
C32   H15   S    
Cr5   O7    S    
C31   C38   A    
C39   O25   A    
C16   O16   A    
C41   O26   A    
C28   O18   A    
C16   O1    A    
Cr3   O16   S    
C15   C43   S    
C36   H17   S    
C6    C13   A    
C11   C13   A    
C23   C39   S    
C33   C35   A    
C41   C48   S    
C25   H12   S    
C10   C11   A    
C14   C40   S    
C4    O15   A    
C49   C50   S    
C47   O17   A    
Cr6   O3    S    
C40   O12   A    
Cr5   O26   S    
C42   C52   S    
C4    O14   A    
