data_mof_unit_55829.cif
_audit_creation_date              2012-10-26T19:21:03-0400
_audit_creation_method            fapswitch 2.2
_symmetry_space_group_name_H-M    P1
_symmetry_Int_Tables_number       1
_space_group_crystal_system       triclinic
_cell_length_a                    10.014879
_cell_length_b                    11.016538
_cell_length_c                    13.293404
_cell_angle_alpha                 98.952417
_cell_angle_beta                  80.947183
_cell_angle_gamma                 111.393462
_cell_volume                      1340.86972349

loop_
_atom_site_label
_atom_site_type_symbol
_atom_type_description
_atom_site_fract_x
_atom_site_fract_y
_atom_site_fract_z
_atom_type_partial_charge
Br1   Br    Br    0.218939 0.545010 0.150946 -0.439828
C1    C     C_R   0.557323 0.745503 0.506794 0.557373
C2    C     C_R   0.382541 0.504428 0.802555 0.007127
C3    C     C_2   0.589330 0.885997 0.510165 -0.109802
C4    C     C_R   0.425266 0.496230 0.691111 0.551332
C5    C     C_2   0.486709 0.930096 0.495260 -0.114585
C6    C     C_2   0.411746 0.113887 0.487462 -0.100076
C7    C     C_2   0.515500 0.069684 0.499690 -0.132189
C8    C     C_2   0.930891 0.496079 0.483514 0.333154
C9    C     C_2   0.077743 0.515263 0.511447 0.334300
C10   C     C_R   0.443095 0.254479 0.492317 0.564080
C11   C     C_R   0.577852 0.518364 0.310429 0.556902
C12   C     C_R   0.441868 0.544221 0.978842 0.036787
C13   C     C_R   0.797319 0.694276 0.083933 -0.116362
C14   C     C_R   0.625382 0.556272 0.205919 0.010441
C15   C     C_R   0.236398 0.445952 0.838207 -0.130001
C16   C     C_R   0.191427 0.450133 0.942550 -0.098165
C17   C     C_R   0.292298 0.500875 0.013289 0.148125
C18   C     C_R   0.484929 0.565119 0.874503 0.004977
C19   C     C_R   0.550372 0.573516 0.044691 0.045181
C20   C     C_R   0.692903 0.655311 0.015057 0.043310
C21   C     C_R   0.728272 0.697249 0.917468 -0.125684
C22   C     C_R   0.626847 0.650322 0.847115 -0.100371
C23   C     C_R   0.522923 0.516039 0.136058 -0.091248
C24   C     C_R   0.761831 0.648909 0.180459 -0.087262
Cu1   Cu    Cu3+1 0.362000 0.479240 0.482530 1.092908
Cu2   Cu    Cu3+1 0.638000 0.520760 0.517470 1.059077
H1    H     H_    0.839452 0.689418 0.235699 0.182128
H2    H     H_    0.155637 0.400922 0.785277 0.176864
H3    H     H_    0.077140 0.416016 0.968512 0.162869
H4    H     H_    0.659887 0.687112 0.773125 0.153465
H5    H     H_    0.623251 0.136819 0.513506 0.176401
H6    H     H_    0.028374 0.646051 0.776885 0.364385
H7    H     H_    0.963276 0.298373 0.228072 0.383595
H8    H     H_    0.379584 0.862913 0.479981 0.210494
H9    H     H_    0.304138 0.046384 0.473844 0.131016
H10   H     H_    0.696390 0.953520 0.525150 0.110349
H11   H     H_    0.096781 0.351300 0.436811 0.243299
H12   H     H_    0.864190 0.587440 0.617853 0.262322
H13   H     H_    0.835848 0.762841 0.894259 0.120219
H14   H     H_    0.905009 0.762020 0.064072 0.132323
H15   H     H_    0.421031 0.439205 0.153760 0.172952
N1    N     N_2   0.845330 0.551960 0.543750 -0.342419
N2    N     N_2   0.154690 0.448120 0.456210 -0.310134
O1    O     O_R   0.426290 0.668220 0.490680 -0.439683
O2    O     O_2   0.103671 0.755950 0.606015 -0.342842
O3    O     O_3   0.024393 0.570516 0.724602 -0.590014
O4    O     O_2   0.744410 0.325145 0.350440 -0.285005
O5    O     O_2   0.921074 0.528861 0.289982 -0.253540
O6    O     O_3   0.001799 0.337080 0.294562 -0.539050
O7    O     O_R   0.659360 0.703290 0.520190 -0.509328
O8    O     O_R   0.326580 0.473880 0.629020 -0.450549
O9    O     O_R   0.559660 0.508940 0.658530 -0.532662
O10   O     O_R   0.340640 0.296710 0.479810 -0.514655
O11   O     O_R   0.573710 0.331780 0.509320 -0.460634
O12   O     O_R   0.440340 0.491060 0.341470 -0.483065
O13   O     O_R   0.673420 0.526120 0.370980 -0.411954
O14   O     O_2   0.282690 0.681948 0.650599 -0.248228
S1    S     S_3+6 0.132679 0.635807 0.621632 -0.006546
S2    S     S_3+6 0.895539 0.420563 0.354273 0.038124

loop_
_geom_bond_atom_site_label_1
_geom_bond_atom_site_label_2
_ccdc_geom_bond_type
C1    C3    S    
Cu2   O9    S    
C4    O8    A    
C2    C18   A    
Cu1   O8    S    
O2    S1    D    
C23   H15   S    
C8    C9    S    
C18   C22   A    
Cu1   O1    S    
C11   C14   S    
C8    S2    S    
O6    S2    S    
C16   C17   A    
Br1   C17   S    
C21   H13   S    
C6    C7    D    
C13   C24   A    
C20   C21   A    
C3    H10   S    
C24   H1    S    
C6    C10   S    
C16   H3    S    
C10   O10   A    
Cu1   Cu2   S    
C11   O12   A    
O5    S2    D    
C12   C17   A    
C13   H14   S    
C5    C7    S    
C11   O13   A    
Cu1   O10   S    
C13   C20   A    
C4    O9    A    
C14   C23   A    
C9    N2    D    
Cu2   O7    S    
H11   N2    S    
C9    S1    S    
C1    O1    A    
Cu2   O13   S    
H6    O3    S    
Cu2   O11   S    
H7    O6    S    
C8    N1    D    
C1    O7    A    
C12   C18   A    
Cu1   N2    S    
C7    H5    S    
Cu2   N1    S    
C10   O11   A    
C19   C20   A    
C14   C24   A    
C3    C5    D    
C6    H9    S    
C21   C22   A    
H12   N1    S    
C12   C19   A    
C15   H2    S    
O14   S1    D    
O3    S1    S    
C5    H8    S    
C2    C15   A    
C19   C23   A    
O4    S2    D    
C22   H4    S    
C15   C16   A    
C2    C4    S    
Cu1   O12   S    
