data_mof_unit_27272.cif
_audit_creation_date              2012-12-10T17:52:05-0500
_audit_creation_method            fapswitch 2.2
_symmetry_space_group_name_H-M    P1
_symmetry_Int_Tables_number       1
_space_group_crystal_system       triclinic
_cell_length_a                    14.669206
_cell_length_b                    14.584434
_cell_length_c                    19.401763
_cell_angle_alpha                 76.998839
_cell_angle_beta                  102.458917
_cell_angle_gamma                 114.489374
_cell_volume                      3645.31901456

loop_
_atom_site_label
_atom_site_type_symbol
_atom_type_description
_atom_site_fract_x
_atom_site_fract_y
_atom_site_fract_z
_atom_type_partial_charge
C1    C     C_R   0.880577 0.311494 0.509358 0.802709
C2    C     C_R   0.119661 0.688837 0.490062 0.851360
C3    C     C_R   0.813761 0.202651 0.506590 -0.138191
C4    C     C_R   0.187332 0.798991 0.482066 -0.137580
C5    C     C_R   0.779809 0.029614 0.491053 -0.145565
C6    C     C_R   0.219565 0.978276 0.437558 -0.147936
C7    C     C_R   0.848604 0.130182 0.494961 -0.067722
C8    C     C_R   0.150557 0.877879 0.451951 -0.036753
C9    C     C_R   0.710247 0.172197 0.511591 0.112517
C10   C     C_R   0.292925 0.825064 0.501058 0.080485
C11   C     C_R   0.639752 0.077256 0.492408 0.047784
C12   C     C_R   0.361234 0.924008 0.476673 0.051373
C13   C     C_R   0.676375 0.003066 0.489012 0.082754
C14   C     C_R   0.323442 0.001798 0.449829 0.083337
C15   C     C_R   0.533903 0.052834 0.477784 0.070472
C16   C     C_R   0.466633 0.949370 0.480655 0.073491
C17   C     C_R   0.505646 0.876451 0.479043 -0.208632
C18   C     C_R   0.493771 0.128651 0.451767 -0.217467
C19   C     C_R   0.608839 0.903538 0.481470 -0.182689
C20   C     C_R   0.390078 0.103173 0.436361 -0.177064
C21   C     C_R   0.714738 0.668305 0.380418 -0.282716
C22   C     C_R   0.284400 0.330266 0.618156 -0.266504
C23   C     C_R   0.999492 0.500435 0.632311 0.746135
C24   C     C_R   0.001421 0.500748 0.367578 0.842771
C25   C     C_R   0.796332 0.638211 0.399046 0.082957
C26   C     C_R   0.202978 0.360560 0.600007 0.109865
C27   C     C_R   0.715524 0.510458 0.490660 0.017198
C28   C     C_R   0.284989 0.490906 0.509917 0.000422
C29   C     C_R   0.628637 0.535432 0.473150 -0.013020
C30   C     C_R   0.371041 0.464631 0.526224 -0.015994
C31   C     C_R   0.630840 0.617500 0.417368 0.148939
C32   C     C_R   0.368355 0.381567 0.581296 0.141838
C33   C     C_R   0.541022 0.483224 0.509120 0.068475
C34   C     C_R   0.458321 0.516480 0.489824 0.081543
C35   C     C_R   0.465735 0.600250 0.434853 -0.226018
C36   C     C_R   0.532802 0.398211 0.563057 -0.184274
C37   C     C_R   0.549929 0.648974 0.399197 -0.186058
C38   C     C_R   0.448667 0.349272 0.598683 -0.151329
C39   C     C_R   0.091129 0.549486 0.751663 -0.055410
C40   C     C_R   0.983121 0.582387 0.239819 -0.004646
C41   C     C_R   0.090697 0.551884 0.824073 -0.025363
C42   C     C_R   0.972406 0.578000 0.166435 -0.042859
C43   C     C_R   0.998045 0.507710 0.852678 -0.133092
C44   C     C_R   0.004073 0.510798 0.144777 -0.104329
C45   C     C_R   0.905851 0.461288 0.809134 -0.024993
C46   C     C_R   0.040152 0.443402 0.196224 -0.007343
C47   C     C_R   0.906248 0.458969 0.736709 -0.021211
C48   C     C_R   0.033359 0.435578 0.269072 -0.045452
C49   C     C_R   0.998923 0.502759 0.708148 -0.222775
C50   C     C_R   0.007331 0.506849 0.291283 -0.175576
C51   C     C_R   0.999761 0.511095 0.068202 0.366050
C52   C     C_R   0.997627 0.509327 0.928685 0.349864
Cu1   Cu    Cu3+1 0.081740 0.475680 0.518680 0.947802
Cu2   Cu    Cu3+1 0.918260 0.524320 0.481320 0.967731
H1    H     H_    0.551909 0.712569 0.357079 0.156194
H2    H     H_    0.446177 0.284740 0.640058 0.164267
H3    H     H_    0.278963 0.550902 0.467668 0.127792
H4    H     H_    0.722834 0.453105 0.534603 0.139399
H5    H     H_    0.137584 0.320464 0.627837 0.138254
H6    H     H_    0.861385 0.677716 0.370907 0.162907
H7    H     H_    0.717375 0.731155 0.337562 0.166203
H8    H     H_    0.281447 0.266630 0.660395 0.155124
H9    H     H_    0.407402 0.630352 0.417738 0.133175
H10   H     H_    0.589986 0.366583 0.578787 0.163517
H11   H     H_    0.635812 0.846321 0.477427 0.154271
H12   H     H_    0.361974 0.163332 0.414724 0.161508
H13   H     H_    0.806109 0.972774 0.485074 0.185895
H14   H     H_    0.192011 0.039125 0.417129 0.193293
H15   H     H_    0.456707 0.800398 0.469109 0.144211
H16   H     H_    0.541527 0.207205 0.436890 0.155472
N1    N     N_R   0.944709 0.423567 0.970745 -0.213874
N2    N     N_R   0.052840 0.596813 0.026358 -0.235322
N3    N     N_R   0.945025 0.424635 0.039131 -0.213349
N4    N     N_R   0.050990 0.596193 0.957648 -0.215250
N5    N     N_R   0.795420 0.560800 0.453240 -0.192106
N6    N     N_R   0.204580 0.439200 0.546760 -0.188557
O1    O     O_R   0.977910 0.338110 0.524620 -0.618278
O2    O     O_R   0.022090 0.661890 0.475380 -0.593804
O3    O     O_R   0.839850 0.379180 0.493080 -0.566263
O4    O     O_R   0.160150 0.620820 0.506920 -0.562338
O5    O     O_R   0.069040 0.479450 0.615630 -0.572878
O6    O     O_R   0.930960 0.520550 0.384370 -0.553507
O7    O     O_R   0.930990 0.520520 0.584090 -0.580864
O8    O     O_R   0.069010 0.479480 0.415910 -0.618025
C53   C     C_2   0.187633 0.596871 0.720416 0.496100
H17   H     H_    0.191094 0.643921 0.668268 0.069886
O9    O     O_2   0.262444 0.580346 0.751212 -0.499417
C54   C     C_2   0.977302 0.671194 0.261954 0.378080
H18   H     H_    0.923296 0.704033 0.233216 0.132162
O10   O     O_2   0.036591 0.711647 0.311320 -0.551801
C55   C     C_2   0.187017 0.599449 0.870851 0.498515
H19   H     H_    0.200570 0.561805 0.924778 0.073667
O11   O     O_2   0.249891 0.682664 0.850656 -0.493090
C56   C     C_2   0.928560 0.643872 0.112002 0.351449
H20   H     H_    0.965461 0.688032 0.065793 0.121401
O12   O     O_2   0.848309 0.646517 0.117342 -0.527628
C57   C     C_2   0.809165 0.416050 0.840047 0.505110
H21   H     H_    0.795298 0.456297 0.874835 0.076986
O13   O     O_2   0.746405 0.331921 0.829406 -0.493125
C58   C     C_2   0.090082 0.385599 0.173937 0.450653
H22   H     H_    0.075198 0.370053 0.119803 0.094005
O14   O     O_2   0.152826 0.358347 0.215352 -0.513539
C59   C     C_2   0.809974 0.410397 0.690282 0.449327
H23   H     H_    0.806397 0.361499 0.654252 0.073294
O15   O     O_2   0.735359 0.427899 0.689894 -0.536621
C60   C     C_2   0.047100 0.348551 0.320715 0.427386
H24   H     H_    0.101606 0.361050 0.368662 0.085210
O16   O     O_2   0.997858 0.261286 0.308951 -0.503251
N7    N     N_3   0.327469 0.758766 0.557459 -0.574450
H25   H     H_    0.345620 0.709659 0.536424 0.231016
H26   H     H_    0.389997 0.801105 0.590716 0.244430
N8    N     N_3   0.681955 0.228996 0.549144 -0.601733
H27   H     H_    0.659660 0.283047 0.513112 0.214269
H28   H     H_    0.623033 0.180278 0.578321 0.234491
C61   C     C_2   0.041759 0.861232 0.439695 0.454046
H29   H     H_    0.990739 0.806689 0.476082 0.077404
O17   O     O_2   0.008415 0.911527 0.389662 -0.503929
C62   C     C_2   0.954399 0.156134 0.484297 0.443526
H30   H     H_    0.000989 0.232278 0.462206 0.091982
O18   O     O_2   0.990318 0.090954 0.498381 -0.532198

loop_
_geom_bond_atom_site_label_1
_geom_bond_atom_site_label_2
_ccdc_geom_bond_type
C18   H16   S    
C15   C18   A    
C17   H15   S    
C27   C29   A    
C1    O1    A    
Cu1   O1    S    
C5    H13   S    
N8    H28   S    
C57   H21   S    
C39   C41   A    
C28   H3    S    
C21   C31   A    
C22   C32   A    
Cu1   O8    S    
C2    O2    A    
C20   H12   S    
C35   C37   A    
C3    C7    A    
N7    H26   S    
C43   C52   S    
C23   C49   S    
C22   H8    S    
C60   H24   S    
C61   H29   S    
C29   C33   A    
C33   C36   A    
C10   N7    S    
Cu1   O5    S    
C34   C35   A    
C23   O7    A    
C45   C47   A    
C24   O6    A    
C62   H30   S    
N8    H27   S    
C46   C58   S    
C8    C61   S    
C11   C15   A    
C48   C60   S    
C12   C16   A    
C16   C17   A    
C61   O17   D    
C26   N6    A    
C25   H6    S    
C32   C38   A    
C26   H5    S    
C21   H7    S    
C4    C8    A    
C9    N8    S    
C6    H14   S    
C41   C43   A    
C7    C62   S    
C42   C44   A    
C27   N5    A    
Cu2   O7    S    
C57   O13   D    
C44   C46   A    
C53   O9    D    
C24   C50   S    
C46   C48   A    
C47   C59   S    
C30   C34   A    
C14   C20   A    
Cu1   O4    S    
N2    N4    A    
C55   H19   S    
N1    N3    A    
C13   C19   A    
C6    C8    A    
C53   H17   S    
C55   O11   D    
C31   C37   A    
C1    C3    S    
C2    C4    S    
C3    C9    A    
C6    C14   A    
C9    C11   A    
C58   O14   D    
C33   C34   A    
C59   O15   D    
C56   O12   D    
C48   C50   A    
C43   C45   A    
C10   C12   A    
C44   C51   S    
C39   C49   A    
C12   C14   A    
C1    O3    A    
Cu1   N6    S    
C51   N2    A    
C39   C53   S    
C4    C10   A    
C28   N6    A    
Cu2   O6    S    
C5    C7    A    
Cu2   O3    S    
C21   C25   A    
C23   O5    A    
C41   C55   S    
C42   C56   S    
C5    C13   A    
C51   N3    A    
C54   O10   D    
C27   H4    S    
Cu1   Cu2   S    
C47   C49   A    
C52   N4    A    
C40   C54   S    
C36   C38   A    
C24   O8    A    
C28   C30   A    
C29   C31   A    
C52   N1    A    
C45   C57   S    
N7    H25   S    
C30   C32   A    
C11   C13   A    
C60   O16   D    
C40   C50   A    
C40   C42   A    
C58   H22   S    
C17   C19   A    
C19   H11   S    
C18   C20   A    
C56   H20   S    
C62   O18   D    
C2    O4    A    
Cu2   N5    S    
C37   H1    S    
C38   H2    S    
C54   H18   S    
C22   C26   A    
C59   H23   S    
C35   H9    S    
C25   N5    A    
C36   H10   S    
C15   C16   A    
Cu2   O2    S    
