data_mof_unit_42080.cif
_audit_creation_date              2012-12-10T17:31:09-0500
_audit_creation_method            fapswitch 2.2
_symmetry_space_group_name_H-M    P1
_symmetry_Int_Tables_number       1
_space_group_crystal_system       triclinic
_cell_length_a                    11.993713
_cell_length_b                    12.898498
_cell_length_c                    15.466576
_cell_angle_alpha                 87.181982
_cell_angle_beta                  115.410382
_cell_angle_gamma                 93.329791
_cell_volume                      2156.78960276

loop_
_atom_site_label
_atom_site_type_symbol
_atom_type_description
_atom_site_fract_x
_atom_site_fract_y
_atom_site_fract_z
_atom_type_partial_charge
C1    C     C_R   0.477659 0.299437 0.499131 0.891628
C2    C     C_R   0.522330 0.700567 0.500845 0.895401
C3    C     C_R   0.636970 0.407689 0.111312 -0.227783
C4    C     C_R   0.342819 0.415473 0.890285 -0.224967
C5    C     C_R   0.723837 0.404471 0.074380 -0.225267
C6    C     C_R   0.256329 0.421488 0.927329 -0.224238
C7    C     C_R   0.535597 0.811867 0.501558 -0.063970
C8    C     C_R   0.464358 0.188153 0.498333 -0.060918
C9    C     C_R   0.339688 0.030390 0.477408 -0.204626
C10   C     C_R   0.660235 0.969645 0.522395 -0.204737
C11   C     C_R   0.350596 0.137642 0.481179 -0.203349
C12   C     C_R   0.649346 0.862388 0.518674 -0.202478
C13   C     C_R   0.567502 0.132071 0.513019 -0.248920
C14   C     C_R   0.432434 0.867955 0.486818 -0.248114
C15   C     C_R   0.557372 0.025593 0.508951 0.173627
C16   C     C_R   0.442550 0.974438 0.490849 0.173968
C17   C     C_R   0.999972 0.593415 0.405574 -0.380838
C18   C     C_R   0.000138 0.406700 0.594615 -0.385165
C19   C     C_R   0.121441 0.585325 0.415481 0.751307
C20   C     C_R   0.878613 0.414768 0.584633 0.750558
C21   C     C_R   0.162806 0.460667 0.542116 -0.146934
C22   C     C_R   0.837244 0.539319 0.457926 -0.148153
C23   C     C_R   0.575691 0.492395 0.680406 0.877525
C24   C     C_R   0.423623 0.502884 0.319505 0.880560
C25   C     C_R   0.041270 0.466372 0.534720 0.013889
C26   C     C_R   0.958805 0.533638 0.465384 0.009526
C27   C     C_R   0.618828 0.471211 0.783072 -0.063705
C28   C     C_R   0.375642 0.487597 0.216608 -0.063015
C29   C     C_R   0.777875 0.430665 0.940562 -0.200958
C30   C     C_R   0.208894 0.456490 0.060376 -0.201750
C31   C     C_R   0.743087 0.454878 0.843741 -0.164152
C32   C     C_R   0.248866 0.479455 0.156671 -0.175403
C33   C     C_R   0.530020 0.460035 0.818915 -0.264134
C34   C     C_R   0.461045 0.471161 0.180249 -0.261169
C35   C     C_R   0.561741 0.432030 0.914377 0.093805
C36   C     C_R   0.423404 0.442292 0.086012 0.093872
C37   C     C_R   0.688356 0.421394 0.976686 0.175318
C38   C     C_R   0.295458 0.439351 0.024305 0.173688
C39   C     C_R   0.471260 0.422949 0.950489 0.070409
C40   C     C_R   0.510973 0.423725 0.050472 0.068583
H1    H     H_    0.819791 0.393520 0.122942 0.150457
H2    H     H_    0.158769 0.416498 0.879266 0.159613
H3    H     H_    0.938683 0.645886 0.351423 0.173266
H4    H     H_    0.061499 0.354374 0.648906 0.166151
H5    H     H_    0.557902 0.483977 0.226108 0.160482
H6    H     H_    0.435974 0.477441 0.771883 0.161275
H7    H     H_    0.181220 0.490700 0.184041 0.175995
H8    H     H_    0.812930 0.461595 0.816692 0.181429
H9    H     H_    0.874651 0.420877 0.987409 0.133923
H10   H     H_    0.110734 0.452687 0.014088 0.135205
H11   H     H_    0.670257 0.395384 0.187743 0.152017
H12   H     H_    0.306867 0.402706 0.814433 0.143519
H13   H     H_    0.343910 0.829028 0.472755 0.188942
H14   H     H_    0.656032 0.170995 0.527095 0.188432
H15   H     H_    0.729561 0.819231 0.530085 0.165901
H16   H     H_    0.270392 0.180803 0.469793 0.164888
H17   H     H_    0.251392 0.991403 0.463684 0.148146
H18   H     H_    0.748526 0.008635 0.536110 0.147928
H19   H     H_    0.773176 0.591215 0.405178 0.156202
H20   H     H_    0.226891 0.408770 0.594864 0.150806
N1    N     N_R   0.799120 0.480200 0.517090 -0.143803
N2    N     N_R   0.200880 0.519800 0.482910 -0.144411
O1    O     O_R   0.580150 0.341050 0.504560 -0.582276
O2    O     O_R   0.419850 0.658950 0.495440 -0.580286
O3    O     O_R   0.388090 0.353760 0.493600 -0.636964
O4    O     O_R   0.611910 0.646240 0.506400 -0.634383
O5    O     O_R   0.650890 0.490020 0.640860 -0.571841
O6    O     O_R   0.349110 0.509980 0.359140 -0.570568
O7    O     O_R   0.458830 0.502730 0.629890 -0.634148
O8    O     O_R   0.541170 0.497270 0.370110 -0.636131
Zn1   Zn    Zn3+2 0.628240 0.491510 0.507320 0.989260
Zn2   Zn    Zn3+2 0.371760 0.508490 0.492680 0.990410
F1    F     F_    0.840478 0.357072 0.643288 -0.677460
F2    F     F_    0.159602 0.643122 0.356897 -0.670896

loop_
_geom_bond_atom_site_label_1
_geom_bond_atom_site_label_2
_ccdc_geom_bond_type
C8    C13   A    
C5    C37   A    
C1    C8    S    
C23   O7    A    
C2    C7    S    
C24   O8    A    
C29   H9    S    
C27   C33   A    
C4    H12   S    
C17   C26   A    
C10   H18   S    
C9    C16   A    
C10   C15   A    
O5    Zn1   S    
C19   N2    A    
C15   C16   A    
C30   C38   A    
C23   O5    A    
C20   N1    A    
C21   C25   A    
C17   C19   A    
C7    C14   A    
C1    O3    A    
C6    C38   A    
O8    Zn1   S    
C23   C27   S    
C34   C36   A    
N1    Zn1   S    
C30   H10   S    
C28   C34   A    
C33   H6    S    
C18   C25   A    
C1    O1    A    
C2    O2    A    
C7    C12   A    
C27   C31   A    
C36   C40   A    
C9    H17   S    
C4    C6    A    
C22   H19   S    
C3    H11   S    
C3    C5    A    
C25   C26   A    
O7    Zn2   S    
C35   C39   A    
C17   H3    S    
C18   H4    S    
O4    Zn1   S    
C4    C39   A    
C28   C32   A    
O6    Zn2   S    
N2    Zn2   S    
C34   H5    S    
C9    C11   A    
C21   N2    A    
C10   C12   A    
C21   H20   S    
O1    Zn1   S    
C3    C40   A    
C31   H8    S    
C13   C15   A    
C6    H2    S    
C32   H7    S    
C14   C16   A    
C39   C40   A    
C13   H14   S    
C5    H1    S    
C35   C37   A    
C19   F2    S    
C24   C28   S    
C2    O4    A    
O3    Zn2   S    
C36   C38   A    
C29   C31   A    
C22   N1    A    
C30   C32   A    
C8    C11   A    
C33   C35   A    
C20   F1    S    
C18   C20   A    
O2    Zn2   S    
C12   H15   S    
C24   O6    A    
C14   H13   S    
C22   C26   A    
C29   C37   A    
C11   H16   S    
