data_mof_unit_45691.cif
_audit_creation_date              2013-03-05T15:53:32-0500
_audit_creation_method            fapswitch 2.2
_symmetry_space_group_name_H-M    P1
_symmetry_Int_Tables_number       1
_space_group_crystal_system       triclinic
_cell_length_a                    30.375881
_cell_length_b                    7.261395
_cell_length_c                    26.125369
_cell_angle_alpha                 89.66458
_cell_angle_beta                  112.362849
_cell_angle_gamma                 89.931463
_cell_volume                      5328.99680464

loop_
_atom_site_label
_atom_site_type_symbol
_atom_site_description
_atom_site_fract_x
_atom_site_fract_y
_atom_site_fract_z
_atom_type_partial_charge
O1    O     O_R   0.295360 0.592990 0.320420 -0.592943
O2    O     O_R   0.704640 0.407010 0.679580 -0.560362
O3    O     O_R   0.204640 0.092990 0.179580 -0.600045
O4    O     O_R   0.795360 0.907010 0.820420 -0.542420
O5    O     O_R   0.294060 0.265620 0.213230 -0.597783
O6    O     O_R   0.705940 0.734380 0.786770 -0.542502
O7    O     O_R   0.205940 0.765620 0.286770 -0.601599
O8    O     O_R   0.794060 0.234380 0.713230 -0.544231
C1    C     C_R   0.303018 0.431457 0.198450 1.136278
C2    C     C_R   0.695639 0.566953 0.800293 1.088381
C3    C     C_R   0.197012 0.930909 0.301581 1.137676
C4    C     C_R   0.804977 0.066601 0.700396 1.073252
O9    O     O_R   0.300850 0.263360 0.322080 -0.535833
O10   O     O_R   0.699150 0.736640 0.677920 -0.604290
O11   O     O_R   0.199150 0.763360 0.177920 -0.533632
O12   O     O_R   0.800850 0.236640 0.822080 -0.595638
O13   O     O_R   0.211480 0.091820 0.289210 -0.578209
O14   O     O_R   0.788520 0.908180 0.710790 -0.585517
O15   O     O_R   0.288520 0.591820 0.210790 -0.573124
O16   O     O_R   0.711480 0.408180 0.789210 -0.581392
C5    C     C_R   0.312320 0.430982 0.344351 0.961466
C6    C     C_R   0.686325 0.570062 0.656456 0.956752
C7    C     C_R   0.187805 0.932237 0.155772 0.968879
C8    C     C_R   0.814088 0.067707 0.842915 0.940342
O17   O     O_3   0.220670 0.426670 0.239090 -0.278786
O18   O     O_3   0.779330 0.573330 0.760910 -0.255973
O19   O     O_3   0.279330 0.926670 0.260910 -0.276152
O20   O     O_3   0.720670 0.073330 0.739090 -0.263917
V1    V     V_3+5 0.255440 0.152290 0.252020 1.276646
V2    V     V_3+5 0.744560 0.847710 0.747980 1.306735
V3    V     V_3+5 0.244560 0.652290 0.247980 1.278634
V4    V     V_3+5 0.755440 0.347710 0.752020 1.305183
C9    C     C_R   0.852240 0.057947 0.899311 -0.183848
C10   C     C_R   0.153020 0.940612 0.097489 -0.136580
C11   C     C_R   0.647497 0.570261 0.600100 -0.160315
C12   C     C_R   0.346888 0.436861 0.403039 -0.132111
C13   C     C_R   0.879164 0.088006 0.998628 -0.184189
C14   C     C_R   0.131657 0.905568 0.998693 -0.217657
C15   C     C_R   0.616554 0.645299 0.501842 -0.193869
C16   C     C_R   0.368047 0.434473 0.502654 -0.202614
C17   C     C_R   0.843063 0.107704 0.946185 0.193001
C18   C     C_R   0.166773 0.938268 0.051165 0.233813
C19   C     C_R   0.651221 0.671183 0.555191 0.224847
C20   C     C_R   0.332691 0.441397 0.449064 0.232655
C21   C     C_R   0.898476 0.000122 0.906048 -0.141308
C22   C     C_R   0.104042 0.938591 0.087715 -0.149277
C23   C     C_R   0.603399 0.487088 0.592070 -0.154658
C24   C     C_R   0.396065 0.435466 0.413479 -0.141103
C25   C     C_R   0.935820 0.974962 0.959284 0.098607
C26   C     C_R   0.068447 0.908841 0.034136 0.119233
C27   C     C_R   0.564394 0.498074 0.540129 0.106420
C28   C     C_R   0.431871 0.428577 0.468066 0.120949
C29   C     C_R   0.925102 0.022554 0.006300 0.073776
C30   C     C_R   0.083164 0.884361 0.989607 0.072568
C31   C     C_R   0.574217 0.547976 0.493255 0.074488
C32   C     C_R   0.417209 0.431845 0.513354 0.070064
C33   C     C_R   0.984170 0.917879 0.968180 -0.133148
C34   C     C_R   0.018624 0.909674 0.023648 -0.107737
C35   C     C_R   0.515724 0.467446 0.532810 -0.126500
C36   C     C_R   0.481795 0.431168 0.478466 -0.098195
C37   C     C_R   0.002079 0.902821 0.067261 0.246594
C38   C     C_R   0.000034 0.861054 0.925625 0.290377
C39   C     C_R   0.498957 0.406526 0.435448 0.244793
C40   C     C_R   0.499480 0.487109 0.576842 0.311604
C41   C     C_R   0.959955 0.998257 0.060552 0.036772
C42   C     C_R   0.049280 0.837457 0.936817 0.024959
C43   C     C_R   0.541350 0.499552 0.439665 0.013706
C44   C     C_R   0.451577 0.447141 0.568337 0.016343
H1    H     H_    0.094005 0.961589 0.122550 0.182049
H2    H     H_    0.903883 0.985096 0.868232 0.195029
H3    H     H_    0.406048 0.446938 0.378196 0.179121
H4    H     H_    0.599315 0.419127 0.626858 0.195169
H5    H     H_    0.870061 0.120684 0.033688 0.142887
H6    H     H_    0.143112 0.900277 0.964326 0.142419
H7    H     H_    0.622668 0.707489 0.467507 0.136467
H8    H     H_    0.355837 0.441304 0.536363 0.139836
C45   C     C_R   0.097521 0.885704 0.486728 0.522450
C46   C     C_R   0.915119 0.025184 0.528134 0.536592
C47   C     C_R   0.404961 0.405803 0.015875 0.522119
C48   C     C_R   0.588367 0.546037 0.976796 0.541103
N1    N     N_R   0.080671 0.945494 0.432501 -0.162823
N2    N     N_R   0.933912 0.994840 0.584483 -0.158066
N3    N     N_R   0.421649 0.459526 0.070416 -0.162822
N4    N     N_R   0.569880 0.518235 0.920460 -0.158397
C49   C     C_R   0.035807 0.021242 0.408801 0.575818
C50   C     C_R   0.981759 0.958388 0.611337 0.589308
C51   C     C_R   0.466638 0.532117 0.094901 0.577774
C52   C     C_R   0.521930 0.486785 0.893084 0.588781
C53   C     C_R   0.004979 0.023185 0.437648 -0.079344
C54   C     C_R   0.011352 0.937757 0.581206 -0.084058
C55   C     C_R   0.497675 0.537544 0.066319 -0.078931
C56   C     C_R   0.491954 0.465907 0.922698 -0.080798
C57   C     C_R   0.022466 0.967983 0.493532 0.002205
C58   C     C_R   0.992772 0.977250 0.524140 0.002054
C59   C     C_R   0.480356 0.488383 0.010143 0.002149
C60   C     C_R   0.510317 0.500238 0.979904 0.002289
C61   C     C_R   0.069602 0.904274 0.518929 -0.067170
C62   C     C_R   0.944603 0.026781 0.497609 -0.071588
C63   C     C_R   0.433146 0.427614 0.984107 -0.067152
C64   C     C_R   0.558551 0.546699 0.006953 -0.071101
C65   C     C_R   0.957179 0.079058 0.411985 -0.069777
C66   C     C_R   0.059056 0.880250 0.606724 -0.089351
C67   C     C_R   0.545514 0.590853 0.092512 -0.071666
C68   C     C_R   0.444159 0.411900 0.896554 -0.089850
C69   C     C_R   0.927052 0.076567 0.441256 -0.097836
C70   C     C_R   0.087494 0.859550 0.575687 -0.105482
C71   C     C_R   0.575868 0.591274 0.063502 -0.096953
C72   C     C_R   0.415425 0.388857 0.927144 -0.104857
O21   O     O_2   0.140920 0.806528 0.509478 -0.537214
O22   O     O_2   0.867907 0.053074 0.501409 -0.535004
O23   O     O_2   0.361437 0.329476 0.992389 -0.535813
O24   O     O_2   0.635570 0.571261 0.003895 -0.535145
O25   O     O_2   0.021004 0.095670 0.357546 -0.492146
O26   O     O_2   0.000929 0.944327 0.667009 -0.504114
O27   O     O_2   0.481361 0.599964 0.146670 -0.493294
O28   O     O_2   0.503089 0.477027 0.837358 -0.507520
H9    H     H_    0.942623 0.121094 0.368892 0.182841
H10   H     H_    0.074290 0.847580 0.650514 0.175882
H11   H     H_    0.559931 0.628445 0.135814 0.180801
H12   H     H_    0.429103 0.383329 0.852624 0.174835
H13   H     H_    0.890206 0.117054 0.419840 0.178829
H14   H     H_    0.123768 0.811447 0.596522 0.174547
H15   H     H_    0.612748 0.629295 0.085334 0.178403
H16   H     H_    0.379092 0.343299 0.905836 0.174693
C73   C     C_R   0.899713 0.868156 0.651184 0.326709
C74   C     C_R   0.093792 0.847519 0.347577 0.291731
C75   C     C_R   0.602945 0.382200 0.854454 0.315845
C76   C     C_R   0.407207 0.350866 0.153882 0.292305
C77   C     C_R   0.869895 0.891439 0.681446 0.205217
C78   C     C_R   0.121582 0.855663 0.314735 0.185619
C79   C     C_R   0.631690 0.400186 0.822798 0.225313
C80   C     C_R   0.378701 0.353607 0.185961 0.183189
C81   C     C_R   0.839637 0.049774 0.672087 -0.507195
C82   C     C_R   0.167814 0.933069 0.336034 -0.481194
C83   C     C_R   0.662849 0.553791 0.830907 -0.492146
C84   C     C_R   0.332831 0.435799 0.164735 -0.482301
C85   C     C_R   0.841439 0.184166 0.633380 0.390134
C86   C     C_R   0.187226 0.989472 0.392222 0.279704
C87   C     C_R   0.663505 0.689323 0.870157 0.376480
C88   C     C_R   0.314387 0.501271 0.109208 0.284600
C89   C     C_R   0.875065 0.167830 0.608925 -0.141381
C90   C     C_R   0.156962 0.001463 0.421550 -0.174167
C91   C     C_R   0.630609 0.679460 0.895864 -0.139202
C92   C     C_R   0.345207 0.516495 0.080717 -0.171616
H17   H     H_    0.877407 0.275174 0.581160 0.222847
H18   H     H_    0.170344 0.060755 0.462538 0.201003
H19   H     H_    0.629718 0.788267 0.923602 0.222110
H20   H     H_    0.332427 0.581462 0.040252 0.199310
C93   C     C_R   0.903112 0.009907 0.615525 -0.039281
C94   C     C_R   0.110514 0.931246 0.400282 -0.008151
C95   C     C_R   0.601115 0.526296 0.889834 -0.032147
C96   C     C_R   0.391373 0.442448 0.102028 -0.008476
C97   C     C_3   0.955066 0.085190 0.111168 -0.341041
C98   C     C_3   0.956100 0.295674 0.108317 -0.719599
H21   H     H_    0.989814 0.341463 0.105037 0.292380
H22   H     H_    0.925788 0.351715 0.072498 0.235043
H23   H     H_    0.954286 0.354114 0.146655 0.285465
H24   H     H_    0.922371 0.036567 0.116346 0.208676
H25   H     H_    0.985442 0.047653 0.149738 0.268740
C99   C     C_3   0.065516 0.749825 0.893617 -0.289179
C100  C     C_3   0.088162 0.560462 0.912790 -0.787770
H26   H     H_    0.120905 0.570272 0.950798 0.271106
H27   H     H_    0.062461 0.468175 0.921119 0.267622
H28   H     H_    0.097897 0.498053 0.879811 0.258683
H29   H     H_    0.036146 0.727091 0.853321 0.266926
H30   H     H_    0.090340 0.841670 0.883671 0.185292
C101  C     C_3   0.550494 0.549816 0.387932 -0.270071
C102  C     C_3   0.588602 0.426920 0.380524 -0.717720
H31   H     H_    0.623809 0.448337 0.414264 0.227430
H32   H     H_    0.579192 0.279274 0.380303 0.282260
H33   H     H_    0.591745 0.460890 0.340560 0.261824
H34   H     H_    0.517302 0.543415 0.350366 0.254121
H35   H     H_    0.560994 0.696547 0.389227 0.184072
C103  C     C_3   0.437179 0.434842 0.618180 -0.316183
C104  C     C_3   0.422898 0.622549 0.633324 -0.723626
H36   H     H_    0.453560 0.718389 0.646226 0.292898
H37   H     H_    0.393359 0.684400 0.597703 0.238442
H38   H     H_    0.410959 0.605846 0.668310 0.253612
H39   H     H_    0.408045 0.334183 0.611058 0.182748
H40   H     H_    0.466201 0.374904 0.654500 0.258752
N5    N     N_R   0.806980 0.329955 0.614294 0.252761
O29   O     O_R   0.762163 0.295008 0.602406 -0.451605
O30   O     O_R   0.818297 0.481197 0.595352 -0.391724
N6    N     N_R   0.237771 0.015153 0.422469 0.220640
O31   O     O_R   0.267663 0.023299 0.397755 -0.425810
O32   O     O_R   0.255097 0.005083 0.476300 -0.411649
N7    N     N_R   0.699583 0.829401 0.888030 0.251536
O33   O     O_R   0.743614 0.787296 0.897284 -0.460558
O34   O     O_R   0.690850 0.984277 0.907250 -0.388355
N8    N     N_R   0.264081 0.531517 0.078405 0.217190
O35   O     O_R   0.234089 0.549037 0.102702 -0.434593
O36   O     O_R   0.247008 0.518749 0.024672 -0.415343
C105  C     C_3   0.216269 0.972678 0.050660 -0.386729
C106  C     C_3   0.256544 0.028790 0.103823 -0.748884
H41   H     H_    0.247010 0.160254 0.118096 0.270533
H42   H     H_    0.265056 0.918765 0.135753 0.256392
H43   H     H_    0.289161 0.053191 0.095181 0.243473
H44   H     H_    0.227673 0.849639 0.034182 0.254558
H45   H     H_    0.212807 0.085451 0.020315 0.221634
C107  C     C_3   0.795180 0.181823 0.942200 -0.327053
C108  C     C_3   0.797370 0.388973 0.952264 -0.781609
H46   H     H_    0.823680 0.421253 0.994260 0.249225
H47   H     H_    0.807452 0.461850 0.920837 0.272919
H48   H     H_    0.761839 0.439264 0.948942 0.273213
H49   H     H_    0.766793 0.155456 0.901176 0.231151
H50   H     H_    0.784227 0.111073 0.973295 0.237160
C109  C     C_3   0.282221 0.459740 0.448263 -0.386463
C110  C     C_3   0.240612 0.490537 0.393667 -0.761800
H51   H     H_    0.245622 0.623121 0.375937 0.269680
H52   H     H_    0.236300 0.374584 0.364866 0.263109
H53   H     H_    0.207225 0.501181 0.401494 0.244395
H54   H     H_    0.274578 0.336890 0.468678 0.253513
H55   H     H_    0.281944 0.578931 0.474749 0.224975
C111  C     C_3   0.689331 0.814883 0.562124 -0.486949
C112  C     C_3   0.737809 0.730123 0.573310 -0.609000
H56   H     H_    0.751757 0.661547 0.614401 0.266223
H57   H     H_    0.735084 0.629628 0.540364 0.279638
H58   H     H_    0.763250 0.839813 0.573263 0.237047
H59   H     H_    0.679810 0.900689 0.523994 0.213079
H60   H     H_    0.691424 0.912852 0.595375 0.234202
N9    N     N_R   0.021171 0.766324 0.111081 0.254211
O37   O     O_R   0.999411 0.730995 0.144362 -0.340330
O38   O     O_R   0.051594 0.643999 0.108408 -0.363802
N10   N     N_R   0.966914 0.806398 0.872654 0.224727
O39   O     O_R   0.964073 0.899021 0.828657 -0.366641
O40   O     O_R   0.943500 0.653292 0.867784 -0.338209
N11   N     N_R   0.478692 0.262346 0.395084 0.251788
O41   O     O_R   0.490386 0.242219 0.352466 -0.313699
O42   O     O_R   0.455281 0.128753 0.406562 -0.356808
N12   N     N_R   0.528012 0.585804 0.625838 0.226686
O43   O     O_R   0.540524 0.754692 0.621485 -0.371798
O44   O     O_R   0.541218 0.510122 0.674618 -0.356326
N13   N     N_R   0.926224 0.700218 0.656494 0.273237
O45   O     O_R   0.925002 0.613312 0.612562 -0.397857
O46   O     O_R   0.953813 0.639278 0.705109 -0.278089
N14   N     N_R   0.048840 0.753404 0.327565 0.268243
O47   O     O_R   0.038127 0.639775 0.359732 -0.372534
O48   O     O_R   0.017947 0.784224 0.277698 -0.274023
N15   N     N_R   0.575888 0.217133 0.850899 0.269159
O49   O     O_R   0.577861 0.132433 0.895756 -0.400762
O50   O     O_R   0.547507 0.155679 0.803023 -0.286146
N16   N     N_R   0.451981 0.254271 0.173807 0.268988
O51   O     O_R   0.462976 0.144899 0.141165 -0.374088
O52   O     O_R   0.482460 0.278789 0.224122 -0.277839
N17   N     N_R   0.869980 0.752115 0.720943 0.285957
O53   O     O_R   0.873967 0.797852 0.770523 -0.329815
O54   O     O_R   0.864278 0.579534 0.707066 -0.315769
N18   N     N_R   0.103657 0.777386 0.260428 0.274807
O55   O     O_R   0.101938 0.876237 0.218098 -0.408929
O56   O     O_R   0.091566 0.604691 0.253584 -0.289014
N19   N     N_R   0.629428 0.260736 0.782953 0.278759
O57   O     O_R   0.620692 0.305661 0.731763 -0.356758
O58   O     O_R   0.636064 0.088223 0.797522 -0.313799
N20   N     N_R   0.395350 0.263859 0.239039 0.278342
O59   O     O_R   0.394707 0.350666 0.282110 -0.403443
O60   O     O_R   0.407695 0.091000 0.243623 -0.290828

loop_
_geom_bond_atom_site_label_1
_geom_bond_atom_site_label_2
_geom_bond_distance
_ccdc_geom_bond_type
O17   V3    1.773042 S    
N3    C51   1.376613 A    
O1    C5    1.336062 A    
C107  H49   1.108353 S    
C51   C55   1.408331 A    
O19   V1    1.768920 S    
C9    C21   1.410451 A    
C108  H46   1.110688 S    
C90   H18   1.082520 S    
O3    C7    1.333736 A    
C59   C60   1.416424 A    
C10   C18   1.422796 A    
C71   H15   1.083011 S    
C48   N4    1.377350 A    
C11   C23   1.411617 A    
N10   O39   1.302434 A    
C42   C99   1.533995 S    
C100  H26   1.108959 S    
C89   C93   1.397905 A    
N19   O57   1.300002 A    
C104  H37   1.109758 S    
C5    C12   1.493669 S    
C77   N17   1.440137 S    
N5    O29   1.301577 A    
N6    O31   1.300225 A    
C81   C85   1.417257 A    
C6    C11   1.495798 S    
C35   C40   1.421539 A    
C57   C58   1.416628 A    
C62   C69   1.406572 A    
C36   C39   1.419442 A    
C75   N15   1.437479 S    
C40   C44   1.416566 A    
C47   C63   1.409371 A    
C53   C65   1.406036 A    
N15   O49   1.301241 A    
O10   V2    2.000521 S    
C14   C18   1.401839 A    
C79   C83   1.427405 A    
C111  H59   1.112339 S    
C112  H57   1.110623 S    
O16   V4    1.977559 S    
C76   N16   1.437853 S    
O4    C8    1.336353 A    
C59   C63   1.405936 A    
C80   C84   1.418201 A    
N19   O58   1.300058 A    
C106  H43   1.110927 S    
C85   N5    1.434920 S    
C58   C62   1.405269 A    
C105  H44   1.104891 S    
C11   C19   1.420379 A    
O1    V3    1.978601 S    
C88   N8    1.446463 S    
N14   O47   1.301365 A    
O2    V4    1.978600 S    
C1    O15   1.328558 A    
C97   H24   1.109847 S    
O3    V1    1.984216 S    
C103  C104  1.529045 S    
C54   C66   1.406686 A    
C22   H1    1.077890 S    
C41   C97   1.525824 S    
C28   C36   1.435434 A    
C75   C95   1.415112 A    
C87   C91   1.401742 A    
C76   C96   1.414803 A    
C102  H33   1.110360 S    
C15   C31   1.410020 A    
C52   C56   1.409146 A    
C2    O16   1.324080 A    
C110  H51   1.101531 S    
C16   C32   1.410961 A    
C37   N9    1.452396 S    
C46   C62   1.407676 A    
N16   O52   1.301459 A    
C45   C61   1.410340 A    
C10   C22   1.410626 A    
C99   H30   1.108666 S    
C74   N14   1.438064 S    
N13   O45   1.301178 A    
C16   C20   1.403922 A    
C98   H22   1.108180 S    
C66   H10   1.083023 S    
C84   C88   1.420257 A    
C101  H35   1.109561 S    
C13   C29   1.413413 A    
C34   C37   1.410116 A    
O11   C7    1.340263 A    
C106  H41   1.104476 S    
O15   V3    1.977562 S    
C35   C36   1.427898 A    
O12   C8    1.336865 A    
C105  C106  1.518752 S    
N17   O53   1.299429 A    
C48   C64   1.408546 A    
C53   C57   1.406029 A    
C108  H47   1.111123 S    
C48   O24   1.349196 S    
C78   C82   1.417283 A    
C72   H16   1.083005 S    
C17   C107  1.516009 S    
C87   N7    1.439620 S    
C76   C80   1.415931 A    
C100  H27   1.111188 S    
N18   O56   1.301208 A    
N1    C49   1.376674 A    
C54   C58   1.406356 A    
C104  H38   1.110284 S    
O5    V1    1.994390 S    
N5    O30   1.301216 A    
C56   C60   1.406143 A    
C65   C69   1.398226 A    
C39   C43   1.421874 A    
O7    V3    1.998122 S    
C38   C42   1.420724 A    
C52   O28   1.348827 S    
C69   H13   1.083019 S    
C109  C110  1.518461 S    
O8    V4    1.998129 S    
C88   C92   1.404378 A    
C33   C38   1.432145 A    
C73   N13   1.437176 S    
C2    C83   1.498800 S    
C98   H23   1.110496 S    
C46   O22   1.349415 S    
C86   C90   1.405825 A    
C3    C82   1.484798 S    
C101  C102  1.530963 S    
C78   N18   1.433472 S    
C111  C112  1.516881 S    
C107  C108  1.525693 S    
C23   C27   1.423600 A    
C32   C44   1.423616 A    
O6    V2    1.994390 S    
C20   C109  1.530869 S    
C16   H8    1.079163 S    
N10   O40   1.301043 A    
C26   C34   1.431793 A    
C97   H25   1.108933 S    
C18   C105  1.529385 S    
O7    C3    1.322245 A    
C112  H56   1.107719 S    
C1    C84   1.484474 S    
N8    O35   1.299925 A    
C82   C86   1.420993 A    
N9    O37   1.301473 A    
C63   C72   1.406897 A    
C73   C77   1.421340 A    
O2    C6    1.345577 A    
C46   N2    1.377688 A    
C57   C61   1.405783 A    
N20   O60   1.301318 A    
N11   O41   1.299996 A    
C14   C30   1.408824 A    
C21   C25   1.431952 A    
O8    C4    1.339802 A    
C7    C10   1.487657 S    
C29   C41   1.419735 A    
C70   H14   1.082983 S    
C106  H42   1.108417 S    
O9    C5    1.340327 A    
N15   O50   1.301451 A    
C26   C30   1.408087 A    
C99   H29   1.104157 S    
C49   C53   1.407894 A    
N12   O44   1.299743 A    
N13   O46   1.301490 A    
C98   H21   1.110823 S    
C73   C93   1.414283 A    
O14   V2    1.975748 S    
C61   C70   1.407228 A    
C102  H31   1.108851 S    
N11   O42   1.302746 A    
N9    O38   1.302224 A    
C91   H19   1.082463 S    
C15   H7    1.079465 S    
C4    C81   1.504546 S    
N17   O54   1.299980 A    
C50   C54   1.410558 A    
C109  H54   1.106017 S    
C108  H48   1.110473 S    
C77   C81   1.431642 A    
C112  H58   1.110761 S    
C27   C35   1.434513 A    
N1    C94   1.456855 S    
O9    V1    2.000521 S    
C24   H3    1.077225 S    
C4    O14   1.322104 A    
C103  H40   1.106642 S    
C68   C72   1.399307 A    
C100  H28   1.110512 S    
C86   N6    1.447644 S    
N18   O55   1.299098 A    
C67   C71   1.398687 A    
N3    C96   1.456091 S    
C14   H6    1.080171 S    
C43   C101  1.522195 S    
C38   N10   1.425748 S    
C85   C89   1.400956 A    
C45   O21   1.348939 S    
C64   C71   1.406670 A    
C44   C103  1.525452 S    
N16   O51   1.301362 A    
C21   H2    1.067524 S    
C51   O27   1.349068 S    
N8    O36   1.302264 A    
C67   H11   1.083058 S    
N4    C52   1.376650 A    
C55   C67   1.406259 A    
C79   N19   1.439364 S    
C3    O13   1.329564 A    
O6    C2    1.334458 A    
C25   C33   1.456220 A    
C39   N11   1.451744 S    
O20   V2    1.768921 S    
O11   V3    1.990522 S    
C101  H34   1.108866 S    
C30   C42   1.415508 A    
C80   N20   1.434707 S    
O12   V4    1.990524 S    
C22   C26   1.423907 A    
C13   H5    1.080223 S    
C8    C9    1.489339 S    
N6    O32   1.302188 A    
N2    C50   1.376814 A    
C47   O23   1.349068 S    
C50   O26   1.348532 S    
C83   C87   1.420120 A    
C9    C17   1.404514 A    
C99   C100  1.530459 S    
C90   C94   1.402785 A    
N20   O59   1.299580 A    
C49   O25   1.349115 S    
C65   H9    1.083059 S    
N7    O33   1.301106 A    
C92   C96   1.402214 A    
C104  H36   1.109432 S    
C105  H45   1.113045 S    
O13   V1    1.975743 S    
C40   N12   1.439198 S    
C74   C94   1.414898 A    
O10   C6    1.331222 A    
C33   C34   1.429538 A    
C31   C43   1.422503 A    
C110  H53   1.110927 S    
C25   C29   1.429391 A    
C109  H55   1.113282 S    
C60   C64   1.405712 A    
C91   C95   1.400528 A    
C89   H17   1.082405 S    
N14   O48   1.301441 A    
C12   C24   1.412741 A    
C27   C31   1.411765 A    
C13   C17   1.397913 A    
N12   O43   1.301430 A    
C75   C79   1.418444 A    
C23   H4    1.079624 S    
N7    O34   1.301738 A    
N2    C93   1.457116 S    
C12   C20   1.424028 A    
C56   C68   1.406430 A    
C55   C59   1.406108 A    
C47   N3    1.377277 A    
N4    C95   1.456395 S    
C37   C41   1.404997 A    
C24   C28   1.427578 A    
C15   C19   1.404814 A    
C110  H52   1.106764 S    
C45   N1    1.377681 A    
C66   C70   1.400127 A    
C102  H32   1.109371 S    
C74   C78   1.415241 A    
C107  H50   1.111649 S    
C111  H60   1.109077 S    
O5    C1    1.322333 A    
C97   C98   1.530730 S    
C19   C111  1.518989 S    
C103  H39   1.109005 S    
O18   V4    1.773043 S    
O4    V2    1.984219 S    
C28   C32   1.414249 A    
C68   H12   1.083052 S    
C92   H20   1.082710 S    
