data_mof_unit_15143.cif
_audit_creation_date              2012-12-10T19:24:55-0500
_audit_creation_method            fapswitch 2.2
_symmetry_space_group_name_H-M    P1
_symmetry_Int_Tables_number       1
_space_group_crystal_system       triclinic
_cell_length_a                    15.652601
_cell_length_b                    10.697939
_cell_length_c                    9.942264
_cell_angle_alpha                 90.992905
_cell_angle_beta                  90.744111
_cell_angle_gamma                 89.338666
_cell_volume                      1664.34078154

loop_
_atom_site_label
_atom_site_type_symbol
_atom_type_description
_atom_site_fract_x
_atom_site_fract_y
_atom_site_fract_z
_atom_type_partial_charge
C1    C     C_R   0.500014 0.257969 0.498848 1.010489
C2    C     C_R   0.500472 0.741959 0.500882 1.043541
C3    C     C_3   0.583807 0.958408 0.489853 -0.315005
C4    C     C_3   0.418932 0.040474 0.506461 -0.304011
C5    C     C_3   0.502814 0.877255 0.501588 -0.301865
C6    C     C_3   0.499273 0.122550 0.496345 -0.302577
C7    C     C_3   0.466668 0.963183 0.613240 0.422858
C8    C     C_3   0.535728 0.037244 0.383039 0.389998
C9    C     C_3   0.481557 0.392270 0.045657 0.522188
C10   C     C_3   0.517227 0.608070 0.954680 0.536968
C11   C     C_3   0.555451 0.421108 0.952997 -0.159104
C12   C     C_3   0.443180 0.577963 0.046996 -0.215582
C13   C     C_3   0.426254 0.468943 0.948595 -0.216472
C14   C     C_3   0.573468 0.530595 0.050080 -0.220194
C15   C     C_R   0.338667 0.501528 0.499214 0.930494
C16   C     C_R   0.661325 0.497106 0.500735 0.936880
C17   C     C_3   0.975695 0.378092 0.523477 0.391492
C18   C     C_3   0.024379 0.612340 0.475519 0.392914
C19   C     C_3   0.027366 0.416260 0.400009 -0.257168
C20   C     C_3   0.972801 0.574210 0.598978 -0.257215
C21   C     C_1   0.249795 0.502652 0.497277 -0.056779
C22   C     C_1   0.750212 0.492365 0.502441 -0.065610
C23   C     C_3   0.031513 0.459063 0.618645 0.384590
C24   C     C_3   0.968607 0.531395 0.380361 0.380309
C25   C     C_3   0.083572 0.497744 0.495544 -0.149679
C26   C     C_3   0.916526 0.492757 0.503493 -0.147314
C27   C     C_1   0.174438 0.501683 0.495972 0.188434
C28   C     C_1   0.825600 0.490566 0.503376 0.180360
C29   C     C_3   0.546974 0.043354 0.602760 0.411971
C30   C     C_3   0.455699 0.955958 0.394354 0.440701
N1    N     N_3   0.499940 0.500030 0.863290 -0.153517
N2    N     N_3   0.500060 0.499970 0.136710 -0.166655
O1    O     O_R   0.500000 0.313960 0.616610 -0.554746
O2    O     O_R   0.500000 0.686040 0.383390 -0.558159
O3    O     O_R   0.500040 0.313950 0.383350 -0.576216
O4    O     O_R   0.499960 0.686050 0.616650 -0.553415
O5    O     O_R   0.376760 0.499990 0.616610 -0.594157
O6    O     O_R   0.623240 0.500010 0.383390 -0.598328
O7    O     O_R   0.376790 0.499980 0.383350 -0.595174
O8    O     O_R   0.623210 0.500020 0.616650 -0.560296
Zn1   Zn    Zn3+2 0.499980 0.500010 0.655740 1.101225
Zn2   Zn    Zn3+2 0.500020 0.499990 0.344260 1.058374
C31   C     C_2   0.058591 0.329761 0.290360 0.921853
O9    O     O_2   0.006946 0.271932 0.221041 -0.592848
O10   O     O_R   0.146111 0.315952 0.267579 -0.831508
H1    H     H_    0.158987 0.255240 0.190880 0.336435
C32   C     C_2   0.942069 0.660974 0.708730 0.917905
O11   O     O_2   0.994052 0.718325 0.777881 -0.585966
O12   O     O_R   0.854646 0.675687 0.731729 -0.810159
H2    H     H_    0.842167 0.736606 0.808407 0.346517
O13   O     O_3   0.941500 0.259752 0.550722 -0.583486
C33   C     C_3   0.007625 0.169348 0.557172 -0.213962
H3    H     H_    0.065049 0.202543 0.613769 0.171285
H4    H     H_    0.025729 0.137541 0.454618 0.180936
H5    H     H_    0.983485 0.086926 0.610411 0.190527
O14   O     O_3   0.058475 0.730745 0.448235 -0.578292
C34   C     C_3   0.992275 0.821034 0.441640 -0.207160
H6    H     H_    0.974215 0.853044 0.544145 0.180741
H7    H     H_    0.934829 0.787648 0.385236 0.168672
H8    H     H_    0.016316 0.903373 0.388142 0.189544
O15   O     O_3   0.926112 0.568575 0.261058 -0.591756
C35   C     C_3   0.986139 0.600701 0.163457 -0.167014
H9    H     H_    0.022456 0.517457 0.127245 0.167382
H10   H     H_    0.030717 0.673900 0.200558 0.186588
H11   H     H_    0.951064 0.639287 0.075549 0.199471
O16   O     O_3   0.074040 0.421917 0.737932 -0.586428
C36   C     C_3   0.014040 0.389571 0.835484 -0.165574
H12   H     H_    0.969798 0.315908 0.798468 0.185002
H13   H     H_    0.977353 0.472594 0.871359 0.167587
H14   H     H_    0.049174 0.351491 0.923598 0.197767
C37   C     C_2   0.674339 0.909503 0.485403 0.907217
O17   O     O_2   0.733591 0.982672 0.481132 -0.631742
O18   O     O_R   0.690687 0.781204 0.488077 -0.808922
H15   H     H_    0.754063 0.760867 0.485084 0.342550
C38   C     C_2   0.327177 0.081964 0.513668 0.924197
O19   O     O_2   0.271428 0.003958 0.525202 -0.565828
O20   O     O_R   0.305756 0.208638 0.506522 -0.847103
H16   H     H_    0.241867 0.224130 0.512071 0.342567
O21   O     O_3   0.589871 0.099208 0.713425 -0.585216
C39   C     C_3   0.648595 0.014387 0.771302 -0.250157
H17   H     H_    0.627945 0.915163 0.764208 0.196813
H18   H     H_    0.656865 0.039443 0.878660 0.181283
H19   H     H_    0.712276 0.025029 0.725964 0.208238
O22   O     O_3   0.410635 0.893690 0.289928 -0.572335
C40   C     C_3   0.371895 0.980097 0.203184 -0.310300
H20   H     H_    0.420651 0.033653 0.149551 0.217097
H21   H     H_    0.325164 0.040955 0.256095 0.168656
H22   H     H_    0.334357 0.928657 0.125916 0.203258
O23   O     O_3   0.430699 0.916412 0.731361 -0.545489
C41   C     C_3   0.406689 0.016793 0.817223 -0.147320
H23   H     H_    0.372038 0.092210 0.764271 0.187341
H24   H     H_    0.463287 0.055618 0.871072 0.193047
H25   H     H_    0.361949 0.981719 0.892844 0.170849
O24   O     O_3   0.561087 0.090072 0.260740 -0.558930
C42   C     C_3   0.636644 0.033650 0.213857 -0.156513
H26   H     H_    0.636870 0.930272 0.222945 0.144340
H27   H     H_    0.692768 0.076568 0.264703 0.224211
H28   H     H_    0.642245 0.053341 0.106022 0.195069
C43   C     C_2   0.623789 0.329726 0.911078 1.064407
O25   O     O_2   0.655208 0.260937 0.995450 -0.618160
O26   O     O_R   0.656180 0.329062 0.781526 -0.733270
H29   H     H_    0.707675 0.271584 0.770812 0.350260
C44   C     C_2   0.370262 0.662535 0.087645 0.982855
O27   O     O_2   0.331725 0.720618 0.000642 -0.592117
O28   O     O_R   0.343214 0.670382 0.220116 -0.724681
H30   H     H_    0.289522 0.723300 0.231197 0.358255
O29   O     O_3   0.460811 0.275357 0.098585 -0.569480
C45   C     C_3   0.376685 0.280012 0.149570 -0.203201
H31   H     H_    0.333612 0.226588 0.080847 0.135275
H32   H     H_    0.349074 0.375413 0.165266 0.171044
H33   H     H_    0.376383 0.236175 0.249232 0.209435
O30   O     O_3   0.540892 0.723821 0.902119 -0.568413
C46   C     C_3   0.530658 0.818140 0.001579 -0.209798
H34   H     H_    0.465213 0.856264 0.996846 0.200439
H35   H     H_    0.574861 0.894470 0.981804 0.154803
H36   H     H_    0.543234 0.787164 0.105959 0.192450
C47   C     C_2   0.343103 0.426449 0.886819 0.983914
O31   O     O_2   0.277128 0.485536 0.907021 -0.572202
O32   O     O_R   0.341579 0.317564 0.807816 -0.801148
H37   H     H_    0.282088 0.297529 0.772766 0.347902
C48   C     C_2   0.659412 0.567998 0.106871 1.012187
O33   O     O_2   0.723200 0.506677 0.078457 -0.582324
O34   O     O_R   0.666477 0.673146 0.191244 -0.806387
H38   H     H_    0.727518 0.688849 0.221846 0.352465

loop_
_geom_bond_atom_site_label_1
_geom_bond_atom_site_label_2
_ccdc_geom_bond_type
O26   H29   S    
C7    C29   S    
O18   H15   S    
C42   H26   S    
O2    Zn2   S    
C31   O9    D    
C17   O13   S    
C41   H23   S    
C42   H28   S    
C1    O1    A    
O34   H38   S    
C32   O12   S    
O10   H1    S    
O14   C34   S    
C24   O15   S    
C18   C24   S    
C17   C26   S    
C23   O16   S    
C24   C26   S    
O6    Zn2   S    
C39   H19   S    
C40   H20   S    
C11   C14   S    
C34   H7    S    
C7    O23   S    
C45   H31   S    
C11   C43   S    
C3    C29   S    
O3    Zn2   S    
C9    C13   S    
C15   O5    A    
C4    C38   S    
C35   H10   S    
C9    N2    S    
C10   N1    S    
C43   O25   D    
C19   C31   S    
O29   C45   S    
C10   O30   S    
C33   H5    S    
C18   O14   S    
C46   H36   S    
C2    O2    A    
O16   C36   S    
C21   C27   T    
C11   N1    S    
C14   C48   S    
C22   C28   T    
C12   N2    S    
C30   O22   S    
O4    Zn1   S    
O15   C35   S    
C18   C25   S    
C4    C7    S    
O30   C46   S    
C33   H4    S    
O7    Zn2   S    
C40   H21   S    
O13   C33   S    
C8    O24   S    
O22   C40   S    
C12   C44   S    
C4    C6    S    
C3    C8    S    
C10   C14   S    
C5    C7    S    
C34   H8    S    
C6    C8    S    
O20   H16   S    
C1    C6    S    
C36   H13   S    
C3    C37   S    
C38   O19   D    
C35   H9    S    
C38   O20   S    
C41   H24   S    
C32   O11   D    
C29   O21   S    
C20   C23   S    
C44   O28   S    
C17   C23   S    
C9    C11   S    
C15   O7    A    
C48   O33   D    
C10   C12   S    
C16   O8    A    
C39   H18   S    
C36   H12   S    
C43   O26   S    
C2    C5    S    
C9    O29   S    
C33   H3    S    
C1    O3    A    
C41   H25   S    
C37   O18   S    
C46   H34   S    
C40   H22   S    
C2    O4    A    
O8    Zn1   S    
C16   C22   S    
N1    Zn1   S    
C35   H11   S    
C13   N1    S    
C14   N2    S    
C39   H17   S    
C3    C5    S    
C13   C47   S    
O32   H37   S    
C42   H27   S    
C25   C27   S    
O28   H30   S    
C26   C28   S    
C45   H33   S    
C36   H14   S    
C8    C30   S    
C47   O32   S    
C19   C24   S    
O1    Zn1   S    
C37   O17   D    
C31   O10   S    
C47   O31   D    
C34   H6    S    
C20   C26   S    
C17   C19   S    
C45   H32   S    
C18   C20   S    
C23   C25   S    
O5    Zn1   S    
O24   C42   S    
C19   C25   S    
C48   O34   S    
C20   C32   S    
O21   C39   S    
C15   C21   S    
C6    C29   S    
C12   C13   S    
O12   H2    S    
C5    C30   S    
C44   O27   D    
N2    Zn2   S    
O23   C41   S    
C4    C30   S    
C16   O6    A    
C46   H35   S    
