data_mof_unit_49520.cif
_audit_creation_date              2012-12-10T20:27:51-0500
_audit_creation_method            fapswitch 2.2
_symmetry_space_group_name_H-M    P1
_symmetry_Int_Tables_number       1
_space_group_crystal_system       triclinic
_cell_length_a                    12.685023
_cell_length_b                    10.815647
_cell_length_c                    9.92446
_cell_angle_alpha                 89.373686
_cell_angle_beta                  99.302382
_cell_angle_gamma                 88.901585
_cell_volume                      1343.31428142

loop_
_atom_site_label
_atom_site_type_symbol
_atom_type_description
_atom_site_fract_x
_atom_site_fract_y
_atom_site_fract_z
_atom_type_partial_charge
C1    C     C_R   0.505102 0.259626 0.500602 0.987120
C2    C     C_R   0.027474 0.584071 0.550369 -0.076156
C3    C     C_R   0.976099 0.504969 0.446076 -0.079270
C4    C     C_R   0.876100 0.456411 0.453300 0.351612
C5    C     C_R   0.876330 0.558530 0.669329 0.243180
C6    C     C_R   0.970464 0.619382 0.655990 0.130567
C7    C     C_R   0.548146 0.054663 0.614968 -0.047401
C8    C     C_R   0.517220 0.126550 0.497222 -0.217155
C9    C     C_R   0.496975 0.062336 0.371335 0.307462
C10   C     C_R   0.464722 0.940227 0.378178 0.348920
C11   C     C_R   0.503165 0.870364 0.497349 -0.182439
C12   C     C_R   0.298294 0.518459 0.470377 0.917817
C13   C     C_R   0.559129 0.929941 0.608992 -0.070514
C14   C     C_3   0.569054 0.913277 0.759965 -0.477863
C15   C     C_3   0.550441 0.053841 0.766070 0.691238
C16   C     C_R   0.434795 0.423312 0.059176 0.226689
C17   C     C_R   0.567095 0.573132 0.082692 0.293579
C18   C     C_R   0.565739 0.573268 0.939690 -0.081883
C19   C     C_R   0.434771 0.423312 0.916601 0.317070
C20   C     C_3   0.315762 0.425312 0.886748 -0.512225
C21   C     C_3   0.316474 0.431374 0.038563 -0.065190
C22   C     C_R   0.497451 0.739340 0.498892 0.951335
C23   C     C_R   0.703951 0.495727 0.530518 0.957716
C24   C     C_R   0.821316 0.495392 0.556797 -0.300011
C25   C     C_R   0.185299 0.557976 0.444873 -0.154683
C26   C     C_R   0.020400 0.488818 0.327140 -0.051070
C27   C     C_R   0.121460 0.529778 0.321945 0.150832
C28   C     C_R   0.136402 0.611995 0.547681 0.157530
H1    H     H_    0.651084 0.880832 0.804650 0.216906
H2    H     H_    0.614970 0.636170 0.893887 0.195591
H3    H     H_    0.281455 0.510134 0.832800 0.211333
H4    H     H_    0.282919 0.338561 0.840400 0.278911
H5    H     H_    0.291588 0.523034 0.069879 0.165892
H6    H     H_    0.971886 0.460295 0.233139 0.239039
H7    H     H_    0.506188 0.854138 0.789932 0.262003
N1    N     N_R   0.499290 0.499140 0.142710 -0.162472
N2    N     N_R   0.499290 0.499180 0.857070 -0.138118
O1    O     O_R   0.500010 0.316790 0.614690 -0.558878
O2    O     O_R   0.500000 0.316760 0.385350 -0.572057
O3    O     O_R   0.346360 0.499990 0.595720 -0.614910
O4    O     O_R   0.346350 0.499960 0.366370 -0.611610
O5    O     O_R   0.500000 0.683240 0.614650 -0.641412
O6    O     O_R   0.499990 0.683210 0.385310 -0.569603
O7    O     O_R   0.653650 0.500040 0.633630 -0.564787
O8    O     O_R   0.653640 0.500010 0.404280 -0.574886
Zn1   Zn    Zn3+2 0.500010 0.500020 0.653130 1.069439
Zn2   Zn    Zn3+2 0.499990 0.499980 0.346870 1.097311
S1    S     S_3+6 0.828341 0.328738 0.351260 0.092609
O9    O     O_2   0.755272 0.255771 0.425042 -0.232882
O10   O     O_2   0.768790 0.375026 0.216266 -0.229110
O11   O     O_3   0.931126 0.236567 0.324575 -0.517573
H8    H     H_    0.900551 0.180453 0.250844 0.407461
S2    S     S_3+6 0.422418 0.092053 0.815656 0.082258
O12   O     O_2   0.438330 0.165297 0.944073 -0.226393
O13   O     O_2   0.353892 0.165592 0.704128 -0.337268
O14   O     O_3   0.356314 0.964405 0.846540 -0.520963
H9    H     H_    0.287593 0.995348 0.870323 0.419323
S3    S     S_3+6 0.663664 0.134101 0.854066 0.129325
O15   O     O_2   0.629236 0.258017 0.899919 -0.179182
O16   O     O_2   0.715560 0.060258 0.976841 -0.269126
O17   O     O_3   0.753784 0.155390 0.749218 -0.493812
H10   H     H_    0.781325 0.071373 0.733341 0.369154
I1    I     I_    0.673518 0.699896 0.191145 -0.088599
I2    I     I_    0.243123 0.279335 0.122612 -0.100234
S4    S     S_3+6 0.853383 0.527264 0.838101 0.098457
O18   O     O_2   0.807395 0.640343 0.895222 -0.274179
O19   O     O_2   0.780702 0.420526 0.845256 -0.170884
O20   O     O_3   0.971172 0.490629 0.934859 -0.502502
H11   H     H_    0.998010 0.416754 0.891736 0.366819
I3    I     I_    0.991206 0.786550 0.770560 -0.087842
I4    I     I_    0.124983 0.646191 0.151344 -0.107140
I5    I     I_    0.235530 0.734865 0.678128 -0.209326
S5    S     S_3+6 0.580983 0.082029 0.246612 0.155858
O21   O     O_2   0.545203 0.000400 0.127110 -0.191422
O22   O     O_2   0.583546 0.213154 0.196799 -0.172387
O23   O     O_3   0.704586 0.034788 0.318510 -0.505604
H12   H     H_    0.745188 0.026126 0.241857 0.410285
S6    S     S_3+6 0.360150 0.887884 0.253186 0.100354
O24   O     O_2   0.280024 0.826731 0.326348 -0.295958
O25   O     O_2   0.307162 0.994994 0.169765 -0.227656
O26   O     O_3   0.406228 0.786649 0.148072 -0.518423
H13   H     H_    0.344877 0.772002 0.075034 0.382068

loop_
_geom_bond_atom_site_label_1
_geom_bond_atom_site_label_2
_ccdc_geom_bond_type
C16   C21   S    
C23   O8    A    
C1    C8    S    
S5    O21   D    
C19   C20   S    
O26   H13   S    
C10   S6    S    
C7    C8    A    
C2    C6    A    
S2    O12   D    
C25   C28   A    
O3    Zn1   S    
C26   C27   A    
C15   S2    S    
C18   N2    A    
C4    S1    S    
C5    C6    A    
C4    C24   A    
S6    O25   D    
C21   H5    S    
S3    O16   D    
O14   H9    S    
N1    Zn2   S    
O5    Zn1   S    
O8    Zn2   S    
C21   I2    S    
C19   N2    A    
C26   H6    S    
S1    O11   S    
C8    C9    A    
S4    O19   D    
C23   C24   S    
C18   H2    S    
C17   N1    A    
C9    C10   A    
S3    O17   S    
S1    O10   D    
C13   C14   S    
S5    O22   D    
C28   I5    S    
C9    S5    S    
O7    Zn1   S    
S2    O13   D    
O11   H8    S    
O23   H12   S    
C5    S4    S    
C14   H7    S    
S6    O24   D    
O20   H11   S    
S3    O15   D    
C23   O7    A    
C12   O3    A    
C12   O4    A    
C22   O6    A    
S4    O20   S    
C17   C18   A    
O4    Zn2   S    
C1    O1    A    
S1    O9    D    
S5    O23   S    
C14   H1    S    
C3    C4    A    
C27   I4    S    
O2    Zn2   S    
C20   H4    S    
S2    O14   S    
C6    I3    S    
C3    C26   A    
C25   C27   A    
C11   C22   S    
C12   C25   S    
C2    C3    A    
C17   I1    S    
C11   C13   A    
S6    O26   S    
C22   O5    A    
C5    C24   A    
C16   C19   A    
C7    C15   S    
C15   S3    S    
O17   H10   S    
O1    Zn1   S    
C10   C11   A    
C1    O2    A    
C7    C13   A    
C20   C21   S    
S4    O18   D    
C14   C15   S    
C2    C28   A    
N2    Zn1   S    
O6    Zn2   S    
C16   N1    A    
C20   H3    S    
