data_mof_unit_59811.cif
_audit_creation_date              2012-12-11T14:49:56-0500
_audit_creation_method            fapswitch 2.2
_symmetry_space_group_name_H-M    P1
_symmetry_Int_Tables_number       1
_space_group_crystal_system       triclinic
_cell_length_a                    16.888418
_cell_length_b                    16.755598
_cell_length_c                    19.506994
_cell_angle_alpha                 116.070091
_cell_angle_beta                  62.335376
_cell_angle_gamma                 100.128019
_cell_volume                      4388.78245835

loop_
_atom_site_label
_atom_site_type_symbol
_atom_type_description
_atom_site_fract_x
_atom_site_fract_y
_atom_site_fract_z
_atom_type_partial_charge
C1    C     C_R   0.024070 0.760207 0.026167 -0.067297
C2    C     C_R   0.236093 0.579824 0.834014 -0.101697
C3    C     C_R   0.193736 0.440762 0.041654 0.684462
C4    C     C_R   0.748147 0.478992 0.171406 -0.123534
C5    C     C_R   0.036630 0.328880 0.751605 -0.084785
C6    C     C_R   0.276239 0.450582 0.980916 -0.044142
C7    C     C_R   0.017838 0.244429 0.748310 0.009213
C8    C     C_R   0.233949 0.559592 0.757533 0.105694
C9    C     C_R   0.985409 0.232148 0.045406 0.080183
C10   C     C_R   0.084793 0.104294 0.636798 -0.122048
C11   C     C_R   0.020599 0.170567 0.674714 -0.016687
C12   C     C_R   0.741301 0.539091 0.251209 0.067536
C13   C     C_R   0.961638 0.168859 0.641757 -0.113320
C14   C     C_R   0.968023 0.096494 0.567065 -0.132274
C15   C     C_R   0.035429 0.029273 0.527058 -0.066603
C16   C     C_R   0.818676 0.506268 0.908653 -0.045081
C17   C     C_R   0.093771 0.033419 0.562100 -0.062198
C18   C     C_R   0.908877 0.087883 0.531532 0.772070
C19   C     C_R   0.918212 0.015730 0.457159 -0.334759
C20   C     C_R   0.984828 0.950895 0.417919 0.049925
C21   C     C_R   0.043939 0.956990 0.452323 0.058149
C22   C     C_R   0.110473 0.889572 0.412430 0.051863
C23   C     C_R   0.745548 0.452954 0.929329 0.009208
C24   C     C_R   0.168300 0.895028 0.447090 -0.333632
C25   C     C_R   0.159988 0.966704 0.521950 0.754883
C26   C     C_R   0.991487 0.878102 0.345618 -0.187823
C27   C     C_R   0.056126 0.812198 0.308007 0.114726
C28   C     C_R   0.011606 0.659779 0.239708 -0.212884
C29   C     C_R   0.116396 0.816811 0.339297 -0.117749
C30   C     C_R   0.372094 0.636417 0.698241 -0.248790
C31   C     C_R   0.294203 0.594214 0.693083 -0.109954
C32   C     C_R   0.279098 0.580227 0.623344 0.743670
C33   C     C_R   0.348040 0.592181 0.553102 -0.154181
C34   C     C_R   0.055068 0.736733 0.237643 0.010731
C35   C     C_R   0.429579 0.626190 0.555847 -0.028002
C36   C     C_R   0.439165 0.655885 0.631505 0.084216
C37   C     C_R   0.339314 0.563949 0.477700 -0.238297
C38   C     C_R   0.413600 0.559299 0.402943 0.728142
C39   C     C_R   0.497181 0.584496 0.403276 -0.091927
C40   C     C_R   0.752313 0.427751 0.985274 -0.115008
C41   C     C_R   0.503834 0.623163 0.480912 0.022262
C42   C     C_R   0.586719 0.651362 0.482261 0.160286
C43   C     C_R   0.593201 0.691144 0.559173 -0.239288
C44   C     C_R   0.519797 0.695046 0.634648 -0.090082
C45   C     C_R   0.261914 0.515778 0.961030 -0.181430
C46   C     C_R   0.575281 0.564638 0.327198 -0.152389
C47   C     C_R   0.659113 0.582226 0.328410 0.075725
C48   C     C_R   0.663457 0.633038 0.406095 -0.200323
C49   C     C_R   0.678444 0.418603 0.895058 0.151090
C50   C     C_R   0.361803 0.405145 0.948296 -0.056807
C51   C     C_R   0.451420 0.337753 0.977549 -0.207163
C52   C     C_R   0.075039 0.739277 0.162723 -0.089081
C53   C     C_R   0.368737 0.356668 0.988880 -0.171472
C54   C     C_R   0.439734 0.416697 0.882134 0.680420
C55   C     C_R   0.523290 0.401375 0.873341 -0.048773
C56   C     C_R   0.965640 0.248883 0.828966 -0.055472
C57   C     C_R   0.527745 0.367752 0.926199 0.093039
C58   C     C_R   0.605512 0.374620 0.935183 -0.143785
C59   C     C_R   0.679332 0.435668 0.830175 -0.141663
C60   C     C_R   0.601705 0.427694 0.819691 -0.081518
C61   C     C_R   0.778350 0.168061 0.161037 0.113860
C62   C     C_R   0.925643 0.862572 0.026043 0.025349
C63   C     C_R   0.870234 0.949378 0.983657 -0.193757
C64   C     C_R   0.826969 0.548145 0.246183 -0.081559
C65   C     C_R   0.909234 0.871694 0.965497 -0.134868
C66   C     C_R   0.902988 0.934814 0.107040 -0.116330
C67   C     C_R   0.158658 0.509794 0.758939 -0.067514
C68   C     C_R   0.862850 0.014259 0.125643 0.076843
C69   C     C_R   0.845999 0.020344 0.063227 0.182288
C70   C     C_R   0.803612 0.097039 0.081655 -0.255934
C71   C     C_R   0.794763 0.163263 0.222811 -0.146724
C72   C     C_R   0.836066 0.087114 0.205876 -0.151450
C73   C     C_R   0.943606 0.692643 0.952974 -0.096404
C74   C     C_R   0.963712 0.775667 0.002795 0.059418
C75   C     C_2   0.896475 0.244179 0.684813 1.133417
C76   C     C_2   0.854429 0.534141 0.838343 0.903236
C77   C     C_2   0.530785 0.739426 0.714398 1.021412
C78   C     C_R   0.022799 0.312416 0.077695 -0.052095
C79   C     C_2   0.996130 0.622261 0.301106 1.030106
C80   C     C_2   0.917396 0.926424 0.173004 0.951280
C81   C     C_R   0.948994 0.245135 0.000295 -0.139310
F1    F     F_    0.176790 0.397085 0.090623 -0.743835
F2    F     F_    0.840015 0.146689 0.568693 -0.675624
F3    F     F_    0.216312 0.970648 0.555261 -0.683271
F4    F     F_    0.200372 0.549989 0.620274 -0.711732
F5    F     F_    0.404795 0.524937 0.329589 -0.684912
F6    F     F_    0.435297 0.449377 0.831426 -0.720569
H1    H     H_    0.057173 0.809428 0.061505 0.106753
H2    H     H_    0.872233 0.009895 0.430808 0.183201
H3    H     H_    0.944812 0.870906 0.319524 0.156759
H4    H     H_    0.165659 0.763308 0.307907 0.131678
H5    H     H_    0.219223 0.843477 0.416722 0.186630
H6    H     H_    0.384261 0.647145 0.751113 0.175849
H7    H     H_    0.276581 0.539671 0.474907 0.230214
H8    H     H_    0.570796 0.529551 0.267571 0.170996
H9    H     H_    0.726834 0.651996 0.408720 0.130561
H10   H     H_    0.656653 0.716516 0.559801 0.180489
H11   H     H_    0.603546 0.354876 0.981652 0.110343
H12   H     H_    0.932729 0.195168 0.847131 0.104975
H13   H     H_    0.737346 0.458145 0.789213 0.146282
H14   H     H_    0.454713 0.307714 0.015395 0.162457
H15   H     H_    0.601606 0.448729 0.774556 0.190046
H16   H     H_    0.311790 0.338085 0.034265 0.239125
H17   H     H_    0.789614 0.102059 0.034822 0.124143
H18   H     H_    0.774660 0.218617 0.284360 0.146158
H19   H     H_    0.858143 0.953582 0.935396 0.139238
H20   H     H_    0.845656 0.085869 0.256468 0.167422
H21   H     H_    0.926928 0.818078 0.903112 0.145129
H22   H     H_    0.717575 0.375255 0.004545 0.102454
H23   H     H_    0.128764 0.491076 0.716123 0.209029
H24   H     H_    0.115420 0.787028 0.138530 0.106378
H25   H     H_    0.846280 0.591033 0.295394 0.101002
H26   H     H_    0.899370 0.681599 0.924377 0.131528
H27   H     H_    0.310200 0.544294 0.918678 0.209368
H28   H     H_    0.859382 0.349312 0.680690 0.332437
H29   H     H_    0.837735 0.610860 0.789915 0.341834
H30   H     H_    0.613925 0.770100 0.769865 0.337057
H31   H     H_    0.013548 0.494152 0.216094 0.296762
H32   H     H_    0.979188 0.972165 0.249616 0.320372
H33   H     H_    0.043366 0.328778 0.126879 0.195459
H34   H     H_    0.905604 0.199982 0.975047 0.099462
H35   H     H_    0.276933 0.628335 0.860396 0.111353
H36   H     H_    0.069218 0.348786 0.699311 0.140031
H37   H     H_    0.128672 0.109489 0.665164 0.183806
H38   H     H_    0.694985 0.457312 0.151901 0.104589
N1    N     N_R   0.036080 0.671900 0.995420 -0.051381
N2    N     N_R   0.867430 0.509300 0.948100 -0.066832
N3    N     N_R   0.003360 0.617250 0.167070 -0.071245
N4    N     N_R   0.825450 0.461270 0.995400 -0.051691
N5    N     N_R   0.045340 0.665280 0.119770 -0.035532
N6    N     N_R   0.883740 0.497640 0.167070 -0.057734
N7    N     N_R   0.987050 0.628910 0.948110 -0.046640
N8    N     N_R   0.174550 0.538730 0.004600 -0.091805
N9    N     N_R   0.954660 0.334720 0.880230 -0.048038
N10   N     N_R   0.116260 0.502360 0.832930 -0.058882
N11   N     N_R   0.012950 0.371090 0.051890 -0.066963
N12   N     N_R   0.963920 0.328100 0.004580 -0.051898
N13   N     N_R   0.165290 0.545350 0.880240 -0.050781
N14   N     N_R   0.132570 0.490700 0.051900 -0.120327
N15   N     N_R   0.996640 0.382750 0.832930 -0.039018
N16   N     N_R   0.834710 0.454650 0.119760 -0.045472
Ni1   Ni    Ni4+2 0.104370 0.604370 0.000010 0.216813
Ni2   Ni    Ni4+2 0.895630 0.395630 0.999990 0.218700
Ni3   Ni    Ni4+2 0.991920 0.505780 0.891500 0.282714
Ni4   Ni    Ni4+2 0.008080 0.494220 0.108500 0.240629
O1    O     O_2   0.834684 0.257588 0.754842 -0.656293
O2    O     O_R   0.974563 0.984031 0.204943 -0.796836
O3    O     O_R   0.907452 0.300323 0.645386 -0.730945
O4    O     O_2   0.929253 0.508179 0.780751 -0.627931
O5    O     O_R   0.805236 0.595076 0.840726 -0.806073
O6    O     O_2   0.467988 0.781035 0.781647 -0.637725
O7    O     O_R   0.614415 0.736650 0.711916 -0.782350
O8    O     O_2   0.983196 0.672404 0.373668 -0.577051
O9    O     O_R   0.995938 0.530730 0.278459 -0.740247
O10   O     O_2   0.879649 0.869185 0.198990 -0.637430

loop_
_geom_bond_atom_site_label_1
_geom_bond_atom_site_label_2
_ccdc_geom_bond_type
C61   C70   A    
N7    Ni3   S    
N10   N13   A    
C66   C68   A    
C40   N4    A    
C63   C65   A    
C6    C45   A    
C27   C29   A    
C41   C42   A    
C14   C18   A    
C67   N10   A    
C35   C36   A    
C58   H11   S    
C3    C6    A    
C77   O6    D    
H29   O5    S    
C39   C41   A    
C7    C11   S    
N8    Ni1   S    
C50   C54   A    
C4    H38   S    
C38   F5    S    
C1    C74   A    
C44   C77   S    
C22   C29   A    
C30   H6    S    
C10   H37   S    
N16   Ni2   S    
N9    N15   A    
C30   C31   A    
C12   C64   A    
C70   H17   S    
N3    Ni4   S    
C23   C49   S    
C10   C17   A    
H32   O2    S    
C23   C40   A    
C73   H26   S    
C18   C19   A    
C73   C74   A    
C28   C79   S    
N9    Ni2   S    
C46   C47   A    
C45   H27   S    
C80   O2    S    
C46   H8    S    
C63   C69   A    
C68   C69   A    
C25   F3    S    
C72   H20   S    
N6    Ni4   S    
C51   C57   A    
C76   O5    S    
C4    C12   A    
C48   H9    S    
C65   H21   S    
N11   Ni4   S    
N6    N16   A    
N2    Ni3   S    
C55   C60   A    
C61   C71   A    
C1    H1    S    
N12   Ni2   S    
C73   N7    A    
C28   C34   A    
C59   C60   A    
C75   O1    D    
C13   C14   A    
C59   H13   S    
C7    C56   A    
C12   C47   S    
C60   H15   S    
C24   H5    S    
C77   O7    S    
C43   H10   S    
C2    H35   S    
C27   C34   S    
C38   C39   A    
C50   C53   A    
C62   C66   A    
C2    N13   A    
C13   C75   S    
C1    N1    A    
N13   Ni1   S    
C4    N16   A    
C5    C7    A    
C52   H24   S    
C81   N12   A    
H28   O3    S    
N1    Ni1   S    
C33   C37   A    
C49   C58   A    
C81   H34   S    
C51   C53   A    
C78   H33   S    
C43   C44   A    
N2    N4    A    
C37   C38   A    
C19   H2    S    
C79   O8    D    
C67   H23   S    
C47   C48   A    
C64   N6    A    
N1    N7    A    
C68   C72   A    
C3    F1    S    
C18   F2    S    
C26   C27   A    
C42   C48   A    
C24   C25   A    
C63   H19   S    
C35   C41   A    
C39   C46   A    
N10   Ni3   S    
N8    N14   A    
C16   C23   A    
C71   H18   S    
C22   C24   A    
C36   C44   A    
C3    N14   A    
C42   C43   A    
C29   H4    S    
C5    N15   A    
C15   C17   A    
C54   C55   A    
N14   Ni4   S    
C6    C50   S    
C62   C65   A    
C16   C76   S    
C8    C31   S    
C34   C52   A    
C31   C32   A    
C2    C8    A    
N15   Ni3   S    
N11   N12   A    
N3    N5    A    
C56   N9    A    
C40   H22   S    
N4    Ni2   S    
C75   O3    S    
C26   H3    S    
C66   C80   S    
C5    H36   S    
C45   N8    A    
C49   C59   A    
C30   C36   A    
C17   C25   A    
C32   C33   A    
C19   C20   A    
C55   C57   A    
C52   N5    A    
C71   C72   A    
C79   O9    S    
C11   C13   A    
C57   C58   A    
C54   F6    S    
C20   C26   A    
C76   O4    D    
C53   H16   S    
C32   F4    S    
C33   C35   A    
C37   H7    S    
H31   O9    S    
H30   O7    S    
C9    C78   A    
C69   C70   A    
N5    Ni1   S    
C16   N2    A    
C64   H25   S    
C10   C11   A    
C15   C21   A    
C20   C21   A    
C8    C67   A    
C80   O10   D    
C14   C15   A    
C62   C74   S    
C56   H12   S    
C21   C22   A    
C78   N11   A    
C51   H14   S    
C28   N3    A    
C9    C81   A    
