data_mof_unit_27141.cif
_audit_creation_date              2012-12-11T14:06:40-0500
_audit_creation_method            fapswitch 2.2
_symmetry_space_group_name_H-M    P1
_symmetry_Int_Tables_number       1
_space_group_crystal_system       triclinic
_cell_length_a                    6.922171
_cell_length_b                    17.377873
_cell_length_c                    24.113464
_cell_angle_alpha                 104.503839
_cell_angle_beta                  90.535977
_cell_angle_gamma                 90.115907
_cell_volume                      2808.07816078

loop_
_atom_site_label
_atom_site_type_symbol
_atom_type_description
_atom_site_fract_x
_atom_site_fract_y
_atom_site_fract_z
_atom_type_partial_charge
O1    O     O_R   0.494290 0.391990 0.999150 -0.565236
O2    O     O_R   0.827170 0.534410 0.082350 -0.519443
O3    O     O_R   0.994360 0.608010 0.000850 -0.535595
C1    C     C_R   0.659120 0.550383 0.106148 0.737182
O4    O     O_R   0.824210 0.388010 0.004470 -0.528054
O5    O     O_R   0.991370 0.460560 0.922410 -0.514361
C2    C     C_R   0.653712 0.355304 0.001681 0.785284
O6    O     O_R   0.497270 0.539440 0.077590 -0.550595
O7    O     O_3   0.659770 0.523970 0.973170 -0.348177
V1    V     V_3+5 0.935840 0.495550 0.004980 1.531047
O8    O     O_R   0.320910 0.465590 0.917650 -0.534260
C3    C     C_R   0.150718 0.451510 0.893818 0.756818
O9    O     O_R   0.323870 0.611990 0.995530 -0.546763
C4    C     C_R   0.154413 0.645149 0.998549 0.778663
V2    V     V_3+5 0.435470 0.504450 0.995020 1.484754
O10   O     O_3   0.161670 0.476030 0.026830 -0.377135
C5    C     C_2   0.142715 0.730223 0.998155 -0.328221
H1    H     H_    0.277256 0.760964 0.994800 0.149475
C6    C     C_2   0.972833 0.769834 0.002057 -0.326057
H2    H     H_    0.838297 0.739092 0.005421 0.150251
C7    C     C_R   0.122530 0.247694 0.625525 0.593956
N1    N     N_R   0.110930 0.328292 0.648245 -0.552600
C8    C     C_R   0.083142 0.378923 0.613405 0.601562
C9    C     C_R   0.062002 0.349013 0.553734 -0.044673
C10   C     C_R   0.072958 0.266375 0.529858 -0.011703
C11   C     C_R   0.104977 0.215295 0.565912 -0.049663
C12   C     C_R   0.029746 0.399780 0.517528 -0.083719
C13   C     C_R   0.005830 0.368894 0.458603 -0.007111
C14   C     C_R   0.014766 0.286587 0.434332 -0.064377
C15   C     C_R   0.051541 0.234946 0.469879 -0.073083
C16   C     C_R   0.067015 0.152275 0.445585 -0.027460
C17   C     C_R   0.096296 0.101205 0.482457 0.197356
C18   C     C_R   0.115483 0.133070 0.541826 -0.197964
C19   C     C_R   0.988927 0.254746 0.375143 0.712396
N2    N     N_R   0.012200 0.175004 0.351521 -0.558000
C20   C     C_R   0.054195 0.124049 0.385149 0.618402
O11   O     O_2   0.147980 0.198813 0.660496 -0.513002
O12   O     O_2   0.076642 0.458103 0.636359 -0.500942
H3    H     H_    0.021627 0.463565 0.534605 0.183658
H4    H     H_    0.981695 0.409860 0.432025 0.221006
O13   O     O_2   0.942653 0.303258 0.341274 -0.440373
O14   O     O_2   0.086689 0.046775 0.359926 -0.485883
H5    H     H_    0.137836 0.092681 0.568994 0.183189
C21   C     C_R   0.840417 0.098616 0.263904 0.221921
C22   C     C_R   0.830493 0.070339 0.204212 -0.164339
H6    H     H_    0.707105 0.034445 0.185315 0.186898
C23   C     C_R   0.978394 0.086332 0.169059 -0.263987
C24   C     C_R   0.136801 0.134521 0.195071 0.309816
C25   C     C_R   0.147314 0.163010 0.255100 0.390213
C26   C     C_R   0.000380 0.144838 0.289894 0.171111
C27   C     C_R   0.964366 0.401731 0.738992 -0.121057
H7    H     H_    0.835744 0.409999 0.715231 0.166480
C28   C     C_R   0.971574 0.433121 0.798450 0.339656
C29   C     C_R   0.138226 0.421941 0.830237 -0.137557
C30   C     C_R   0.295829 0.380575 0.800308 -0.211000
H8    H     H_    0.425290 0.370718 0.823094 0.174196
C31   C     C_R   0.287687 0.350204 0.740788 -0.063002
H9    H     H_    0.410986 0.318759 0.718839 0.145702
C32   C     C_R   0.121390 0.360138 0.709688 0.298769
C33   C     C_R   0.491183 0.874126 0.612448 0.551150
N3    N     N_R   0.513253 0.825371 0.648879 -0.561243
C34   C     C_R   0.551938 0.746011 0.627779 0.594368
C35   C     C_R   0.563588 0.712602 0.568170 -0.096189
C36   C     C_R   0.547473 0.762263 0.530488 -0.009893
C37   C     C_R   0.513885 0.844102 0.552858 0.000537
C38   C     C_R   0.588724 0.630727 0.545573 -0.169639
C39   C     C_R   0.598821 0.597785 0.486379 0.407506
C40   C     C_R   0.592357 0.647609 0.447702 -0.145714
C41   C     C_R   0.564728 0.730221 0.470426 -0.072945
C42   C     C_R   0.553082 0.781205 0.433280 -0.000130
C43   C     C_R   0.523637 0.863008 0.456290 -0.134039
C44   C     C_R   0.503332 0.893947 0.515252 -0.174506
C45   C     C_R   0.611955 0.618790 0.387359 0.755358
N4    N     N_R   0.598885 0.669463 0.352002 -0.553987
C46   C     C_R   0.570324 0.749248 0.373851 0.596439
O15   O     O_2   0.446434 0.951362 0.633696 -0.521262
O16   O     O_2   0.579857 0.699494 0.664292 -0.504335
H10   H     H_    0.596389 0.591316 0.573951 0.206733
O17   O     O_2   0.646237 0.541235 0.363903 -0.414612
O18   O     O_2   0.557490 0.797615 0.338072 -0.512362
H11   H     H_    0.515434 0.903489 0.428738 0.178623
H12   H     H_    0.480916 0.957237 0.531369 0.159852
C47   C     C_R   0.783791 0.652827 0.262634 -0.120843
H13   H     H_    0.899596 0.687005 0.287847 0.170294
C48   C     C_R   0.802767 0.624466 0.202716 0.203201
C49   C     C_R   0.649323 0.580716 0.169875 -0.134892
C50   C     C_R   0.480832 0.566959 0.198398 -0.264722
H14   H     H_    0.361380 0.533800 0.174346 0.196501
C51   C     C_R   0.463957 0.594941 0.257940 0.435071
C52   C     C_R   0.615724 0.638376 0.290577 0.253675
C53   C     C_R   0.331070 0.842038 0.739749 0.222059
C54   C     C_R   0.315623 0.874492 0.799105 -0.140921
H15   H     H_    0.188110 0.861600 0.820968 0.156318
C55   C     C_R   0.466565 0.920089 0.830540 -0.171000
C56   C     C_R   0.631246 0.935044 0.801179 -0.157178
H16   H     H_    0.748797 0.970588 0.824462 0.155125
C57   C     C_R   0.645390 0.906115 0.741640 0.220204
C58   C     C_R   0.496281 0.858068 0.710236 0.278133
C59   C     C_2   0.641490 0.272412 0.006086 -0.032691
C60   C     C_2   0.473890 0.227638 0.994052 -0.030403
O19   O     O_R   0.618210 0.960470 0.922400 -0.544215
O20   O     O_R   0.291310 0.111960 0.995450 -0.516906
O21   O     O_R   0.124210 0.039530 0.077580 -0.508957
C61   C     C_R   0.461779 0.144695 0.998313 0.845426
O22   O     O_R   0.288310 0.965490 0.917650 -0.545786
O23   O     O_R   0.121180 0.892010 0.999220 -0.541296
C62   C     C_R   0.456549 0.950157 0.893936 0.711771
O24   O     O_R   0.621230 0.107990 0.000760 -0.565194
O25   O     O_3   0.455770 0.976060 0.026840 -0.364512
V3    V     V_3+5 0.179680 0.004440 0.995020 1.492134
O26   O     O_R   0.791670 0.888040 0.004570 -0.549644
C63   C     C_R   0.961134 0.854894 0.001602 0.758075
O27   O     O_R   0.794680 0.034510 0.082370 -0.538814
C64   C     C_R   0.964545 0.052558 0.105825 0.796224
V4    V     V_3+5 0.680070 0.995560 0.005010 1.452566
O28   O     O_3   0.953840 0.023940 0.973160 -0.384295
Cl1   Cl    Cl    0.345724 0.222387 0.287189 -0.485233
Cl2   Cl    Cl    0.770861 0.489114 0.829901 -0.629676
Cl3   Cl    Cl    0.609570 0.493181 0.464496 -0.568778
N5    N     N_3   0.974918 0.641857 0.175169 -0.624515
H17   H     H_    0.937436 0.682049 0.151091 0.206272
H18   H     H_    0.077167 0.670621 0.205563 0.248357
Cl4   Cl    Cl    0.249248 0.575842 0.290702 -0.565702
N6    N     N_3   0.178379 0.791977 0.710319 -0.628827
H19   H     H_    0.146812 0.808180 0.672343 0.230604
H20   H     H_    0.228631 0.733564 0.699071 0.280717
N7    N     N_3   0.813754 0.925770 0.713944 -0.632968
H21   H     H_    0.864766 0.873882 0.686295 0.246358
H22   H     H_    0.773088 0.964387 0.689029 0.269385
N8    N     N_3   0.816199 0.242411 0.025695 -0.639676
H23   H     H_    0.873576 0.197396 0.992909 0.261322
H24   H     H_    0.788716 0.222415 0.062322 0.265566
N9    N     N_3   0.298970 0.257719 0.974639 -0.663019
H25   H     H_    0.242022 0.302743 0.007504 0.280794
H26   H     H_    0.325987 0.277707 0.937983 0.224257
N10   N     N_3   0.101936 0.016663 0.460407 -0.581439
H27   H     H_    0.235064 0.996685 0.471769 0.228029
H28   H     H_    0.993647 0.991474 0.480286 0.232882
N11   N     N_3   0.685250 0.080074 0.297348 -0.594131
H29   H     H_    0.737349 0.042498 0.321682 0.264660
H30   H     H_    0.639423 0.132590 0.325604 0.279823
Cl5   Cl    Cl    0.319623 0.164105 0.153705 -0.563645

loop_
_geom_bond_atom_site_label_1
_geom_bond_atom_site_label_2
_ccdc_geom_bond_type
O19   C62   A    
C23   C64   S    
C50   H14   S    
C45   N4    A    
C34   O16   S    
C20   O14   S    
C56   H16   S    
C9    C12   A    
C61   O24   A    
C1    O6    A    
C57   C58   A    
O23   C63   A    
C48   C49   A    
N5    H17   S    
O22   C62   A    
C14   C15   A    
C2    C59   S    
O21   V3    S    
O24   V4    S    
N6    H20   S    
C13   C14   A    
O22   V3    S    
O5    C3    A    
C15   C16   A    
C30   H8    S    
C31   C32   A    
C1    C49   S    
C13   H4    S    
V4    O28   S    
C60   C61   S    
C19   N2    A    
O8    V2    S    
C25   Cl1   S    
N2    C20   A    
C12   H3    S    
C40   C41   A    
C8    C9    A    
C42   C43   A    
O1    V2    S    
O7    V1    S    
C59   N8    S    
C57   N7    S    
C38   C39   A    
C35   C38   A    
O9    C4    A    
C4    C5    S    
C41   C42   A    
C19   O13   S    
N1    C8    A    
C7    C11   A    
N5    H18   S    
C22   C23   A    
C38   H10   S    
C55   C62   S    
N4    C46   A    
C27   H7    S    
C18   H5    S    
C23   C24   A    
O21   C64   A    
C9    C10   A    
N10   H28   S    
C53   C54   A    
C17   N10   S    
C28   Cl2   S    
C51   Cl4   S    
C40   C45   A    
C22   H6    S    
C14   C19   A    
C33   O15   S    
C39   C40   A    
O27   V4    S    
C33   N3    A    
C27   C28   A    
C48   N5    S    
O2    C1    A    
N7    H22   S    
C34   C35   A    
C11   C18   A    
C47   H13   S    
N11   H29   S    
N2    C26   S    
C54   C55   A    
C5    H1    S    
C45   O17   S    
C24   Cl5   S    
C55   C56   A    
C6    C63   S    
C36   C41   A    
O20   C61   A    
O3    C4    A    
C24   C25   A    
C47   C48   A    
C33   C37   A    
O6    V2    S    
C53   N6    S    
O9    V2    S    
N9    H25   S    
O19   V4    S    
O20   V3    S    
C27   C32   A    
N7    H21   S    
C37   C44   A    
V3    O28   S    
N1    C32   S    
C60   N9    S    
C49   C50   A    
O4    C2    A    
O27   C64   A    
C46   O18   S    
C21   C26   A    
C10   C15   A    
C47   C52   A    
C29   C30   A    
O26   C63   A    
O1    C2    A    
C16   C17   A    
C21   C22   A    
N10   H27   S    
O5    V1    S    
O8    C3    A    
C56   C57   A    
C28   C29   A    
C21   N11   S    
C8    O12   S    
C59   C60   D    
N8    H24   S    
C36   C37   A    
N4    C52   S    
C6    H2    S    
C30   C31   A    
N8    H23   S    
C10   C11   A    
O4    V1    S    
O3    V1    S    
V1    O10   S    
O25   V3    S    
C17   C18   A    
N11   H30   S    
N3    C58   S    
C31   H9    S    
C54   H15   S    
C5    C6    D    
C53   C58   A    
O7    V2    S    
N3    C34   A    
C3    C29   S    
O25   V4    S    
C35   C36   A    
C43   C44   A    
C7    O11   S    
O23   V3    S    
C25   C26   A    
C42   C46   A    
N9    H26   S    
C50   C51   A    
C16   C20   A    
O26   V4    S    
C43   H11   S    
C51   C52   A    
C7    N1    A    
C39   Cl3   S    
C44   H12   S    
V2    O10   S    
N6    H19   S    
C12   C13   A    
O2    V1    S    
