data_mof_unit_15238.cif
_audit_creation_date              2012-12-10T17:50:38-0500
_audit_creation_method            fapswitch 2.2
_symmetry_space_group_name_H-M    P1
_symmetry_Int_Tables_number       1
_space_group_crystal_system       triclinic
_cell_length_a                    15.710098
_cell_length_b                    10.71158
_cell_length_c                    9.905707
_cell_angle_alpha                 89.474262
_cell_angle_beta                  89.627457
_cell_angle_gamma                 91.801642
_cell_volume                      1665.99946742

loop_
_atom_site_label
_atom_site_type_symbol
_atom_type_description
_atom_site_fract_x
_atom_site_fract_y
_atom_site_fract_z
_atom_type_partial_charge
C1    C     C_R   0.504499 0.259686 0.501506 0.876063
C2    C     C_R   0.503169 0.046527 0.877838 -0.120803
C3    C     C_R   0.457581 0.933456 0.873919 -0.093628
C4    C     C_R   0.337954 0.499271 0.500374 0.894980
C5    C     C_R   0.442010 0.876785 0.750103 -0.125973
C6    C     C_R   0.471620 0.933872 0.628113 0.109401
C7    C     C_R   0.501363 0.058079 0.630816 0.126420
C8    C     C_R   0.504945 0.125301 0.506134 -0.117966
C9    C     C_R   0.494080 0.063505 0.383275 -0.212066
C10   C     C_R   0.482043 0.936529 0.381914 -0.145103
C11   C     C_R   0.475591 0.870531 0.503498 -0.151993
C12   C     C_3   0.082599 0.497342 0.500460 0.198178
C13   C     C_R   0.390269 0.333212 0.142100 -0.257290
C14   C     C_R   0.338863 0.245169 0.074749 -0.094014
C15   C     C_R   0.337411 0.246951 0.932562 -0.009705
C16   C     C_R   0.489809 0.738447 0.500380 0.887703
C17   C     C_R   0.390608 0.333351 0.862809 -0.183056
C18   C     C_R   0.445989 0.417736 0.929271 0.111646
C19   C     C_R   0.445648 0.418124 0.073363 0.154282
C20   C     C_R   0.552761 0.577869 0.069074 0.003936
C21   C     C_R   0.552015 0.577999 0.926058 -0.160412
C22   C     C_R   0.662050 0.500352 0.499614 0.917310
C23   C     C_3   0.973876 0.601926 0.559780 -0.161492
C24   C     C_3   0.968949 0.396649 0.567102 -0.159578
C25   C     C_3   0.026159 0.393562 0.439535 -0.161777
C26   C     C_1   0.248930 0.498208 0.501138 -0.160416
C27   C     C_1   0.751079 0.499709 0.498728 -0.156759
C28   C     C_3   0.027214 0.500418 0.628013 -0.154956
C29   C     C_2   0.614083 0.662385 0.135830 0.960883
C30   C     C_2   0.290347 0.151694 0.158936 0.341877
C31   C     C_2   0.278379 0.164473 0.854277 0.439042
C32   C     C_3   0.917399 0.498175 0.498875 0.196947
C33   C     C_3   0.031041 0.598840 0.432231 -0.161734
C34   C     C_3   0.972786 0.495083 0.371308 -0.157848
C35   C     C_1   0.173542 0.497512 0.501127 -0.067212
C36   C     C_1   0.826453 0.498983 0.498457 -0.067018
C37   C     C_R   0.525531 0.108450 0.757657 -0.163398
H1    H     H_    0.049780 0.308421 0.390479 0.141816
H2    H     H_    0.058620 0.681463 0.377154 0.148351
H3    H     H_    0.950335 0.687109 0.608843 0.141944
H4    H     H_    0.051661 0.502550 0.732901 0.140307
H5    H     H_    0.496059 0.112756 0.287185 0.177201
H6    H     H_    0.563724 0.193439 0.766674 0.167731
H7    H     H_    0.519651 0.087734 0.973980 0.148417
H8    H     H_    0.732580 0.688304 0.209415 0.333958
H9    H     H_    0.273860 0.173927 0.262410 0.088533
H10   H     H_    0.222655 0.120540 0.901645 0.117901
H11   H     H_    0.436677 0.887745 0.966826 0.163322
H12   H     H_    0.406123 0.788916 0.750807 0.161302
H13   H     H_    0.479557 0.890045 0.285412 0.212266
H14   H     H_    0.386538 0.330858 0.249190 0.210926
H15   H     H_    0.386734 0.333113 0.755884 0.245644
H16   H     H_    0.594433 0.641161 0.869745 0.158326
H17   H     H_    0.941374 0.314028 0.622182 0.140006
H18   H     H_    0.948339 0.492952 0.266420 0.148492
N1    N     N_R   0.499210 0.498800 0.142780 -0.155551
N2    N     N_R   0.499180 0.498720 0.857170 -0.124673
O1    O     O_R   0.500000 0.316780 0.614690 -0.647640
O2    O     O_R   0.695376 0.621215 0.165719 -0.796699
O3    O     O_2   0.272660 0.047143 0.117589 -0.589500
O4    O     O_2   0.290640 0.145989 0.734301 -0.595672
O5    O     O_R   0.499990 0.316750 0.385360 -0.645079
O6    O     O_R   0.376780 0.500000 0.614650 -0.637529
O7    O     O_R   0.376770 0.499980 0.385310 -0.637298
O8    O     O_R   0.500010 0.683250 0.614640 -0.632873
O9    O     O_R   0.500000 0.683220 0.385310 -0.597392
O10   O     O_R   0.623230 0.500020 0.614690 -0.618576
O11   O     O_R   0.623220 0.500000 0.385350 -0.579055
O12   O     O_2   0.595794 0.770520 0.156653 -0.666931
Zn1   Zn    Zn3+2 0.500010 0.500020 0.653130 0.933312
Zn2   Zn    Zn3+2 0.499990 0.499980 0.346870 0.970242

loop_
_geom_bond_atom_site_label_1
_geom_bond_atom_site_label_2
_ccdc_geom_bond_type
C19   N1    A    
C37   H6    S    
C4    C26   S    
C24   C25   S    
C24   C32   S    
C21   N2    A    
C6    C7    A    
C13   C14   A    
C25   H1    S    
C1    C8    S    
C9    C10   A    
C4    O7    A    
C18   N2    A    
C22   C27   S    
O9    Zn2   S    
C2    C37   A    
O6    Zn1   S    
C12   C25   S    
C20   N1    A    
N1    Zn2   S    
C5    H12   S    
C23   C32   S    
O10   Zn1   S    
C33   C34   S    
C7    C37   A    
C34   H18   S    
C31   H10   S    
C1    O1    A    
C1    O5    A    
C12   C35   S    
C21   H16   S    
C4    O6    A    
C22   O11   A    
C9    H5    S    
C33   H2    S    
C12   C28   S    
O11   Zn2   S    
C32   C36   S    
C17   H15   S    
C14   C30   S    
O5    Zn2   S    
C17   C18   A    
C29   O12   D    
C20   C29   S    
C6    C11   A    
C13   H14   S    
C5    C6    A    
C27   C36   T    
C22   O10   A    
C16   O9    A    
C10   C11   A    
C13   C19   A    
N2    Zn1   S    
C24   H17   S    
C23   H3    S    
C10   H13   S    
C24   C28   S    
C3    H11   S    
C7    C8    A    
C25   C34   S    
C30   O3    D    
C20   C21   A    
C18   C19   A    
C11   C16   S    
O7    Zn2   S    
C26   C35   T    
C15   C17   A    
C31   O4    D    
C14   C15   A    
O1    Zn1   S    
C2    C3    A    
C16   O8    A    
C23   C33   S    
C12   C33   S    
C23   C28   S    
C15   C31   S    
C30   H9    S    
H8    O2    S    
C28   H4    S    
O8    Zn1   S    
C2    H7    S    
C8    C9    A    
C3    C5    A    
C29   O2    S    
C32   C34   S    
