data_mof_unit_35655.cif
_audit_creation_date              2013-03-05T15:43:50-0500
_audit_creation_method            fapswitch 2.2
_symmetry_space_group_name_H-M    P1
_symmetry_Int_Tables_number       1
_space_group_crystal_system       triclinic
_cell_length_a                    10.101149
_cell_length_b                    10.654594
_cell_length_c                    15.490394
_cell_angle_alpha                 90.355683
_cell_angle_beta                  67.707347
_cell_angle_gamma                 88.776235
_cell_volume                      1541.99204609

loop_
_atom_site_label
_atom_site_type_symbol
_atom_site_description
_atom_site_fract_x
_atom_site_fract_y
_atom_site_fract_z
_atom_type_partial_charge
O1    O     O_R   0.386950 0.680940 0.500010 -0.589587
O2    O     O_R   0.613110 0.680900 0.499990 -0.604786
C1    C     C_R   0.493120 0.737272 0.509091 0.806710
O3    O     O_R   0.322330 0.500030 0.632270 -0.617774
O4    O     O_R   0.548480 0.499990 0.632240 -0.570631
C2    C     C_R   0.409968 0.499228 0.675817 0.847064
Zn1   Zn    Zn3+2 0.349000 0.500030 0.500020 1.083415
Zn2   Zn    Zn3+2 0.651000 0.499970 0.499980 1.056853
O5    O     O_R   0.386890 0.319100 0.500010 -0.554776
O6    O     O_R   0.613050 0.319060 0.499990 -0.637059
O7    O     O_R   0.451520 0.500010 0.367760 -0.565090
O8    O     O_R   0.677670 0.499970 0.367730 -0.623426
C3    C     C_R   0.503730 0.262338 0.496840 0.791407
C4    C     C_R   0.590533 0.498766 0.323670 0.898830
C5    C     C_R   0.352704 0.493553 0.777387 -0.060253
C6    C     C_R   0.646496 0.479884 0.221758 -0.194745
C7    C     C_R   0.164915 0.533017 0.928312 -0.165346
C8    C     C_R   0.211025 0.529504 0.831393 -0.153377
C9    C     C_R   0.444648 0.454083 0.820432 -0.195085
C10   C     C_R   0.400115 0.454280 0.917532 0.080068
C11   C     C_R   0.259981 0.499602 0.971469 0.062977
C12   C     C_R   0.495289 0.419729 0.961439 0.018343
C13   C     C_R   0.456635 0.449465 0.057330 -0.050580
C14   C     C_R   0.310351 0.483265 0.111570 0.414822
C15   C     C_R   0.216246 0.511001 0.067709 -0.171375
C16   C     C_R   0.627871 0.356553 0.912544 -0.137602
C17   C     C_R   0.726551 0.336225 0.953727 -0.173189
C18   C     C_R   0.699002 0.382921 0.043061 0.077237
C19   C     C_R   0.566016 0.443958 0.094255 0.100800
C20   C     C_R   0.803844 0.370465 0.081383 -0.201576
C21   C     C_R   0.778846 0.417304 0.170655 0.431155
C22   C     C_R   0.549365 0.502560 0.178805 -0.269828
H1    H     H_    0.107297 0.540589 0.109683 0.183111
H2    H     H_    0.457780 0.563727 0.214298 0.226210
H3    H     H_    0.826887 0.287378 0.914216 0.166919
H4    H     H_    0.056285 0.564773 0.969381 0.148381
H5    H     H_    0.137937 0.559001 0.798818 0.178884
H6    H     H_    0.553601 0.429534 0.776499 0.189683
H7    H     H_    0.656453 0.318170 0.843034 0.170054
H8    H     H_    0.905380 0.323136 0.042224 0.172670
C23   C     C_2   0.573933 0.067746 0.542161 -0.140992
C24   C     C_2   0.516460 0.128287 0.488573 0.361384
H9    H     H_    0.615843 0.117904 0.587273 0.151001
C25   C     C_2   0.582171 0.932113 0.540297 -0.209177
C26   C     C_2   0.470118 0.866673 0.540532 0.210046
H10   H     H_    0.686576 0.888300 0.526076 0.197293
C27   C     C_2   0.097471 0.412567 0.460699 0.519128
N1    N     N_2   0.148330 0.498670 0.499030 0.003778
C28   C     C_2   0.959454 0.429595 0.445721 -0.038358
N2    N     N_2   0.852680 0.498640 0.499000 0.004911
H11   H     H_    0.948312 0.379087 0.387913 0.143592
O9    O     O_3   0.480114 0.064610 0.422831 -0.708875
H12   H     H_    0.455351 0.126850 0.383879 0.383105
N3    N     N_R   0.326623 0.921071 0.575673 0.241446
O10   O     O_R   0.238713 0.897592 0.534568 -0.294639
O11   O     O_R   0.282567 0.992194 0.650357 -0.374616
N4    N     N_R   0.173113 0.295281 0.430820 0.183273
O12   O     O_R   0.104971 0.191300 0.456979 -0.331807
O13   O     O_R   0.295174 0.292176 0.360560 -0.426006
O14   O     O_3   0.092554 0.614610 0.500762 -0.648505
H13   H     H_    0.137879 0.667430 0.533740 0.407795
N5    N     N_R   0.845393 0.521281 0.589557 0.328804
O15   O     O_R   0.792600 0.628348 0.630102 -0.327609
O16   O     O_R   0.857139 0.428444 0.640774 -0.423524
O17   O     O_3   0.883479 0.396054 0.205857 -0.749402
H14   H     H_    0.890384 0.473261 0.239530 0.348060
O18   O     O_3   0.250769 0.478015 0.207303 -0.756068
H15   H     H_    0.298678 0.406989 0.225427 0.376452

loop_
_geom_bond_atom_site_label_1
_geom_bond_atom_site_label_2
_geom_bond_distance
_ccdc_geom_bond_type
C7    C8    1.392953 A    
O4    Zn2   1.913158 S    
Zn1   O7    1.913157 S    
C13   C14   1.432013 A    
C14   C15   1.390316 A    
Zn1   O5    1.957316 S    
N5    O15   1.300458 A    
C7    H4    1.084016 S    
C27   N4    1.429460 S    
C23   C24   1.341066 D    
C5    C8    1.399640 A    
N5    O16   1.303099 A    
C27   N1    1.304941 D    
O8    C4    1.302626 A    
Zn2   O8    1.962306 S    
Zn1   N1    2.033225 S    
C28   N2    1.291828 D    
C28   H11   1.084986 S    
C18   C20   1.401250 A    
O2    C1    1.299181 A    
C16   C17   1.386486 A    
C20   H8    1.084556 S    
C27   C28   1.505149 S    
C10   C11   1.415443 A    
C6    C21   1.418078 A    
C5    C9    1.393058 A    
C23   H9    1.087476 S    
N4    O12   1.300733 A    
O4    C2    1.302811 A    
O3    Zn1   1.962309 S    
C13   C19   1.424239 A    
O3    C2    1.300589 A    
C18   C19   1.415758 A    
C9    H6    1.077046 S    
C8    H5    1.083103 S    
C25   H10   1.086323 S    
C26   N3    1.447337 S    
N1    O14   1.342565 S    
C19   C22   1.397044 A    
C4    C6    1.471852 S    
C12   C13   1.417065 A    
C20   C21   1.395072 A    
N2    N5    1.395733 S    
O7    C4    1.307621 A    
N3    O11   1.301842 A    
C16   H7    1.078710 S    
N4    O13   1.298278 A    
C6    C22   1.396727 A    
C23   C25   1.445208 S    
C7    C11   1.403987 A    
O18   H15   0.987816 S    
Zn2   N2    2.031236 S    
O9    H12   0.989331 S    
Zn2   O6    1.973274 S    
O17   H14   0.989111 S    
C12   C16   1.416299 A    
C15   H1    1.083064 S    
C17   C18   1.390435 A    
C21   O17   1.376312 S    
C11   C15   1.388604 A    
N3    O10   1.301151 A    
C3    C24   1.431864 S    
O5    C3    1.298556 A    
C24   O9    1.384882 S    
C14   O18   1.374700 S    
C17   H3    1.084226 S    
C2    C5    1.458061 S    
O1    Zn1   1.973274 S    
C1    C26   1.443663 S    
O2    Zn2   1.957315 S    
C25   C26   1.340848 D    
C9    C10   1.396899 A    
C10   C12   1.416468 A    
O14   H13   0.985988 S    
O1    C1    1.292695 A    
O6    C3    1.286869 A    
C22   H2    1.080159 S    
