data_mof_unit_39524.cif
_audit_creation_date              2012-12-11T16:28:15-0500
_audit_creation_method            fapswitch 2.2
_symmetry_space_group_name_H-M    P1
_symmetry_Int_Tables_number       1
_space_group_crystal_system       triclinic
_cell_length_a                    30.157376
_cell_length_b                    22.507825
_cell_length_c                    18.065329
_cell_angle_alpha                 90.041369
_cell_angle_beta                  122.659367
_cell_angle_gamma                 89.972933
_cell_volume                      10323.5745661

loop_
_atom_site_label
_atom_site_type_symbol
_atom_type_description
_atom_site_fract_x
_atom_site_fract_y
_atom_site_fract_z
_atom_type_partial_charge
C1    C     C_R   0.531917 0.608613 0.705667 0.186591
C2    C     C_R   0.458734 0.410430 0.264667 0.227837
C3    C     C_R   0.467974 0.608036 0.293558 0.185676
C4    C     C_R   0.541315 0.410676 0.735479 0.227806
C5    C     C_R   0.032021 0.108142 0.706374 0.185510
C6    C     C_R   0.959128 0.910838 0.264873 0.231123
C7    C     C_R   0.968039 0.108310 0.294021 0.187361
C8    C     C_R   0.041272 0.910530 0.735344 0.228266
C9    C     C_R   0.316437 0.634443 0.582980 -0.337209
C10   C     C_R   0.642137 0.289786 0.424890 -0.355291
C11   C     C_R   0.682519 0.637996 0.417945 -0.336569
C12   C     C_R   0.357735 0.290050 0.575056 -0.354961
C13   C     C_R   0.817022 0.136354 0.582760 -0.337525
C14   C     C_R   0.143883 0.791110 0.425776 -0.354439
C15   C     C_R   0.182943 0.136256 0.417282 -0.337290
C16   C     C_R   0.858264 0.789862 0.575762 -0.355258
C17   C     C_R   0.273963 0.658543 0.583266 0.543815
C18   C     C_R   0.666613 0.237396 0.424745 0.534835
C19   C     C_R   0.724882 0.662108 0.417503 0.544820
C20   C     C_R   0.333248 0.237704 0.575217 0.534830
C21   C     C_R   0.774575 0.160241 0.583309 0.544149
C22   C     C_R   0.168091 0.738584 0.425307 0.531905
C23   C     C_R   0.225345 0.160236 0.416735 0.544046
C24   C     C_R   0.833924 0.737434 0.576088 0.533876
C25   C     C_R   0.222669 0.651816 0.508306 -0.030281
C26   C     C_R   0.682775 0.195903 0.493356 -0.052575
C27   C     C_R   0.776461 0.653097 0.490734 -0.033220
C28   C     C_R   0.317079 0.196137 0.506623 -0.052670
C29   C     C_R   0.723108 0.152182 0.509320 -0.031002
C30   C     C_R   0.182904 0.696286 0.492515 -0.051771
C31   C     C_R   0.276819 0.152373 0.490777 -0.031023
C32   C     C_R   0.817110 0.696284 0.506836 -0.049722
C33   C     C_R   0.410680 0.700629 0.235173 -0.055960
C34   C     C_R   0.611905 0.334820 0.834309 -0.020030
C35   C     C_R   0.589183 0.702028 0.761049 -0.060679
C36   C     C_R   0.388236 0.334373 0.166103 -0.020066
C37   C     C_R   0.910792 0.201052 0.236384 -0.056466
C38   C     C_R   0.111786 0.834542 0.833984 -0.019792
C39   C     C_R   0.089241 0.200845 0.764412 -0.056680
C40   C     C_R   0.889614 0.835284 0.163424 -0.017748
C41   C     C_R   0.403259 0.806960 0.245798 0.051107
C42   C     C_R   0.626854 0.230516 0.824004 -0.005995
C43   C     C_R   0.601021 0.806404 0.742927 0.053759
C44   C     C_R   0.373158 0.230183 0.176681 -0.006029
C45   C     C_R   0.902636 0.307107 0.248196 0.052603
C46   C     C_R   0.126544 0.730185 0.823644 -0.006167
C47   C     C_R   0.097258 0.306943 0.752946 0.052366
C48   C     C_R   0.881416 0.728261 0.155856 -0.014212
C49   C     C_R   0.431238 0.753830 0.281990 0.464183
C50   C     C_R   0.591391 0.278193 0.800499 0.521942
C51   C     C_R   0.570968 0.754106 0.710303 0.464285
C52   C     C_R   0.408674 0.277771 0.200083 0.521856
C53   C     C_R   0.930778 0.254038 0.284082 0.464659
C54   C     C_R   0.091166 0.777934 0.800273 0.521889
C55   C     C_R   0.069153 0.253867 0.716932 0.464812
C56   C     C_R   0.913826 0.779082 0.189326 0.528344
C57   C     C_R   0.365974 0.700457 0.151335 -0.279932
C58   C     C_R   0.662983 0.341179 0.906540 -0.325599
C59   C     C_R   0.634694 0.702594 0.843865 -0.283512
C60   C     C_R   0.337177 0.340732 0.093851 -0.325748
C61   C     C_R   0.866388 0.201094 0.152191 -0.278707
C62   C     C_R   0.162930 0.840858 0.906007 -0.326085
C63   C     C_R   0.133676 0.200850 0.848562 -0.278958
C64   C     C_R   0.838382 0.840969 0.091217 -0.324198
C65   C     C_R   0.336293 0.752157 0.114235 0.060226
C66   C     C_R   0.697959 0.292952 0.938965 0.057920
C67   C     C_R   0.669309 0.750774 0.871334 0.056050
C68   C     C_R   0.302092 0.292617 0.061701 0.057890
C69   C     C_R   0.836344 0.252650 0.115580 0.059751
C70   C     C_R   0.197905 0.792637 0.938135 0.057898
C71   C     C_R   0.163646 0.252432 0.885323 0.059800
C72   C     C_R   0.807927 0.790842 0.047052 0.060223
C73   C     C_R   0.354607 0.805853 0.163284 0.020828
C74   C     C_R   0.680147 0.237871 0.893168 0.034866
C75   C     C_R   0.650961 0.804670 0.823144 0.022122
C76   C     C_R   0.319860 0.237578 0.107557 0.034771
C77   C     C_R   0.854222 0.306116 0.165307 0.020135
C78   C     C_R   0.179906 0.737491 0.892550 0.034960
C79   C     C_R   0.145708 0.305927 0.835766 0.020395
C80   C     C_R   0.829133 0.733916 0.082838 0.041641
C81   C     C_R   0.285760 0.749580 0.035005 0.104685
C82   C     C_R   0.751111 0.299107 0.011385 0.107872
C83   C     C_R   0.722630 0.745167 0.942077 0.108522
C84   C     C_R   0.248896 0.298847 0.989464 0.107968
C85   C     C_R   0.785881 0.250064 0.036136 0.104830
C86   C     C_R   0.251191 0.798814 0.010100 0.107932
C87   C     C_R   0.214114 0.249840 0.964723 0.104777
C88   C     C_R   0.755307 0.796189 0.973240 0.105617
C89   C     C_R   0.645062 0.579388 0.571281 -0.148322
C90   C     C_R   0.371990 0.392672 0.427898 -0.129349
C91   C     C_R   0.354840 0.579103 0.428673 -0.149161
C92   C     C_R   0.627951 0.392619 0.572084 -0.129718
C93   C     C_R   0.145100 0.079297 0.571293 -0.148307
C94   C     C_R   0.871869 0.892792 0.427895 -0.130458
C95   C     C_R   0.854899 0.079301 0.428747 -0.148296
C96   C     C_R   0.128169 0.892810 0.572014 -0.130489
C97   C     C_R   0.770437 0.352085 0.061038 -0.224527
C98   C     C_R   0.268138 0.698276 0.981647 -0.229903
C99   C     C_R   0.229507 0.351873 0.940020 -0.224137
C100  C     C_R   0.745252 0.689217 0.978147 -0.227703
C101  C     C_R   0.270904 0.852014 0.059090 -0.224228
C102  C     C_R   0.768465 0.198898 0.982459 -0.229145
C103  C     C_R   0.734938 0.850429 0.927796 -0.225553
C104  C     C_R   0.231503 0.198706 0.018369 -0.229324
C105  C     C_R   0.821377 0.355918 0.134443 -0.126907
C106  C     C_R   0.216153 0.691785 0.913871 -0.123464
C107  C     C_R   0.178528 0.355738 0.866730 -0.127471
C108  C     C_R   0.797351 0.683826 0.046037 -0.120510
C109  C     C_R   0.321995 0.855838 0.132106 -0.127564
C110  C     C_R   0.716526 0.192317 0.914512 -0.123896
C111  C     C_R   0.684124 0.854284 0.853770 -0.128384
C112  C     C_R   0.283441 0.192104 0.086298 -0.123983
C113  C     C_R   0.596364 0.578567 0.426030 -0.116283
C114  C     C_R   0.422325 0.392135 0.574377 -0.085378
C115  C     C_R   0.403354 0.577874 0.573860 -0.112562
C116  C     C_R   0.577654 0.392068 0.425614 -0.084845
C117  C     C_R   0.096490 0.078231 0.426077 -0.114249
C118  C     C_R   0.922240 0.892230 0.574399 -0.085503
C119  C     C_R   0.903540 0.078339 0.573965 -0.114802
C120  C     C_R   0.077929 0.892378 0.425457 -0.087110
C121  C     C_R   0.396927 0.611774 0.302901 -0.168758
C122  C     C_R   0.614446 0.407297 0.732859 -0.192980
C123  C     C_R   0.603012 0.611799 0.696574 -0.164978
C124  C     C_R   0.385620 0.407092 0.267333 -0.192294
C125  C     C_R   0.896947 0.111810 0.303179 -0.166796
C126  C     C_R   0.114379 0.907098 0.732635 -0.192782
C127  C     C_R   0.103090 0.111762 0.697124 -0.167003
C128  C     C_R   0.886044 0.906264 0.267543 -0.194917
C129  C     C_R   0.573288 0.644005 0.719477 0.085611
C130  C     C_R   0.409346 0.385061 0.225555 0.086199
C131  C     C_R   0.426683 0.643604 0.279590 0.087852
C132  C     C_R   0.590769 0.385430 0.774775 0.086471
C133  C     C_R   0.073333 0.143655 0.720382 0.086621
C134  C     C_R   0.910273 0.884395 0.226174 0.086548
C135  C     C_R   0.926735 0.143807 0.280184 0.085821
C136  C     C_R   0.090659 0.885146 0.774442 0.086132
C137  C     C_R   0.645475 0.592527 0.497092 0.063949
C138  C     C_R   0.384667 0.360489 0.502199 0.071999
C139  C     C_R   0.354153 0.591665 0.502819 0.063798
C140  C     C_R   0.615261 0.360395 0.497767 0.071817
C141  C     C_R   0.145637 0.092171 0.497108 0.063533
C142  C     C_R   0.884499 0.860655 0.502236 0.070880
C143  C     C_R   0.854379 0.092236 0.502952 0.063705
C144  C     C_R   0.115675 0.860800 0.497619 0.071468
C145  C     C_R   0.214312 0.615870 0.438421 -0.111438
C146  C     C_R   0.671566 0.206332 0.558221 -0.100247
C147  C     C_R   0.784957 0.615681 0.559286 -0.113503
C148  C     C_R   0.328259 0.206470 0.441722 -0.100706
C149  C     C_R   0.714714 0.115454 0.440111 -0.112127
C150  C     C_R   0.170866 0.706239 0.556475 -0.100279
C151  C     C_R   0.285277 0.115756 0.560067 -0.112923
C152  C     C_R   0.827746 0.706880 0.441368 -0.102963
C153  C     C_R   0.257084 0.593736 0.437481 -0.190518
C154  C     C_R   0.648905 0.259884 0.559542 -0.168209
C155  C     C_R   0.742294 0.593679 0.560616 -0.191181
C156  C     C_R   0.350921 0.259986 0.440374 -0.168139
C157  C     C_R   0.757444 0.093586 0.438802 -0.191115
C158  C     C_R   0.148438 0.759882 0.558138 -0.169645
C159  C     C_R   0.242584 0.093799 0.561370 -0.191306
C160  C     C_R   0.850364 0.760396 0.440003 -0.170627
C161  C     C_R   0.308450 0.605772 0.507852 0.085153
C162  C     C_R   0.635718 0.302469 0.494325 0.086763
C163  C     C_R   0.690888 0.607318 0.491831 0.085520
C164  C     C_R   0.364145 0.302627 0.505606 0.086691
C165  C     C_R   0.808834 0.106647 0.508214 0.085538
C166  C     C_R   0.136357 0.803071 0.494162 0.088043
C167  C     C_R   0.191172 0.106651 0.491875 0.085496
C168  C     C_R   0.864044 0.802780 0.505714 0.089118
H1    H     H_    0.675979 0.386039 0.928352 0.162964
H2    H     H_    0.351762 0.657343 0.121798 0.162509
H3    H     H_    0.324308 0.385568 0.071820 0.163120
H4    H     H_    0.644555 0.662009 0.881309 0.170285
H5    H     H_    0.175900 0.885697 0.927905 0.163054
H6    H     H_    0.852644 0.158082 0.121989 0.162822
H7    H     H_    0.821482 0.885007 0.076349 0.160509
H8    H     H_    0.147520 0.157819 0.878596 0.162729
H9    H     H_    0.746786 0.391360 0.046878 0.141416
H10   H     H_    0.293849 0.661958 0.990359 0.148374
H11   H     H_    0.253096 0.391190 0.954305 0.140931
H12   H     H_    0.724512 0.647851 0.952455 0.135481
H13   H     H_    0.247531 0.891552 0.044589 0.140694
H14   H     H_    0.794255 0.162713 0.991053 0.148083
H15   H     H_    0.758587 0.890081 0.944776 0.144495
H16   H     H_    0.205669 0.162589 0.009770 0.148197
H17   H     H_    0.679094 0.576044 0.637667 0.095615
H18   H     H_    0.342396 0.381082 0.361118 0.097391
H19   H     H_    0.320929 0.575762 0.362177 0.096289
H20   H     H_    0.657486 0.381007 0.638871 0.097488
H21   H     H_    0.179080 0.075991 0.637729 0.096196
H22   H     H_    0.842260 0.881279 0.361077 0.097858
H23   H     H_    0.820907 0.075946 0.362324 0.096226
H24   H     H_    0.157760 0.881217 0.638783 0.097862
H25   H     H_    0.588611 0.569235 0.361728 0.159815
H26   H     H_    0.440765 0.378714 0.641561 0.133476
H27   H     H_    0.411049 0.567890 0.637962 0.158590
H28   H     H_    0.559235 0.378594 0.358447 0.133403
H29   H     H_    0.088780 0.068521 0.361888 0.159564
H30   H     H_    0.940698 0.878806 0.641584 0.133597
H31   H     H_    0.911277 0.068747 0.638180 0.159301
H32   H     H_    0.059629 0.879179 0.358138 0.135828
H33   H     H_    0.361030 0.626118 0.297191 0.125144
H34   H     H_    0.655184 0.401655 0.753945 0.117446
H35   H     H_    0.638771 0.626099 0.701807 0.124079
H36   H     H_    0.344892 0.401415 0.246264 0.117622
H37   H     H_    0.861061 0.126102 0.297541 0.125035
H38   H     H_    0.155095 0.901369 0.753650 0.117768
H39   H     H_    0.138978 0.126078 0.702818 0.124974
H40   H     H_    0.845286 0.900194 0.246040 0.117548
H41   H     H_    0.175034 0.610311 0.380637 0.162501
H42   H     H_    0.684161 0.175062 0.611554 0.181111
H43   H     H_    0.824423 0.608538 0.615834 0.163057
H44   H     H_    0.315667 0.175140 0.388407 0.181133
H45   H     H_    0.675322 0.108915 0.383045 0.162858
H46   H     H_    0.182494 0.674390 0.608810 0.181486
H47   H     H_    0.324675 0.109360 0.617172 0.162745
H48   H     H_    0.814620 0.675839 0.387564 0.178272
H49   H     H_    0.249900 0.569729 0.380098 0.125288
H50   H     H_    0.642842 0.268603 0.612445 0.148791
H51   H     H_    0.749609 0.568247 0.616961 0.125416
H52   H     H_    0.356976 0.268621 0.387459 0.148759
H53   H     H_    0.750191 0.068820 0.381936 0.125492
H54   H     H_    0.141574 0.768141 0.610249 0.149254
H55   H     H_    0.249878 0.069124 0.618286 0.125410
H56   H     H_    0.855965 0.769265 0.386651 0.144965
H57   H     H_    0.355852 0.642151 0.639262 0.163268
H58   H     H_    0.631243 0.322089 0.373412 0.150876
H59   H     H_    0.642959 0.647180 0.363015 0.162486
H60   H     H_    0.368658 0.322397 0.626547 0.150792
H61   H     H_    0.856521 0.144931 0.638284 0.162369
H62   H     H_    0.133990 0.824023 0.375458 0.149604
H63   H     H_    0.143435 0.144687 0.361703 0.162733
H64   H     H_    0.869586 0.821979 0.627666 0.150089
H65   H     H_    0.833197 0.397619 0.169616 0.173931
H66   H     H_    0.205197 0.650218 0.878447 0.174007
H67   H     H_    0.166653 0.397472 0.831711 0.173585
H68   H     H_    0.812258 0.639485 0.068639 0.169410
H69   H     H_    0.334144 0.897732 0.166737 0.173498
H70   H     H_    0.705724 0.150828 0.878899 0.173789
H71   H     H_    0.671752 0.896496 0.820124 0.173406
H72   H     H_    0.294216 0.150652 0.121929 0.173775
N1    N     N_R   0.532910 0.558440 0.665240 -0.060497
N2    N     N_R   0.467090 0.441560 0.334760 -0.068169
N3    N     N_R   0.467090 0.558440 0.334760 -0.060510
N4    N     N_R   0.532910 0.441560 0.665240 -0.068148
N5    N     N_R   0.032910 0.058440 0.665240 -0.060433
N6    N     N_R   0.967090 0.941560 0.334760 -0.069144
N7    N     N_R   0.967090 0.058440 0.334760 -0.060170
N8    N     N_R   0.032910 0.941560 0.665240 -0.068263
N9    N     N_R   0.597030 0.558910 0.545540 -0.041859
N10   N     N_R   0.402970 0.441090 0.454460 -0.040764
N11   N     N_R   0.402970 0.558910 0.454460 -0.042199
N12   N     N_R   0.597030 0.441090 0.545540 -0.040850
N13   N     N_R   0.097030 0.058910 0.545540 -0.042150
N14   N     N_R   0.902970 0.941090 0.454460 -0.040643
N15   N     N_R   0.902970 0.058910 0.454460 -0.042132
N16   N     N_R   0.097030 0.941090 0.545540 -0.040610
N17   N     N_R   0.566200 0.559270 0.454460 -0.046031
N18   N     N_R   0.433800 0.440730 0.545540 -0.045067
N19   N     N_R   0.433800 0.559270 0.545540 -0.046481
N20   N     N_R   0.566200 0.440730 0.454460 -0.044890
N21   N     N_R   0.066200 0.059270 0.454460 -0.046288
N22   N     N_R   0.933800 0.940730 0.545540 -0.044859
N23   N     N_R   0.933800 0.059270 0.545540 -0.046313
N24   N     N_R   0.066200 0.940730 0.454460 -0.045107
N25   N     N_R   0.421050 0.559750 0.334770 -0.055683
N26   N     N_R   0.578950 0.440250 0.665230 -0.050035
N27   N     N_R   0.578950 0.559750 0.665230 -0.056274
N28   N     N_R   0.421050 0.440250 0.334770 -0.050071
N29   N     N_R   0.921050 0.059750 0.334770 -0.055787
N30   N     N_R   0.078950 0.940250 0.665230 -0.050145
N31   N     N_R   0.078950 0.059750 0.665230 -0.055867
N32   N     N_R   0.921050 0.940250 0.334770 -0.050244
Ni1   Ni    Ni4+2 0.483090 0.500000 0.604440 0.263067
Ni2   Ni    Ni4+2 0.516910 0.500000 0.395560 0.263644
Ni3   Ni    Ni4+2 0.983090 0.000000 0.604440 0.262958
Ni4   Ni    Ni4+2 0.016910 0.000000 0.395560 0.262644
Ni5   Ni    Ni4+2 0.586780 0.500000 0.604440 0.215389
Ni6   Ni    Ni4+2 0.413220 0.500000 0.395560 0.215940
Ni7   Ni    Ni4+2 0.086780 0.000000 0.604440 0.215572
Ni8   Ni    Ni4+2 0.913220 0.000000 0.395560 0.215699
I1    I     I_    0.498126 0.618598 0.781800 -0.414039
I2    I     I_    0.493861 0.431769 0.193360 -0.388393
I3    I     I_    0.500483 0.615672 0.215142 -0.411042
I4    I     I_    0.506151 0.432524 0.806596 -0.389147
I5    I     I_    0.999068 0.116444 0.784057 -0.413423
I6    I     I_    0.993288 0.935529 0.193317 -0.390459
I7    I     I_    0.001259 0.117274 0.216823 -0.413221
I8    I     I_    0.006236 0.932241 0.806708 -0.390407
O1    O     O_3   0.539246 0.272971 0.731433 -0.622956
C169  C     C_3   0.511006 0.236555 0.756434 0.286647
H73   H     H_    0.534834 0.200003 0.802461 0.107324
H74   H     H_    0.478191 0.215139 0.696167 0.159219
C170  C     C_3   0.487437 0.273028 0.797943 -0.909861
H75   H     H_    0.460242 0.306883 0.750896 0.270101
H76   H     H_    0.464834 0.243498 0.815174 0.240646
H77   H     H_    0.519184 0.294961 0.858774 0.268585
O2    O     O_3   0.472684 0.752201 0.369035 -0.603456
C171  C     C_3   0.520595 0.755763 0.372821 0.268497
H78   H     H_    0.525950 0.801133 0.354428 0.125722
H79   H     H_    0.522430 0.722959 0.328564 0.096660
C172  C     C_3   0.565974 0.742680 0.466253 -0.764982
H80   H     H_    0.561047 0.697849 0.486576 0.258255
H81   H     H_    0.603879 0.744000 0.469741 0.177776
H82   H     H_    0.567031 0.776345 0.512142 0.294040
O3    O     O_3   0.460805 0.272545 0.269193 -0.622982
C173  C     C_3   0.489038 0.235974 0.244282 0.287002
H83   H     H_    0.465209 0.199339 0.198393 0.107564
H84   H     H_    0.521871 0.214661 0.304612 0.159350
C174  C     C_3   0.512575 0.272249 0.202612 -0.910173
H85   H     H_    0.539727 0.306217 0.249505 0.270254
H86   H     H_    0.535216 0.242612 0.185533 0.240821
H87   H     H_    0.480809 0.294032 0.141673 0.268433
O4    O     O_3   0.529238 0.751474 0.623535 -0.604223
C175  C     C_3   0.481542 0.756494 0.620206 0.270920
H88   H     H_    0.476787 0.802448 0.637698 0.124597
H89   H     H_    0.479559 0.724699 0.665379 0.096860
C176  C     C_3   0.435818 0.742904 0.527223 -0.768006
H90   H     H_    0.440107 0.697428 0.507864 0.256924
H91   H     H_    0.398042 0.745541 0.524034 0.179755
H92   H     H_    0.435005 0.775524 0.480405 0.293692
O5    O     O_3   0.038951 0.772766 0.731449 -0.623633
C177  C     C_3   0.010814 0.736429 0.756749 0.286965
H93   H     H_    0.034656 0.699837 0.802663 0.107607
H94   H     H_    0.977863 0.715073 0.696583 0.158891
C178  C     C_3   0.987514 0.772970 0.798632 -0.910613
H95   H     H_    0.960385 0.806945 0.751777 0.270397
H96   H     H_    0.964902 0.743521 0.815942 0.240851
H97   H     H_    0.019408 0.794762 0.859458 0.268105
O6    O     O_3   0.971635 0.252082 0.371534 -0.604754
C179  C     C_3   0.020015 0.255777 0.376923 0.266051
H98   H     H_    0.025643 0.301236 0.359157 0.125956
H99   H     H_    0.022417 0.223118 0.333057 0.097232
C180  C     C_3   0.064733 0.242514 0.470809 -0.765823
H100  H     H_    0.059586 0.197519 0.490395 0.257453
H101  H     H_    0.103029 0.244113 0.475644 0.179422
H102  H     H_    0.065126 0.275924 0.516429 0.293993
O7    O     O_3   0.966056 0.775191 0.258991 -0.625804
C181  C     C_3   0.996515 0.742086 0.234715 0.285694
H103  H     H_    0.974633 0.705904 0.186579 0.109453
H104  H     H_    0.029378 0.720660 0.294888 0.158881
C182  C     C_3   0.020051 0.781755 0.196407 -0.907074
H105  H     H_    0.046032 0.815489 0.245204 0.268875
H106  H     H_    0.044046 0.754497 0.179417 0.240666
H107  H     H_    0.988192 0.803697 0.135743 0.270221
O8    O     O_3   0.028221 0.251967 0.629528 -0.604726
C183  C     C_3   0.979897 0.255473 0.624361 0.266074
H108  H     H_    0.974254 0.300846 0.642450 0.125429
H109  H     H_    0.977605 0.222653 0.668099 0.097206
C184  C     C_3   0.935112 0.242341 0.530458 -0.766389
H110  H     H_    0.940266 0.197431 0.510559 0.257647
H111  H     H_    0.896859 0.243808 0.525781 0.179258
H112  H     H_    0.934624 0.275891 0.484976 0.293746
I9    I     I_    0.432894 0.885283 0.324992 -0.333841
I10   I     I_    0.600315 0.152669 0.742159 -0.386372
I11   I     I_    0.572418 0.883587 0.661370 -0.336074
I12   I     I_    0.399627 0.152455 0.258647 -0.385250
I13   I     I_    0.931612 0.385042 0.328390 -0.332419
I14   I     I_    0.099762 0.652285 0.741902 -0.386518
I15   I     I_    0.068162 0.384935 0.673024 -0.334869
I16   I     I_    0.908275 0.647153 0.230437 -0.380192
O9    O     O_3   0.783386 0.192879 0.655073 -0.625094
C185  C     C_3   0.802481 0.249797 0.653195 0.262767
H113  H     H_    0.776053 0.272226 0.588893 0.061156
H114  H     H_    0.842925 0.246809 0.666154 0.098581
C186  C     C_3   0.804555 0.288150 0.724342 -0.830747
H115  H     H_    0.831092 0.267637 0.789897 0.265535
H116  H     H_    0.819651 0.333032 0.723795 0.202596
H117  H     H_    0.764481 0.292641 0.712307 0.246274
O10   O     O_3   0.178138 0.729023 0.359940 -0.634177
C187  C     C_3   0.223138 0.761845 0.379408 0.270355
H118  H     H_    0.257421 0.751514 0.446525 0.062368
H119  H     H_    0.214967 0.810409 0.373991 0.101672
C188  C     C_3   0.238182 0.745339 0.314076 -0.842675
H120  H     H_    0.205205 0.755698 0.246098 0.259913
H121  H     H_    0.273500 0.770950 0.328663 0.212087
H122  H     H_    0.247343 0.697155 0.318923 0.248388
O11   O     O_3   0.216474 0.192759 0.344903 -0.625187
C189  C     C_3   0.197265 0.249658 0.346652 0.262614
H123  H     H_    0.223652 0.272210 0.410899 0.061244
H124  H     H_    0.156831 0.246606 0.333715 0.098971
C190  C     C_3   0.195103 0.287901 0.275407 -0.830170
H125  H     H_    0.168605 0.267261 0.209904 0.265506
H126  H     H_    0.179917 0.332766 0.275851 0.202817
H127  H     H_    0.235165 0.292453 0.287419 0.246224
O12   O     O_3   0.825688 0.726846 0.643305 -0.633902
C191  C     C_3   0.782011 0.760450 0.628438 0.270521
H128  H     H_    0.746508 0.751494 0.562010 0.062593
H129  H     H_    0.791061 0.808824 0.635356 0.102123
C192  C     C_3   0.768973 0.743124 0.695988 -0.841306
H130  H     H_    0.803247 0.752062 0.763415 0.259789
H131  H     H_    0.734727 0.769349 0.685068 0.212261
H132  H     H_    0.758946 0.695136 0.689713 0.247873
O13   O     O_3   0.282595 0.690123 0.655738 -0.625000
C193  C     C_3   0.302769 0.746909 0.656496 0.261940
H133  H     H_    0.277178 0.770396 0.592818 0.060816
H134  H     H_    0.343439 0.743448 0.670555 0.100603
C194  C     C_3   0.304581 0.784271 0.728257 -0.829407
H135  H     H_    0.330298 0.762686 0.793246 0.265793
H136  H     H_    0.320516 0.829040 0.729786 0.202397
H137  H     H_    0.264295 0.789211 0.715181 0.246286
O14   O     O_3   0.675718 0.227261 0.358403 -0.633533
C195  C     C_3   0.719923 0.260673 0.375338 0.270411
H138  H     H_    0.754866 0.251363 0.442227 0.062108
H139  H     H_    0.711076 0.309098 0.368751 0.102297
C196  C     C_3   0.734068 0.243598 0.309057 -0.841092
H140  H     H_    0.700398 0.252930 0.241244 0.260292
H141  H     H_    0.768745 0.269672 0.321635 0.211909
H142  H     H_    0.743889 0.195557 0.315028 0.248000
O15   O     O_3   0.715845 0.695988 0.346673 -0.623719
C197  C     C_3   0.697808 0.752897 0.351617 0.263296
H143  H     H_    0.725447 0.774400 0.416236 0.061606
H144  H     H_    0.657892 0.750185 0.340977 0.095749
C198  C     C_3   0.694534 0.792207 0.280377 -0.828015
H145  H     H_    0.666647 0.772723 0.214531 0.265278
H146  H     H_    0.680445 0.837151 0.283579 0.202037
H147  H     H_    0.734047 0.796320 0.289998 0.246447
O16   O     O_3   0.324157 0.227681 0.641576 -0.633606
C199  C     C_3   0.279921 0.261087 0.624585 0.270417
H148  H     H_    0.244988 0.251688 0.557708 0.062205
H149  H     H_    0.288725 0.309517 0.631099 0.102319
C200  C     C_3   0.265786 0.244123 0.690884 -0.841181
H150  H     H_    0.299446 0.253545 0.758684 0.260280
H151  H     H_    0.231085 0.270195 0.678263 0.211974
H152  H     H_    0.256009 0.196078 0.684981 0.248049

loop_
_geom_bond_atom_site_label_1
_geom_bond_atom_site_label_2
_ccdc_geom_bond_type
C177  H94   S    
C169  C170  S    
C119  C143  A    
C120  C144  A    
O7    C181  S    
C172  H80   S    
C90   N10   A    
C45   I13   S    
C3    C131  A    
N5    N31   A    
N6    N32   A    
C94   N14   A    
C41   I9    S    
C180  H102  S    
C177  C178  S    
C62   C70   A    
C127  H39   S    
C72   C88   A    
C37   C135  S    
C38   C136  S    
C147  C155  A    
C145  H41   S    
C81   C86   A    
C97   C105  A    
C125  C135  A    
N31   Ni7   S    
C83   C88   A    
C126  C136  A    
C198  H146  S    
C151  H47   S    
C41   C49   A    
C6    N6    A    
C22   O10   S    
C43   C75   A    
C179  H98   S    
C102  H14   S    
C150  H46   S    
C148  H44   S    
C188  H122  S    
C121  N25   A    
C20   C28   A    
C175  H88   S    
C180  H100  S    
C21   C29   A    
C124  N28   A    
N29   Ni8   S    
C153  C161  A    
C23   C31   A    
N30   Ni7   S    
C176  H92   S    
C191  H129  S    
N12   Ni5   S    
C94   H22   S    
C36   C130  S    
C66   C82   A    
C146  C154  A    
C16   H64   S    
C12   C20   A    
C173  H83   S    
C13   C21   A    
C23   O11   S    
C49   O2    S    
N3    Ni2   S    
C179  H99   S    
C160  H56   S    
C115  C139  A    
C83   C100  A    
N16   N24   A    
C35   C51   A    
C190  H125  S    
C103  H15   S    
C196  H142  S    
C191  C192  S    
C171  H78   S    
C2    C130  A    
N12   N20   A    
C104  C112  A    
C10   C162  A    
C172  H82   S    
N13   N21   A    
C114  H26   S    
C126  N30   A    
N3    N25   A    
C74   C110  A    
C82   C85   A    
O13   C193  S    
C1    C129  A    
C98   C106  A    
C48   I16   S    
C123  H35   S    
C78   C106  A    
C17   C25   A    
C194  H136  S    
N11   Ni6   S    
C121  H33   S    
C115  N19   A    
C196  H140  S    
C1    I1    S    
C10   C18   A    
C125  H37   S    
N9    Ni5   S    
C192  H130  S    
C160  C168  A    
C149  H45   S    
C14   H62   S    
C47   I15   S    
C193  H133  S    
C142  C168  S    
C8    I8    S    
C184  H112  S    
O5    C177  S    
C34   C58   A    
C128  H40   S    
C9    H57   S    
O15   C197  S    
C186  H115  S    
C101  C109  A    
C38   C62   A    
C67   C83   A    
C184  H110  S    
C69   C77   A    
C71   C79   A    
O14   C195  S    
C4    C132  A    
C5    C133  A    
C152  H48   S    
N24   Ni4   S    
C35   C59   A    
N25   Ni6   S    
C185  H113  S    
C140  C162  S    
C66   C74   A    
C7    N7    A    
C178  H96   S    
C59   C67   A    
C53   O6    S    
C159  C167  A    
C112  H72   S    
C190  H127  S    
N1    N27   A    
N2    N28   A    
C98   H10   S    
C153  H49   S    
C36   C52   A    
N20   Ni2   S    
C44   C52   A    
C45   C53   A    
C55   O8    S    
C127  N31   A    
C157  H53   S    
C128  N32   A    
C15   C167  A    
C90   C138  A    
C199  H149  S    
C182  H106  S    
C100  C108  A    
C94   C142  A    
C58   H1    S    
C96   N16   A    
N8    Ni3   S    
C186  H117  S    
C157  C165  A    
C137  C163  S    
C169  H74   S    
C155  C163  A    
C62   H5    S    
C40   C134  S    
C21   O9    S    
C151  C159  A    
C170  H75   S    
C128  C134  A    
C199  C200  S    
C31   C151  A    
C183  H109  S    
C32   C152  A    
C57   C65   A    
C11   C163  A    
O1    C169  S    
C50   O1    S    
C9    C161  A    
C46   I14   S    
C8    N8    A    
C197  H143  S    
C42   C50   A    
C174  H87   S    
C43   I11   S    
C200  H152  S    
N23   Ni3   S    
C67   C75   A    
C100  H12   S    
C101  H13   S    
C122  N26   A    
C183  C184  S    
C190  H126  S    
C195  H138  S    
C9    C17   A    
C2    N2    A    
C91   H19   S    
C22   C30   A    
C15   H63   S    
C60   H3    S    
C89   H17   S    
C24   O12   S    
C154  C162  A    
C61   H6    S    
C92   H20   S    
C51   O4    S    
C93   H21   S    
C68   C76   A    
C181  C182  S    
C80   C108  A    
C181  H104  S    
C14   C22   A    
C189  H123  S    
C72   C80   A    
C194  H135  S    
N32   Ni8   S    
C4    I4    S    
C5    I5    S    
C114  C138  A    
C7    I7    S    
C41   C73   A    
C116  H28   S    
N8    N30   A    
N14   N22   A    
C11   H59   S    
C33   C49   A    
C52   O3    S    
C45   C77   A    
C4    N4    A    
C85   C102  A    
C118  H30   S    
C199  H148  S    
C108  H68   S    
C95   C143  A    
C198  H145  S    
N15   Ni8   S    
C8    C136  A    
C186  H116  S    
N16   Ni7   S    
C18   C26   A    
C69   C85   A    
C63   H8    S    
C2    I2    S    
N21   Ni4   S    
C91   N11   A    
N22   Ni3   S    
C11   C19   A    
N17   Ni2   S    
C200  H150  S    
C113  N17   A    
C119  H31   S    
N10   Ni6   S    
C57   H2    S    
C170  H77   S    
C188  H121  S    
C19   O15   S    
C93   N13   A    
C12   H60   S    
C81   C98   A    
C200  H151  S    
C175  H89   S    
N28   Ni6   S    
C103  C111  A    
C169  H73   S    
O6    C179  S    
N1    Ni1   S    
C176  H91   S    
C143  C165  S    
N13   Ni7   S    
N11   N19   A    
N14   Ni8   S    
C39   C55   A    
C40   C56   A    
C179  C180  S    
C173  H84   S    
C155  H51   S    
C106  H66   S    
C117  N21   A    
C175  C176  S    
C180  H101  S    
C177  H93   S    
C92   N12   A    
C171  H79   S    
C147  H43   S    
C20   O16   S    
C187  H118  S    
C172  H81   S    
N26   Ni5   S    
C141  C167  S    
C173  C174  S    
C42   C74   A    
C68   C84   A    
C139  C161  S    
C194  H137  S    
C46   C78   A    
C17   O13   S    
C118  C142  A    
C182  H105  S    
C144  C166  S    
C171  C172  S    
C117  C141  A    
C99   H11   S    
C12   C164  A    
C65   C81   A    
C38   C54   A    
C46   C54   A    
C110  H70   S    
C79   C107  A    
C56   O7    S    
C54   O5    S    
C193  H134  S    
C91   C139  A    
C104  H16   S    
C198  H147  S    
C89   C137  A    
C82   C97   A    
C102  C110  A    
C189  H124  S    
C59   H4    S    
C92   C140  A    
C93   C141  A    
C158  C166  A    
O12   C191  S    
C39   C133  S    
C25   C30   S    
C115  H27   S    
C150  C158  A    
C27   C32   S    
C84   C99   A    
C113  H25   S    
C28   C31   S    
C127  C133  A    
C5    N5    A    
C193  C194  S    
C187  H119  S    
C73   C109  A    
C99   C107  A    
C75   C111  A    
N9    N17   A    
C122  H34   S    
C189  C190  S    
C77   C105  A    
C191  H128  S    
C43   C51   A    
O4    C175  S    
C185  H114  S    
C126  H38   S    
C120  H32   S    
N19   Ni1   S    
N4    N26   A    
C178  H95   S    
C187  C188  S    
C13   H61   S    
C87   C104  A    
C123  N27   A    
C60   C68   A    
C170  H76   S    
O3    C173  S    
C192  H131  S    
C148  C156  A    
N7    Ni4   S    
C149  C157  A    
C185  C186  S    
C152  C160  A    
C70   C78   A    
O2    C171  S    
C16   C24   A    
C84   C87   A    
C47   C79   A    
C24   C32   A    
O16   C199  S    
C174  H85   S    
C124  H36   S    
C6    I6    S    
C196  H141  S    
N7    N29   A    
C96   C144  A    
C90   H18   S    
C65   C73   A    
C26   C146  A    
C13   C165  A    
C58   C66   A    
C119  N23   A    
C120  N24   A    
C154  H50   S    
C19   C27   A    
C35   C129  S    
C197  H144  S    
C116  N20   A    
C95   H23   S    
C145  C153  A    
C33   C131  S    
C15   C23   A    
C34   C132  S    
C158  H54   S    
C97   H9    S    
C123  C129  A    
N18   Ni1   S    
C44   I12   S    
C176  H90   S    
C121  C131  A    
C122  C132  A    
C146  H42   S    
C195  H139  S    
C34   C50   A    
C124  C130  A    
N2    Ni2   S    
C197  C198  S    
C156  H52   S    
C89   N9    A    
N27   Ni5   S    
C111  H71   S    
C125  N29   A    
C178  H97   S    
C7    C135  A    
C192  H132  S    
C195  C196  S    
C118  N22   A    
C76   C112  A    
C18   O14   S    
C3    N3    A    
C64   H7    S    
C114  N18   A    
O11   C189  S    
C1    N1    A    
C27   C147  A    
C42   I10   S    
N4    Ni1   S    
C71   C87   A    
C14   C166  A    
C70   C86   A    
C95   N15   A    
C88   C103  A    
C117  H29   S    
C47   C55   A    
O10   C187  S    
C182  H107  S    
C61   C69   A    
C48   C56   A    
C107  H67   S    
C33   C57   A    
C30   C150  A    
C28   C148  A    
C105  H65   S    
C63   C71   A    
C36   C60   A    
C37   C61   A    
C109  H69   S    
C39   C63   A    
O9    C185  S    
C40   C64   A    
N5    Ni3   S    
C48   C80   A    
N6    Ni4   S    
C37   C53   A    
C6    C134  A    
C188  H120  S    
C183  H108  S    
N15   N23   A    
C174  H86   S    
C16   C168  A    
C159  H55   S    
C3    I3    S    
C113  C137  A    
C64   C72   A    
C96   H24   S    
C29   C149  A    
C138  C164  S    
C156  C164  A    
C26   C29   S    
C184  H111  S    
C181  H103  S    
C10   H58   S    
C25   C145  A    
C44   C76   A    
O8    C183  S    
C86   C101  A    
N10   N18   A    
C116  C140  A    
