data_mof_unit_21734.cif
_audit_creation_date              2012-12-10T20:31:54-0500
_audit_creation_method            fapswitch 2.2
_symmetry_space_group_name_H-M    P1
_symmetry_Int_Tables_number       1
_space_group_crystal_system       triclinic
_cell_length_a                    9.877573
_cell_length_b                    10.704515
_cell_length_c                    15.430702
_cell_angle_alpha                 90.593621
_cell_angle_beta                  67.232073
_cell_angle_gamma                 90.181067
_cell_volume                      1504.34692577

loop_
_atom_site_label
_atom_site_type_symbol
_atom_type_description
_atom_site_fract_x
_atom_site_fract_y
_atom_site_fract_z
_atom_type_partial_charge
C1    C     C_R   0.499570 0.740003 0.500874 0.881648
C2    C     C_R   0.713156 0.396257 0.041023 0.134216
C3    C     C_R   0.581803 0.463937 0.089080 0.063292
C4    C     C_R   0.407792 0.495989 0.676375 0.894084
C5    C     C_R   0.812346 0.375916 0.084221 -0.233606
C6    C     C_R   0.777892 0.416958 0.176170 -0.243100
C7    C     C_R   0.566761 0.528841 0.172215 0.148668
C8    C     C_R   0.366615 0.936052 0.519974 0.116071
C9    C     C_R   0.493914 0.871898 0.510993 -0.124730
C10   C     C_R   0.614133 0.936440 0.516113 -0.189935
C11   C     C_R   0.612864 0.065088 0.518287 -0.217944
C12   C     C_R   0.403374 0.449633 0.917176 0.096914
C13   C     C_R   0.492561 0.128695 0.512987 -0.118133
C14   C     C_R   0.366050 0.063746 0.520790 0.147629
C15   C     C_3   0.277273 0.070347 0.461452 -0.477761
C16   C     C_R   0.498921 0.260100 0.501670 0.879386
C17   C     C_3   0.278096 0.928780 0.460321 -0.471012
C18   C     C_R   0.900039 0.589971 0.548510 0.127701
C19   C     C_R   0.960843 0.418433 0.445353 -0.134100
C20   C     C_R   0.104678 0.418329 0.445414 -0.120260
C21   C     C_R   0.042735 0.590299 0.548345 0.148105
C22   C     C_3   0.988134 0.616841 0.651769 -0.116335
C23   C     C_R   0.258264 0.487633 0.973824 0.175887
C24   C     C_3   0.832421 0.614959 0.652025 -0.270522
C25   C     C_R   0.592305 0.501935 0.323690 0.854601
C26   C     C_R   0.348952 0.482762 0.778524 -0.036861
C27   C     C_R   0.651763 0.489480 0.221677 -0.123706
C28   C     C_R   0.156959 0.511565 0.932539 -0.209731
C29   C     C_R   0.202076 0.508020 0.835000 -0.221335
C30   C     C_R   0.445492 0.447023 0.819857 -0.210814
C31   C     C_3   0.523316 0.741201 0.135279 -0.788862
C32   C     C_3   0.984647 0.775242 0.769263 -0.734421
C33   C     C_2   0.745791 0.735318 0.675658 1.006301
C34   C     C_R   0.505921 0.426059 0.958561 0.063409
C35   C     C_R   0.470414 0.464180 0.052699 0.063474
C36   C     C_R   0.323081 0.494903 0.109129 -0.188439
C37   C     C_R   0.217842 0.504146 0.070302 -0.261063
C38   C     C_R   0.642186 0.365933 0.909393 -0.231838
C39   C     C_R   0.742093 0.348063 0.951433 -0.223899
H1    H     H_    0.106268 0.529461 0.115196 0.156712
H2    H     H_    0.184363 0.350634 0.402789 0.146096
H3    H     H_    0.011705 0.539516 0.691463 0.151139
H4    H     H_    0.768245 0.533953 0.691209 0.130696
H5    H     H_    0.846658 0.388359 0.212684 0.165612
H6    H     H_    0.842794 0.297191 0.913402 0.149940
H7    H     H_    0.044971 0.538179 0.975247 0.154884
H8    H     H_    0.124035 0.528972 0.803893 0.152751
H9    H     H_    0.556706 0.425029 0.774462 0.143043
H10   H     H_    0.286711 0.508707 0.184237 0.179864
H11   H     H_    0.670744 0.325151 0.840336 0.144641
H12   H     H_    0.911356 0.321560 0.049275 0.154207
H13   H     H_    0.455150 0.670738 0.268512 0.237909
H14   H     H_    0.445571 0.820517 0.162357 0.238187
H15   H     H_    0.523744 0.712973 0.065778 0.263535
H16   H     H_    0.634941 0.773187 0.126632 0.237199
H17   H     H_    0.148072 0.752885 0.636906 0.256089
H18   H     H_    0.994434 0.878144 0.774214 0.244814
H19   H     H_    0.052079 0.731080 0.803542 0.217979
H20   H     H_    0.867781 0.749089 0.807528 0.248163
H21   H     H_    0.552777 0.819126 0.750997 0.334298
H22   H     H_    0.712732 0.888583 0.511771 0.212235
H23   H     H_    0.709869 0.113670 0.517254 0.181395
H24   H     H_    0.166528 0.110937 0.500550 0.211673
H25   H     H_    0.338970 0.111698 0.391272 0.198482
H26   H     H_    0.167594 0.887750 0.498357 0.229028
H27   H     H_    0.340485 0.887673 0.389513 0.200384
H28   H     H_    0.932171 0.350897 0.402654 0.140935
N1    N     N_R   0.856900 0.500860 0.500610 -0.113767
N2    N     N_R   0.142540 0.500820 0.500610 -0.115160
N3    N     N_2   0.477511 0.639018 0.201174 -0.318355
N4    N     N_2   0.036930 0.738328 0.671214 -0.256390
O1    O     O_R   0.385310 0.683210 0.499990 -0.630191
O2    O     O_R   0.600882 0.733770 0.741196 -0.820137
O3    O     O_R   0.614650 0.683240 0.500000 -0.611460
O4    O     O_R   0.319830 0.499970 0.632240 -0.626800
O5    O     O_R   0.549170 0.500000 0.632250 -0.607141
O6    O     O_R   0.385350 0.316760 0.500000 -0.615028
O7    O     O_R   0.614690 0.316790 0.500010 -0.627579
O8    O     O_R   0.450830 0.500000 0.367750 -0.616948
O9    O     O_R   0.680170 0.500030 0.367760 -0.607725
O10   O     O_2   0.801120 0.833205 0.638113 -0.645753
Zn1   Zn    Zn3+2 0.346870 0.499980 0.499990 0.929800
Zn2   Zn    Zn3+2 0.653130 0.500020 0.500010 0.947771

loop_
_geom_bond_atom_site_label_1
_geom_bond_atom_site_label_2
_ccdc_geom_bond_type
C18   C21   A    
C19   C20   A    
C32   H19   S    
O3    Zn2   S    
C11   H23   S    
C7    N3    S    
C20   H2    S    
C5    C6    A    
C12   C23   A    
C28   H7    S    
C17   H27   S    
C29   H8    S    
C18   C24   S    
C1    O3    A    
C30   H9    S    
C28   C29   A    
C34   C35   A    
C37   H1    S    
C3    C7    A    
C38   C39   A    
C18   N1    A    
C25   O9    A    
H21   O2    S    
C7    C27   A    
C16   O6    A    
C4    O4    A    
N2    Zn1   S    
C2    C39   A    
C31   N3    S    
C35   C36   A    
C8    C9    A    
C15   H25   S    
C19   H28   S    
C9    C10   A    
C39   H6    S    
C6    H5    S    
C13   C14   A    
C32   H18   S    
O9    Zn2   S    
O7    Zn2   S    
O5    Zn2   S    
C32   N4    S    
C1    O1    A    
C1    C9    S    
C23   C37   A    
C21   N2    A    
C34   C38   A    
C6    C27   A    
C3    C35   A    
H17   N4    S    
C19   N1    A    
C23   C28   A    
C31   H14   S    
C33   O2    S    
C26   C30   A    
C22   C24   S    
C20   N2    A    
C10   H22   S    
C12   C34   A    
C22   N4    S    
C15   C17   S    
C36   C37   A    
C8    C14   A    
C12   C30   A    
C25   O8    A    
N1    Zn2   S    
C8    C17   S    
O8    Zn1   S    
C4    C26   S    
O4    Zn1   S    
C38   H11   S    
C25   C27   S    
C17   H26   S    
C24   C33   S    
C2    C3    A    
C11   C13   A    
C22   H3    S    
O6    Zn1   S    
C16   O7    A    
C31   H15   S    
C4    O5    A    
H13   N3    S    
C10   C11   A    
C2    C5    A    
C26   C29   A    
C13   C16   S    
C24   H4    S    
C15   H24   S    
C14   C15   S    
C5    H12   S    
C32   H20   S    
C31   H16   S    
C21   C22   S    
C33   O10   D    
O1    Zn1   S    
C36   H10   S    
