data_mof_unit_32134.cif
_audit_creation_date              2013-03-05T16:15:22-0500
_audit_creation_method            fapswitch 2.2
_symmetry_space_group_name_H-M    P1
_symmetry_Int_Tables_number       1
_space_group_crystal_system       triclinic
_cell_length_a                    27.807224
_cell_length_b                    10.61775
_cell_length_c                    9.407375
_cell_angle_alpha                 89.596034
_cell_angle_beta                  90.133114
_cell_angle_gamma                 90.004029
_cell_volume                      2777.4523694

loop_
_atom_site_label
_atom_site_type_symbol
_atom_site_description
_atom_site_fract_x
_atom_site_fract_y
_atom_site_fract_z
_atom_type_partial_charge
O1    O     O_R   0.500020 0.316850 0.620870 -0.587172
O2    O     O_R   0.499980 0.683150 0.379130 -0.586794
O3    O     O_R   0.500000 0.316860 0.379090 -0.582638
O4    O     O_R   0.500000 0.683140 0.620910 -0.583016
C1    C     C_R   0.500013 0.259367 0.500478 0.790306
C2    C     C_R   0.499988 0.740633 0.499521 0.790339
O5    O     O_R   0.430270 0.500020 0.620880 -0.584141
O6    O     O_R   0.569730 0.499980 0.379120 -0.583492
O7    O     O_R   0.430250 0.500030 0.379090 -0.585293
O8    O     O_R   0.569750 0.499970 0.620910 -0.585282
C3    C     C_R   0.407492 0.499783 0.499831 0.821479
C4    C     C_R   0.592505 0.500173 0.500111 0.821442
Cu1   Cu    Cu3+1 0.500010 0.499990 0.643150 0.940419
Cu2   Cu    Cu3+1 0.499990 0.500010 0.356850 0.941902
C5    C     C_R   0.177643 0.383285 0.517567 0.604168
C6    C     C_R   0.822387 0.616625 0.514764 0.603442
O9    O     O_2   0.202199 0.273857 0.526362 -0.515885
O10   O     O_2   0.797855 0.726193 0.519329 -0.516048
N1    N     N_R   0.202020 0.494475 0.503518 -0.449196
N2    N     N_R   0.797976 0.505227 0.505249 -0.449382
C7    C     C_R   0.178372 0.607207 0.496101 0.603700
C8    C     C_R   0.821605 0.392383 0.502237 0.604315
C9    C     C_R   0.278516 0.504446 0.368090 0.384813
C10   C     C_R   0.721385 0.492104 0.369887 0.384305
C11   C     C_R   0.328997 0.507351 0.370553 -0.277809
C12   C     C_R   0.670913 0.489328 0.372036 -0.277583
C13   C     C_R   0.329071 0.486767 0.627298 -0.196552
C14   C     C_R   0.670998 0.516045 0.627684 -0.195664
C15   C     C_R   0.279060 0.484122 0.626595 -0.138515
C16   C     C_R   0.721015 0.518629 0.627281 -0.137100
C17   C     C_R   0.253536 0.492976 0.498485 0.239678
C18   C     C_R   0.746454 0.506685 0.499852 0.239595
C19   C     C_R   0.101927 0.497355 0.512322 -0.039084
C20   C     C_R   0.898090 0.502467 0.513445 -0.039108
C21   C     C_R   0.127179 0.382566 0.521352 -0.022040
C22   C     C_R   0.872860 0.617390 0.518183 -0.021878
C23   C     C_R   0.101679 0.269837 0.533994 -0.128912
C24   C     C_R   0.898392 0.730301 0.526168 -0.129022
C25   C     C_R   0.127933 0.610779 0.500501 -0.023294
C26   C     C_R   0.872055 0.388873 0.506390 -0.023143
C27   C     C_R   0.354504 0.498302 0.499335 -0.106302
C28   C     C_R   0.645488 0.501514 0.500105 -0.105003
H1    H     H_    0.347773 0.479594 0.728155 0.176055
H2    H     H_    0.652353 0.525721 0.727959 0.170844
H3    H     H_    0.259878 0.476002 0.726313 0.183647
H4    H     H_    0.740262 0.529126 0.726720 0.182585
H5    H     H_    0.120263 0.180458 0.543389 0.188722
H6    H     H_    0.879832 0.819826 0.532253 0.188600
C29   C     C_R   0.974059 0.384177 0.514911 0.044920
C30   C     C_R   0.025955 0.615625 0.510013 0.044854
C31   C     C_R   0.974893 0.616901 0.516966 0.045695
C32   C     C_R   0.025143 0.383023 0.521244 0.045649
C33   C     C_R   0.949224 0.501166 0.515316 0.073413
C34   C     C_R   0.050798 0.498686 0.514725 0.073509
C35   C     C_R   0.946699 0.271991 0.506274 -0.193518
C36   C     C_R   0.053279 0.727606 0.496565 -0.193818
C37   C     C_R   0.896783 0.274586 0.502243 -0.127278
C38   C     C_R   0.103184 0.724942 0.492058 -0.127669
O11   O     O_2   0.796310 0.284112 0.495098 -0.513422
O12   O     O_2   0.203640 0.715308 0.484446 -0.513857
C39   C     C_R   0.051736 0.269779 0.534175 -0.193624
C40   C     C_R   0.948334 0.730347 0.525811 -0.193537
H7    H     H_    0.651405 0.478620 0.273082 0.191541
H8    H     H_    0.348449 0.515638 0.271335 0.190137
H9    H     H_    0.877607 0.185992 0.495238 0.190053
H10   H     H_    0.122332 0.813374 0.481327 0.190359
H11   H     H_    0.962681 0.179935 0.499099 0.136759
H12   H     H_    0.037266 0.819488 0.485900 0.137285
H13   H     H_    0.035133 0.178847 0.547091 0.136444
H14   H     H_    0.964975 0.821472 0.535017 0.136062
C41   C     C_3   0.500095 0.039415 0.635455 -0.138460
C42   C     C_3   0.499909 0.960585 0.364539 -0.137930
C43   C     C_3   0.539555 0.957346 0.567002 -0.158403
C44   C     C_3   0.460449 0.042655 0.432992 -0.158382
H15   H     H_    0.571903 0.919193 0.621660 0.141940
H16   H     H_    0.428101 0.080804 0.378332 0.142813
H17   H     H_    0.500177 0.074252 0.746454 0.133978
H18   H     H_    0.499827 0.925748 0.253540 0.134116
C45   C     C_3   0.499993 0.877583 0.498592 0.012224
C46   C     C_3   0.500011 0.122418 0.501402 0.011822
C47   C     C_3   0.460534 0.957365 0.566925 -0.160574
C48   C     C_3   0.539471 0.042636 0.433069 -0.160088
C49   C     C_3   0.506624 0.612469 0.049570 -0.039336
C50   C     C_3   0.493374 0.387530 0.950433 -0.041130
C51   C     C_3   0.466145 0.571267 0.948484 -0.031108
C52   C     C_3   0.533854 0.428733 0.051520 -0.028757
H19   H     H_    0.437706 0.631239 0.900056 0.124628
H20   H     H_    0.562298 0.368777 0.099958 0.124778
H21   H     H_    0.512298 0.707289 0.095593 0.117602
H22   H     H_    0.487698 0.292710 0.904412 0.117579
N3    N     N_3   0.500040 0.499970 0.858290 -0.159616
N4    N     N_3   0.499960 0.500030 0.141710 -0.159534
C53   C     C_3   0.540520 0.541160 0.949526 -0.029555
C54   C     C_3   0.459477 0.458842 0.050480 -0.032905
H23   H     H_    0.574600 0.576146 0.902407 0.121755
H24   H     H_    0.425388 0.423926 0.097622 0.126202
H25   H     H_    0.428256 0.919231 0.621528 0.142373
H26   H     H_    0.571748 0.080775 0.378465 0.143223
N5    N     N_R   0.746248 0.480068 0.236255 0.136080
O13   O     O_R   0.724492 0.431332 0.127012 -0.360746
O14   O     O_R   0.789359 0.525226 0.219211 -0.339889
N6    N     N_R   0.253574 0.513193 0.233727 0.136207
O15   O     O_R   0.275402 0.558164 0.122129 -0.362247
O16   O     O_R   0.210266 0.468786 0.218783 -0.339624

loop_
_geom_bond_atom_site_label_1
_geom_bond_atom_site_label_2
_geom_bond_distance
_ccdc_geom_bond_type
C13   C15   1.390953 A    
C10   N5    1.442566 S    
C48   H26   1.110225 S    
C12   H7    1.083016 S    
N1    C17   1.433491 S    
C51   N3    1.481287 S    
O5    C3    1.301784 A    
C49   N4    1.482250 S    
C19   C25   1.408562 A    
C44   H16   1.110216 S    
O1    C1    1.290343 A    
N1    C7    1.367018 A    
C50   C52   1.537402 S    
C42   C45   1.533409 S    
C32   C39   1.415992 A    
C52   H20   1.110315 S    
C9    N6    1.442796 S    
C49   C53   1.536792 S    
C40   H14   1.076425 S    
O4    Cu1   1.954396 S    
C4    C28   1.473381 S    
C38   H10   1.083589 S    
C42   H18   1.110240 S    
C50   N3    1.482283 S    
C23   H5    1.083586 S    
C24   H6    1.083593 S    
O6    C4    1.301268 A    
C54   H24   1.110088 S    
C53   H23   1.109999 S    
C44   C46   1.531635 S    
Cu1   Cu2   2.693328 S    
Cu1   N3    2.023900 S    
C43   H15   1.110219 S    
O2    C2    1.290337 A    
C31   C40   1.415997 A    
C50   H22   1.109845 S    
C5    C21   1.403814 A    
C41   C46   1.533405 S    
C32   C34   1.421225 A    
C51   H19   1.110287 S    
C49   H21   1.109847 S    
C7    O12   1.349679 S    
C46   C48   1.531636 S    
C11   C27   1.405143 A    
C8    O11   1.349675 S    
C45   C47   1.531630 S    
C50   C54   1.536832 S    
C29   C35   1.416073 A    
C25   C38   1.395608 A    
C14   H2    1.082990 S    
C30   C36   1.416054 A    
C15   H3    1.083105 S    
C31   C33   1.421225 A    
C11   H8    1.082916 S    
C9    C17   1.415597 A    
C5    N1    1.367067 A    
O7    Cu2   1.951012 S    
C10   C18   1.415427 A    
C52   C53   1.537728 S    
N3    C53   1.481810 S    
C51   C54   1.537729 S    
C13   C27   1.402196 A    
C23   C39   1.388779 A    
N5    O13   1.301717 A    
C7    C25   1.403807 A    
C6    N2    1.367064 A    
C29   C32   1.421656 A    
C8    C26   1.403796 A    
N4    C54   1.481812 S    
C30   C31   1.421637 A    
C43   C45   1.531635 S    
C30   C34   1.421273 A    
C1    C46   1.454057 S    
N6    O16   1.300939 A    
O7    C3    1.301526 A    
Cu2   N4    2.023900 S    
O3    Cu2   1.954395 S    
O8    C4    1.301964 A    
C42   C44   1.545743 S    
C49   C51   1.537361 S    
N2    C8    1.367028 A    
C35   C37   1.388734 A    
C20   C26   1.408557 A    
O4    C2    1.291071 A    
O1    Cu1   1.957268 S    
C44   C47   1.546438 S    
C22   C24   1.395669 A    
C43   C48   1.546448 S    
C41   H17   1.110239 S    
C12   C28   1.405095 A    
C41   C43   1.545746 S    
N2    C18   1.433554 S    
C39   H13   1.076405 S    
C19   C34   1.422055 A    
C5    O9    1.349661 S    
O6    Cu2   1.950075 S    
C26   C37   1.395620 A    
C21   C23   1.395650 A    
C16   H4    1.083090 S    
C10   C12   1.403972 A    
C37   H9    1.083595 S    
O3    C1    1.291063 A    
O8    Cu1   1.951012 S    
C35   H11   1.076360 S    
C14   C16   1.391116 A    
C15   C17   1.399808 A    
C36   H12   1.076369 S    
C6    C22   1.403821 A    
C16   C18   1.399865 A    
C2    C45   1.454061 S    
C47   H25   1.110217 S    
C29   C33   1.421301 A    
C14   C28   1.402162 A    
C19   C21   1.408597 A    
C36   C38   1.388754 A    
C3    C27   1.473534 S    
C20   C22   1.408618 A    
C9    C11   1.404197 A    
N6    O15   1.301709 A    
O2    Cu2   1.957267 S    
C13   H1    1.083125 S    
O5    Cu1   1.950075 S    
C20   C33   1.422021 A    
C6    O10   1.349658 S    
C52   N4    1.481259 S    
C24   C40   1.388769 A    
N5    O14   1.300946 A    
C42   C48   1.545745 S    
C41   C47   1.545738 S    
