data_mof_unit_33243.cif
_audit_creation_date              2012-10-26T20:14:31-0400
_audit_creation_method            fapswitch 2.2
_symmetry_space_group_name_H-M    P1
_symmetry_Int_Tables_number       1
_space_group_crystal_system       triclinic
_cell_length_a                    7.771191
_cell_length_b                    9.096321
_cell_length_c                    17.334471
_cell_angle_alpha                 89.998345
_cell_angle_beta                  85.191632
_cell_angle_gamma                 90.009324
_cell_volume                      1221.04819949

loop_
_atom_site_label
_atom_site_type_symbol
_atom_type_description
_atom_site_fract_x
_atom_site_fract_y
_atom_site_fract_z
_atom_type_partial_charge
C1    C     C_R   0.500001 0.780027 0.500031 0.538111
C2    C     C_R   0.394042 0.543207 0.223957 0.204092
C3    C     C_R   0.574456 0.388189 0.851468 -0.157597
C4    C     C_R   0.402779 0.530131 0.143466 -0.150711
C5    C     C_R   0.427539 0.437338 0.895971 -0.014479
C6    C     C_R   0.553549 0.481170 0.101581 -0.010842
C7    C     C_R   0.291673 0.504207 0.860470 0.187450
C8    C     C_R   0.702519 0.452653 0.139709 0.177520
C9    C     C_R   0.310235 0.532541 0.780591 0.193950
C10   C     C_R   0.696726 0.466910 0.220463 0.176749
C11   C     C_2   0.422117 0.428134 0.980504 -0.133953
C12   C     C_R   0.499991 0.219974 0.500013 0.555447
C13   C     C_2   0.559326 0.470306 0.016969 -0.133438
C14   C     C_3   0.147960 0.693219 0.939882 -0.296501
C15   C     C_3   0.874762 0.258703 0.077290 -0.286432
C16   C     C_1   0.500002 0.934644 0.500037 -0.032195
C17   C     C_1   0.499984 0.065357 0.500032 -0.027642
C18   C     C_R   0.476509 0.498385 0.650645 0.558123
C19   C     C_R   0.523797 0.503035 0.349137 0.580087
C20   C     C_R   0.460694 0.483450 0.735492 0.020913
C21   C     C_R   0.539535 0.505819 0.263544 0.027794
C22   C     C_R   0.592210 0.409334 0.771492 0.203849
Cu1   Cu    Cu3+1 0.330920 0.500000 0.500000 1.093283
Cu2   Cu    Cu3+1 0.669080 0.500000 0.500000 1.094848
H1    H     H_    0.291784 0.561292 0.113345 0.101712
H2    H     H_    0.996190 0.239592 0.040165 0.135158
H3    H     H_    0.764809 0.222690 0.044860 0.150544
H4    H     H_    0.877767 0.192034 0.130889 0.177799
H5    H     H_    0.814823 0.308253 0.761841 0.327371
H6    H     H_    0.158800 0.619816 0.227880 0.319045
H7    H     H_    0.873934 0.527552 0.283137 0.345973
H8    H     H_    0.236795 0.677338 0.708415 0.332795
H9    H     H_    0.675898 0.332529 0.879341 0.109214
H10   H     H_    0.679140 0.500083 0.983751 0.158417
H11   H     H_    0.300874 0.399701 0.012802 0.152946
H12   H     H_    0.027146 0.533761 0.878455 0.288713
H13   H     H_    0.160451 0.778567 0.893868 0.171952
H14   H     H_    0.259522 0.701064 0.975732 0.150060
H15   H     H_    0.028169 0.714310 0.977820 0.138501
H16   H     H_    0.969663 0.453743 0.118537 0.275183
N1    N     N_1   0.923170 0.500000 0.500010 -0.057858
N2    N     N_1   0.076830 0.500000 0.499990 -0.056553
N3    N     N_2   0.138868 0.548589 0.905746 -0.502658
N4    N     N_2   0.859971 0.413143 0.096462 -0.508111
O1    O     O_R   0.357240 0.711600 0.500000 -0.502618
O2    O     O_3   0.245554 0.594847 0.264604 -0.666423
O3    O     O_3   0.844502 0.436345 0.255892 -0.679412
O4    O     O_3   0.182089 0.612708 0.749414 -0.682650
O5    O     O_R   0.642760 0.288400 0.500000 -0.486029
O6    O     O_R   0.642760 0.711600 0.500000 -0.509071
O7    O     O_R   0.357240 0.288400 0.500000 -0.502175
O8    O     O_R   0.340660 0.500000 0.613590 -0.506024
O9    O     O_R   0.659340 0.500000 0.386410 -0.510033
O10   O     O_R   0.626230 0.500000 0.613600 -0.440529
O11   O     O_R   0.373770 0.500000 0.386400 -0.440670
O12   O     O_3   0.735604 0.356156 0.727538 -0.652997

loop_
_geom_bond_atom_site_label_1
_geom_bond_atom_site_label_2
_ccdc_geom_bond_type
C12   C17   S    
C2    C4    A    
Cu1   Cu2   S    
C5    C7    A    
Cu1   O11   S    
Cu1   O1    S    
H5    O12   S    
C7    N3    S    
C14   H14   S    
C11   C13   D    
C1    O6    A    
C9    C20   A    
Cu1   O7    S    
C22   O12   S    
C19   O9    A    
C2    C21   A    
C11   H11   S    
C12   O5    A    
Cu1   O8    S    
C18   O8    A    
C13   H10   S    
C10   C21   A    
C1    C16   S    
H7    O3    S    
C2    O2    S    
C6    C13   S    
Cu2   N1    S    
H8    O4    S    
C1    O1    A    
C15   H4    S    
Cu1   N2    S    
C8    C10   A    
C19   C21   S    
C20   C22   A    
C15   N4    S    
C4    H1    S    
C18   C20   S    
C5    C11   S    
Cu2   O6    S    
C14   H15   S    
C10   O3    S    
C4    C6    A    
H12   N3    S    
C3    H9    S    
Cu2   O10   S    
H16   N4    S    
C12   O7    A    
C9    O4    S    
C14   H13   S    
N1    N2    T    
C19   O11   A    
Cu2   O5    S    
C7    C9    A    
C18   O10   A    
C16   C17   T    
C15   H2    S    
C6    C8    A    
C3    C5    A    
Cu2   O9    S    
C15   H3    S    
H6    O2    S    
C8    N4    S    
C14   N3    S    
C3    C22   A    
