data_mof_unit_26635.cif
_audit_creation_date              2012-12-10T20:45:28-0500
_audit_creation_method            fapswitch 2.2
_symmetry_space_group_name_H-M    P1
_symmetry_Int_Tables_number       1
_space_group_crystal_system       triclinic
_cell_length_a                    10.705849
_cell_length_b                    10.653974
_cell_length_c                    9.960611
_cell_angle_alpha                 89.715372
_cell_angle_beta                  90.679157
_cell_angle_gamma                 89.610021
_cell_volume                      1135.98505891

loop_
_atom_site_label
_atom_site_type_symbol
_atom_type_description
_atom_site_fract_x
_atom_site_fract_y
_atom_site_fract_z
_atom_type_partial_charge
C1    C     C_R   0.498831 0.260528 0.500459 0.942185
C2    C     C_R   0.242530 0.726547 0.043013 -0.230456
C3    C     C_R   0.932060 0.558172 0.382599 0.616286
C4    C     C_R   0.873845 0.524388 0.503235 -0.256493
C5    C     C_R   0.943269 0.528540 0.625082 -0.031822
C6    C     C_R   0.068608 0.556876 0.618802 0.244330
C7    C     C_R   0.129013 0.545604 0.497404 -0.239923
C8    C     C_R   0.060582 0.566341 0.378805 -0.026080
C9    C     C_R   0.849098 0.594940 0.841947 -0.192805
C10   C     C_R   0.809757 0.567057 0.971618 -0.133260
C11   C     C_R   0.811024 0.442977 0.018002 -0.153888
C12   C     C_R   0.261218 0.516061 0.498876 0.958167
C13   C     C_R   0.853608 0.346484 0.935513 0.213122
C14   C     C_R   0.895126 0.374189 0.806005 0.642622
C15   C     C_R   0.892705 0.498747 0.758761 0.013374
C16   C     C_R   0.536970 0.063064 0.613731 0.116968
C17   C     C_R   0.489796 0.128588 0.503064 -0.081901
C18   C     C_R   0.428218 0.065550 0.399014 -0.146637
C19   C     C_R   0.431236 0.935900 0.397511 -0.160779
C20   C     C_R   0.492089 0.871423 0.502043 -0.066148
C21   C     C_R   0.536825 0.934996 0.614075 0.041552
C22   C     C_3   0.662785 0.926300 0.680137 -0.535075
C23   C     C_R   0.500173 0.739453 0.499967 0.872248
C24   C     C_3   0.663501 0.068599 0.678595 0.537855
C25   C     C_R   0.500315 0.390037 0.071245 0.101084
C26   C     C_R   0.514405 0.608114 0.071306 -0.128378
C27   C     C_R   0.513789 0.608219 0.927981 -0.140320
C28   C     C_R   0.498796 0.390135 0.929588 0.117748
C29   C     C_3   0.401000 0.291167 0.925526 0.475482
C30   C     C_3   0.406600 0.287869 0.077883 -0.483362
C31   C     C_R   0.740602 0.503829 0.501099 0.968855
C32   C     C_R   0.202873 0.803384 0.147128 0.684562
C33   C     C_R   0.143698 0.750414 0.257518 -0.334931
C34   C     C_R   0.118422 0.621319 0.259951 0.001300
C35   C     C_R   0.149312 0.546184 0.150555 0.703322
C36   C     C_R   0.215537 0.597957 0.044696 -0.301583
H1    H     H_    0.293233 0.767090 0.960316 0.221184
H2    H     H_    0.778572 0.421461 0.117865 0.236363
H3    H     H_    0.382092 0.115868 0.317805 0.193934
H4    H     H_    0.390490 0.886318 0.313792 0.193185
H5    H     H_    0.657979 0.885932 0.783059 0.178474
H6    H     H_    0.734355 0.882680 0.614684 0.233898
H7    H     H_    0.663261 0.112084 0.779637 0.158815
H8    H     H_    0.523508 0.696127 0.123916 0.168971
H9    H     H_    0.522840 0.696261 0.874786 0.169579
H10   H     H_    0.310206 0.323889 0.882252 0.125053
H11   H     H_    0.318796 0.317319 0.126515 0.237593
H12   H     H_    0.448844 0.199775 0.118103 0.238803
H13   H     H_    0.117134 0.809536 0.340788 0.208539
H14   H     H_    0.245447 0.538301 0.963611 0.198489
H15   H     H_    0.847168 0.691340 0.806868 0.193473
H16   H     H_    0.777337 0.641892 0.035641 0.219773
N1    N     N_R   0.499160 0.499140 0.142800 -0.103050
N2    N     N_R   0.499160 0.499180 0.857150 -0.134162
O1    O     O_R   0.500020 0.316790 0.614690 -0.594367
O2    O     O_R   0.500000 0.316760 0.385350 -0.621698
O3    O     O_R   0.316770 0.500030 0.614670 -0.586767
O4    O     O_R   0.316750 0.499990 0.385330 -0.627110
O5    O     O_R   0.500000 0.683240 0.614650 -0.616310
O6    O     O_R   0.499980 0.683210 0.385310 -0.642637
O7    O     O_R   0.683250 0.500010 0.614670 -0.633784
O8    O     O_R   0.683230 0.499970 0.385330 -0.552377
Zn1   Zn    Zn3+2 0.500010 0.500020 0.653130 0.993183
Zn2   Zn    Zn3+2 0.499990 0.499980 0.346870 0.989107
Br1   Br    Br    0.856865 0.177820 0.001889 -0.333874
F1    F     F_    0.939167 0.280767 0.726935 -0.585080
F2    F     F_    0.752528 0.116710 0.593038 -0.593522
F3    F     F_    0.223103 0.928811 0.141598 -0.632841
F4    F     F_    0.444959 0.180917 0.870306 -0.653874
F5    F     F_    0.117655 0.423123 0.148426 -0.654740
F6    F     F_    0.865097 0.589570 0.270824 -0.676939
Br2   Br    Br    0.136438 0.672830 0.744635 -0.522503

loop_
_geom_bond_atom_site_label_1
_geom_bond_atom_site_label_2
_ccdc_geom_bond_type
C22   H6    S    
C11   H2    S    
C3    F6    S    
C18   H3    S    
O2    Zn2   S    
C16   C21   A    
C36   H14   S    
C9    C10   A    
C31   O7    A    
C1    C17   S    
C19   C20   A    
C9    H15   S    
C20   C23   S    
C32   F3    S    
C29   H10   S    
O6    Zn2   S    
C12   O4    A    
C32   C33   A    
C27   H9    S    
O8    Zn2   S    
C17   C18   A    
C14   F1    S    
C27   N2    A    
C10   H16   S    
C7    C8    A    
C16   C24   S    
C8    C34   S    
C13   C14   A    
C25   C28   A    
C6    Br2   S    
C11   C13   A    
C2    H1    S    
C31   O8    A    
C26   C27   A    
C29   C30   S    
C5    C6    A    
C30   H12   S    
C28   C29   S    
C1    O2    A    
C25   N1    A    
O5    Zn1   S    
O3    Zn1   S    
C6    C7    A    
C29   F4    S    
C3    C8    A    
O4    Zn2   S    
C23   O6    A    
N1    Zn2   S    
C22   C24   S    
C7    C12   S    
C5    C15   S    
C22   H5    S    
C16   C17   A    
C19   H4    S    
C12   O3    A    
C26   H8    S    
C3    C4    A    
C4    C31   S    
C26   N1    A    
C30   H11   S    
C33   C34   A    
C20   C21   A    
C35   F5    S    
C2    C32   A    
C34   C35   A    
C10   C11   A    
C2    C36   A    
C25   C30   S    
O7    Zn1   S    
C24   H7    S    
C28   N2    A    
N2    Zn1   S    
C18   C19   A    
C13   Br1   S    
C35   C36   A    
C23   O5    A    
C21   C22   S    
C33   H13   S    
C14   C15   A    
C9    C15   A    
C4    C5    A    
C1    O1    A    
C24   F2    S    
O1    Zn1   S    
