data_mof_unit_18055.cif
_audit_creation_date              2012-12-10T19:10:02-0500
_audit_creation_method            fapswitch 2.2
_symmetry_space_group_name_H-M    P1
_symmetry_Int_Tables_number       1
_space_group_crystal_system       triclinic
_cell_length_a                    10.89093
_cell_length_b                    10.840667
_cell_length_c                    9.538147
_cell_angle_alpha                 91.193188
_cell_angle_beta                  90.57193
_cell_angle_gamma                 89.607932
_cell_volume                      1125.79573836

loop_
_atom_site_label
_atom_site_type_symbol
_atom_type_description
_atom_site_fract_x
_atom_site_fract_y
_atom_site_fract_z
_atom_type_partial_charge
C1    C     C_R   0.488232 0.262518 0.498470 0.791674
C2    C     C_R   0.214433 0.696844 0.012255 -0.109902
C3    C     C_R   0.932178 0.543603 0.388096 -0.250687
C4    C     C_R   0.872369 0.493735 0.503228 -0.088905
C5    C     C_R   0.943036 0.447392 0.616611 0.000233
C6    C     C_R   0.070056 0.454775 0.611967 -0.240209
C7    C     C_R   0.128986 0.503721 0.496900 -0.079495
C8    C     C_R   0.059509 0.547900 0.382638 -0.005809
C9    C     C_R   0.905469 0.434505 0.873017 -0.181409
C10   C     C_R   0.878537 0.366059 0.991311 -0.139794
C11   C     C_R   0.848834 0.241561 0.976460 -0.097450
C12   C     C_R   0.262468 0.503079 0.498932 0.778055
C13   C     C_R   0.845489 0.185863 0.843284 -0.154702
C14   C     C_R   0.865207 0.255980 0.723871 -0.149667
C15   C     C_R   0.893728 0.381622 0.737831 0.147476
C16   C     C_R   0.477415 0.066896 0.623724 0.084774
C17   C     C_R   0.463140 0.129267 0.497997 -0.155065
C18   C     C_R   0.423131 0.058597 0.378709 0.150629
C19   C     C_R   0.432329 0.929184 0.382029 -0.249966
C20   C     C_R   0.472949 0.870134 0.503498 -0.139813
C21   C     C_R   0.480833 0.939941 0.627313 0.132824
C22   C     C_3   0.576399 0.940709 0.740151 -0.497905
C23   C     C_R   0.494760 0.737727 0.501265 0.811601
C24   C     C_3   0.574046 0.080089 0.733582 -0.441058
C25   C     C_R   0.545011 0.598414 0.076376 0.285171
C26   C     C_R   0.438661 0.413239 0.071324 -0.073734
C27   C     C_R   0.440822 0.411235 0.922584 -0.083747
C28   C     C_R   0.542667 0.599832 0.929037 0.254569
C29   C     C_3   0.668033 0.652961 0.924913 -0.517397
C30   C     C_3   0.671843 0.648174 0.083721 -0.509256
C31   C     C_R   0.737986 0.495323 0.501135 0.799215
C32   C     C_R   0.198122 0.772351 0.131225 -0.154890
C33   C     C_R   0.148932 0.723922 0.253239 -0.140077
C34   C     C_R   0.115505 0.599249 0.256184 0.142158
C35   C     C_R   0.132613 0.523706 0.136617 -0.140601
C36   C     C_R   0.181311 0.572720 0.014894 -0.143292
Cu1   Cu    Cu3+1 0.499990 0.499980 0.640670 0.941638
Cu2   Cu    Cu3+1 0.500010 0.500020 0.359330 0.944895
H1    H     H_    0.252633 0.734490 0.918058 0.128375
H2    H     H_    0.831401 0.187565 0.068261 0.121622
H3    H     H_    0.828518 0.087851 0.832888 0.133160
H4    H     H_    0.864354 0.211105 0.621329 0.108247
H5    H     H_    0.409707 0.874993 0.288761 0.172369
H6    H     H_    0.539289 0.906946 0.840326 0.194411
H7    H     H_    0.664937 0.899046 0.705543 0.190776
H8    H     H_    0.540153 0.126733 0.830516 0.206299
H9    H     H_    0.657825 0.118935 0.687940 0.202522
H10   H     H_    0.386194 0.345913 0.124260 0.148079
H11   H     H_    0.222983 0.868525 0.128299 0.121592
H12   H     H_    0.393821 0.338505 0.864807 0.133959
H13   H     H_    0.733084 0.590709 0.871213 0.232485
H14   H     H_    0.669116 0.748199 0.886474 0.187507
H15   H     H_    0.739141 0.579754 0.122923 0.210168
H16   H     H_    0.675377 0.740822 0.135714 0.194759
H17   H     H_    0.136234 0.783369 0.344692 0.113613
H18   H     H_    0.108812 0.426954 0.138069 0.117476
H19   H     H_    0.193670 0.514352 0.922739 0.134507
H20   H     H_    0.879711 0.581281 0.302019 0.148253
H21   H     H_    0.123795 0.416800 0.697437 0.151298
H22   H     H_    0.936715 0.528670 0.886639 0.135793
H23   H     H_    0.884559 0.408302 0.094834 0.128653
N1    N     N_R   0.500790 0.500930 0.147930 -0.181572
N2    N     N_R   0.500790 0.500890 0.852020 -0.180372
O1    O     O_R   0.500000 0.319640 0.618810 -0.578733
O2    O     O_R   0.500010 0.319680 0.381230 -0.579628
O3    O     O_R   0.319640 0.499990 0.618790 -0.597294
O4    O     O_R   0.319650 0.500030 0.381210 -0.578939
O5    O     O_R   0.499990 0.680320 0.618770 -0.579317
O6    O     O_R   0.500000 0.680360 0.381190 -0.582831
O7    O     O_R   0.680350 0.499970 0.618790 -0.572627
O8    O     O_R   0.680360 0.500010 0.381210 -0.584379
C37   C     C_3   0.365166 0.113318 0.250289 -0.383881
C38   C     C_3   0.451720 0.105048 0.125245 -0.843769
H24   H     H_    0.403689 0.139816 0.030717 0.219687
H25   H     H_    0.535239 0.160977 0.146129 0.268864
H26   H     H_    0.479602 0.007937 0.102939 0.241740
H27   H     H_    0.280053 0.061830 0.223524 0.178764
H28   H     H_    0.333407 0.208679 0.271882 0.198284

loop_
_geom_bond_atom_site_label_1
_geom_bond_atom_site_label_2
_ccdc_geom_bond_type
C33   H17   S    
C16   C21   A    
C38   H24   S    
C23   O6    A    
C35   C36   A    
C13   H3    S    
C7    C8    A    
C25   C28   A    
C30   H16   S    
C26   C27   A    
C37   H27   S    
C28   C29   S    
Cu1   Cu2   S    
C18   C19   A    
C5    C6    A    
Cu1   O5    S    
C2    C32   A    
C34   C35   A    
C37   H28   S    
C2    H1    S    
C31   O7    A    
C22   H6    S    
C19   C20   A    
C16   C17   A    
C1    O2    A    
C20   C23   S    
C9    C10   A    
C27   H12   S    
C26   H10   S    
C14   H4    S    
C31   O8    A    
Cu2   O6    S    
C16   C24   S    
C21   C22   S    
C38   H25   S    
Cu1   N2    S    
C19   H5    S    
C17   C18   A    
C18   C37   S    
C7    C12   S    
C12   O4    A    
C3    C8    A    
C4    C5    A    
C12   O3    A    
C23   O5    A    
C3    H20   S    
C29   C30   S    
Cu2   O2    S    
Cu1   O3    S    
C33   C34   A    
C8    C34   S    
C30   H15   S    
Cu2   O4    S    
C27   N2    A    
C36   H19   S    
C38   H26   S    
C22   C24   S    
C10   H23   S    
C3    C4    A    
C1    O1    A    
Cu1   O1    S    
C29   H13   S    
C2    C36   A    
C25   C30   S    
Cu2   O8    S    
C35   H18   S    
C24   H9    S    
C6    H21   S    
C37   C38   S    
C6    C7    A    
C1    C17   S    
C9    H22   S    
C24   H8    S    
C32   C33   A    
C26   N1    A    
C11   C13   A    
C25   N1    A    
C9    C15   A    
C11   H2    S    
C32   H11   S    
C5    C15   S    
C4    C31   S    
C10   C11   A    
C28   N2    A    
C22   H7    S    
C20   C21   A    
C14   C15   A    
C13   C14   A    
Cu1   O7    S    
Cu2   N1    S    
C29   H14   S    
