data_mof_unit_31681.cif
_audit_creation_date              2012-12-10T20:52:12-0500
_audit_creation_method            fapswitch 2.2
_symmetry_space_group_name_H-M    P1
_symmetry_Int_Tables_number       1
_space_group_crystal_system       triclinic
_cell_length_a                    10.784958
_cell_length_b                    8.902596
_cell_length_c                    8.208526
_cell_angle_alpha                 90.0793
_cell_angle_beta                  91.448879
_cell_angle_gamma                 90.292998
_cell_volume                      787.871248148

loop_
_atom_site_label
_atom_site_type_symbol
_atom_type_description
_atom_site_fract_x
_atom_site_fract_y
_atom_site_fract_z
_atom_type_partial_charge
C1    C     C_R   0.499918 0.218461 0.499905 0.970913
C2    C     C_R   0.739781 0.502408 0.502071 0.886158
C3    C     C_R   0.199672 0.731380 0.057751 -0.154823
C4    C     C_R   0.810025 0.706333 0.032527 -0.103181
C5    C     C_R   0.122702 0.680484 0.178058 -0.120603
C6    C     C_R   0.864438 0.621711 0.910685 -0.131959
C7    C     C_R   0.101027 0.525479 0.197829 0.018149
C8    C     C_R   0.877384 0.680930 0.753594 0.046776
C9    C     C_R   0.144862 0.421092 0.084219 -0.020367
C10   C     C_R   0.835118 0.829473 0.718966 -0.021386
C11   C     C_R   0.223152 0.474836 0.964598 -0.131869
C12   C     C_R   0.500254 0.781523 0.500113 0.920540
C13   C     C_R   0.779753 0.911776 0.844351 -0.171928
C14   C     C_R   0.253563 0.628463 0.955372 -0.138865
C15   C     C_R   0.767535 0.850643 0.999475 -0.103794
C16   C     C_R   0.930677 0.458354 0.367302 -0.186852
C17   C     C_R   0.065654 0.584418 0.626672 -0.220387
C18   C     C_2   0.114839 0.257560 0.088665 0.864841
C19   C     C_2   0.848156 0.904014 0.557171 0.882496
C20   C     C_R   0.871316 0.509630 0.505165 -0.049691
C21   C     C_R   0.125195 0.519351 0.495735 -0.089839
C22   C     C_R   0.937712 0.585782 0.630248 0.058932
C23   C     C_R   0.055681 0.480272 0.355933 0.099302
C24   C     C_1   0.499982 0.065323 0.499904 -0.155295
C25   C     C_1   0.500125 0.934618 0.500146 -0.181487
C26   C     C_R   0.259185 0.507978 0.498430 0.879517
H1    H     H_    0.316176 0.670548 0.865524 0.182429
H2    H     H_    0.117449 0.647676 0.715914 0.162746
H3    H     H_    0.102864 0.062246 0.963921 0.343538
H4    H     H_    0.823640 0.091746 0.422032 0.356243
H5    H     H_    0.725300 0.915689 0.094631 0.157223
H6    H     H_    0.221915 0.849553 0.048328 0.154908
H7    H     H_    0.800949 0.660464 0.153178 0.177874
H8    H     H_    0.087890 0.760915 0.264595 0.194264
H9    H     H_    0.896400 0.509278 0.938539 0.137888
H10   H     H_    0.264995 0.395032 0.884241 0.209525
H11   H     H_    0.745964 0.024570 0.823156 0.188052
H12   H     H_    0.878709 0.418115 0.260912 0.151980
N1    N     N_1   0.500020 0.500030 0.073640 -0.038708
N2    N     N_1   0.499980 0.499970 0.926360 -0.063560
O1    O     O_R   0.499990 0.285340 0.636850 -0.610382
O2    O     O_R   0.132582 0.169517 0.949979 -0.811506
O3    O     O_2   0.891596 0.837167 0.441979 -0.668615
O4    O     O_R   0.810608 0.053219 0.536578 -0.816845
O5    O     O_R   0.500010 0.714660 0.363150 -0.614273
O6    O     O_R   0.500010 0.285350 0.363100 -0.617555
O7    O     O_R   0.499990 0.714650 0.636900 -0.630477
O8    O     O_R   0.316750 0.500000 0.636870 -0.659008
O9    O     O_R   0.683250 0.500000 0.363130 -0.644111
O10   O     O_R   0.316770 0.500020 0.363120 -0.603995
O11   O     O_R   0.683230 0.499980 0.636880 -0.610321
O12   O     O_2   0.073219 0.199525 0.210751 -0.629841
Zn1   Zn    Zn3+2 0.499990 0.499990 0.682780 0.970417
Zn2   Zn    Zn3+2 0.500010 0.500010 0.317220 0.986816

loop_
_geom_bond_atom_site_label_1
_geom_bond_atom_site_label_2
_ccdc_geom_bond_type
C8    C22   S    
C21   C26   S    
C15   H5    S    
C2    O9    A    
C14   H1    S    
C19   O3    D    
C6    H9    S    
C12   C25   S    
C13   H11   S    
C17   C22   A    
C13   C15   A    
C26   O8    A    
C10   C19   S    
C16   C20   A    
O1    Zn1   S    
C5    H8    S    
O6    Zn2   S    
C4    C15   A    
C21   C23   A    
C18   O12   D    
C19   O4    S    
C9    C11   A    
H4    O4    S    
O10   Zn2   S    
C3    C14   A    
C12   O7    A    
C7    C23   S    
O7    Zn1   S    
C4    C6    A    
C11   H10   S    
O8    Zn1   S    
C20   C22   A    
O5    Zn2   S    
C16   C23   A    
C5    C7    A    
C26   O10   A    
C3    H6    S    
H3    O2    S    
C11   C14   A    
C1    O6    A    
N1    Zn2   S    
C2    O11   A    
C2    C20   S    
O9    Zn2   S    
C9    C18   S    
C24   C25   T    
C1    C24   S    
C8    C10   A    
N2    Zn1   S    
C1    O1    A    
N1    N2    T    
C7    C9    A    
C4    H7    S    
C6    C8    A    
C18   O2    S    
C3    C5    A    
C17   H2    S    
C17   C21   A    
C16   H12   S    
C12   O5    A    
O11   Zn1   S    
C10   C13   A    
