data_mof_unit_22412.cif
_audit_creation_date              2012-12-10T17:01:38-0500
_audit_creation_method            fapswitch 2.2
_symmetry_space_group_name_H-M    P1
_symmetry_Int_Tables_number       1
_space_group_crystal_system       triclinic
_cell_length_a                    9.897775
_cell_length_b                    10.98832
_cell_length_c                    12.990554
_cell_angle_alpha                 89.554032
_cell_angle_beta                  75.164474
_cell_angle_gamma                 108.933805
_cell_volume                      1285.4640461

loop_
_atom_site_label
_atom_site_type_symbol
_atom_type_description
_atom_site_fract_x
_atom_site_fract_y
_atom_site_fract_z
_atom_type_partial_charge
C1    C     C_R   0.443007 0.254250 0.512989 0.716244
C2    C     C_R   0.556447 0.744520 0.493655 0.748219
C3    C     C_2   0.090094 0.528993 0.502892 0.556533
C4    C     C_2   0.927984 0.526711 0.525774 0.523620
C5    C     C_R   0.472820 0.495263 0.702481 0.842994
C6    C     C_R   0.526730 0.504026 0.297611 0.912531
C7    C     C_R   0.539280 0.499629 0.183816 -0.289649
C8    C     C_R   0.458272 0.498102 0.816633 -0.275554
C9    C     C_R   0.351257 0.564226 0.986385 0.726934
C10   C     C_R   0.644461 0.432038 0.014363 0.737395
C11   C     C_R   0.357752 0.550925 0.879201 -0.377828
C12   C     C_R   0.640298 0.447650 0.120890 -0.374447
C13   C     C_R   0.549396 0.453632 0.862192 0.679005
C14   C     C_R   0.443924 0.539886 0.139485 0.664235
C15   C     C_R   0.547490 0.469649 0.969136 -0.260606
C16   C     C_R   0.447016 0.525338 0.032120 -0.255506
C17   C     C_2   0.420680 0.115529 0.529570 0.420225
C18   C     C_2   0.578284 0.881287 0.489133 0.440097
C19   C     C_2   0.524688 0.071216 0.552574 0.098028
C20   C     C_2   0.495580 0.931159 0.565252 0.077120
Cu1   Cu    Cu3+1 0.647370 0.522180 0.481340 1.021895
Cu2   Cu    Cu3+1 0.352630 0.477820 0.518660 1.039822
H1    H     H_    0.713250 0.415357 0.155167 0.207386
H2    H     H_    0.286328 0.584757 0.844362 0.206296
N1    N     N_2   0.131210 0.444490 0.546730 -0.199029
N2    N     N_2   0.868790 0.555510 0.453270 -0.198474
O1    O     O_R   0.578710 0.332530 0.490040 -0.597623
O2    O     O_R   0.421290 0.667470 0.509960 -0.536694
O3    O     O_R   0.329810 0.295070 0.521560 -0.553028
O4    O     O_R   0.670190 0.704930 0.478440 -0.570786
O5    O     O_R   0.604230 0.515670 0.637800 -0.459624
O6    O     O_R   0.395770 0.484330 0.362200 -0.475566
O7    O     O_R   0.355330 0.478200 0.669330 -0.615004
O8    O     O_R   0.644670 0.521800 0.330670 -0.605369
F1    F     F_    0.349666 0.594075 0.201019 -0.573268
F2    F     F_    0.636222 0.391647 0.802961 -0.581196
F3    F     F_    0.252826 0.616909 0.044060 -0.606760
F4    F     F_    0.743335 0.379985 0.956383 -0.595177
C21   C     C_3   0.385616 0.848922 0.666303 -0.427761
C22   C     C_3   0.339066 0.926677 0.757661 -0.741569
H3    H     H_    0.438247 0.992411 0.778228 0.252385
H4    H     H_    0.274768 0.983803 0.735535 0.266893
H5    H     H_    0.267319 0.859333 0.829593 0.262889
H6    H     H_    0.284399 0.786613 0.646049 0.264508
H7    H     H_    0.436885 0.785403 0.697258 0.171222
C23   C     C_3   0.671606 0.155643 0.570041 -0.459095
C24   C     C_3   0.795289 0.199786 0.464427 -0.591737
H8    H     H_    0.856757 0.130476 0.448784 0.273764
H9    H     H_    0.750871 0.209541 0.395623 0.277095
H10   H     H_    0.877202 0.294026 0.468338 0.176484
H11   H     H_    0.658457 0.238410 0.614939 0.260000
H12   H     H_    0.707265 0.099842 0.623301 0.203017
F5    F     F_    0.674333 0.954885 0.399024 -0.669543
F6    F     F_    0.289673 0.029465 0.522200 -0.651128
F7    F     F_    0.842735 0.494474 0.627740 -0.628174
F8    F     F_    0.199686 0.622542 0.431544 -0.625251
C25   C     C_3   0.978973 0.632033 0.355513 -0.187349
C26   C     C_3   0.924241 0.683334 0.270688 -0.619310
H13   H     H_    0.884975 0.606804 0.219554 0.247246
H14   H     H_    0.842371 0.730804 0.304876 0.275122
H15   H     H_    0.020242 0.758877 0.215555 0.235979
H16   H     H_    0.052388 0.721052 0.379417 0.241478
H17   H     H_    0.045637 0.573600 0.313702 0.242813
C27   C     C_3   0.027228 0.363271 0.643776 -0.189131
C28   C     C_3   0.059916 0.242605 0.671273 -0.691676
H18   H     H_    0.065343 0.183345 0.602472 0.268963
H19   H     H_    0.161305 0.266349 0.699045 0.263210
H20   H     H_    0.967173 0.182323 0.738796 0.223498
H21   H     H_    0.024784 0.421944 0.713156 0.243550
H22   H     H_    0.914225 0.322593 0.634034 0.214218

loop_
_geom_bond_atom_site_label_1
_geom_bond_atom_site_label_2
_ccdc_geom_bond_type
C5    C8    S    
C4    N2    D    
Cu1   N2    S    
C6    C7    S    
Cu2   O3    S    
C27   H22   S    
C2    C18   S    
Cu1   O5    S    
C3    F8    S    
C1    C17   S    
C19   C20   S    
C10   F4    S    
C23   H11   S    
C21   H7    S    
C28   H20   S    
C6    O8    A    
C27   C28   S    
C22   H5    S    
C26   H15   S    
C1    O3    A    
Cu1   O1    S    
C19   C23   S    
C25   H16   S    
C24   H9    S    
Cu2   O2    S    
Cu1   Cu2   S    
C9    C11   A    
C12   H1    S    
C25   C26   S    
C8    C13   A    
Cu2   O6    S    
Cu2   O7    S    
C8    C11   A    
C10   C12   A    
C9    F3    S    
C22   H3    S    
C17   C19   D    
C9    C16   A    
C25   H17   S    
C24   H10   S    
C18   C20   D    
C10   C15   A    
C13   C15   A    
C4    F7    S    
C7    C12   A    
N2    C25   S    
C14   C16   A    
C5    O5    A    
C2    O4    A    
C21   H6    S    
C26   H14   S    
C15   C16   A    
C21   C22   S    
C23   H12   S    
C11   H2    S    
C3    N1    D    
C13   F2    S    
C28   H18   S    
Cu1   O4    S    
C14   F1    S    
C1    O1    A    
C20   C21   S    
C23   C24   S    
C2    O2    A    
Cu1   O8    S    
C18   F5    S    
C28   H19   S    
C26   H13   S    
C27   H21   S    
C17   F6    S    
N1    C27   S    
C7    C14   A    
C3    C4    S    
C24   H8    S    
C22   H4    S    
C6    O6    A    
Cu2   N1    S    
C5    O7    A    
