data_mof_unit_49190.cif
_audit_creation_date              2012-12-11T17:00:15-0500
_audit_creation_method            fapswitch 2.2
_symmetry_space_group_name_H-M    P1
_symmetry_Int_Tables_number       1
_space_group_crystal_system       triclinic
_cell_length_a                    6.975261
_cell_length_b                    13.549056
_cell_length_c                    20.267057
_cell_angle_alpha                 103.029237
_cell_angle_beta                  90.441022
_cell_angle_gamma                 90.180551
_cell_volume                      1866.01259378

loop_
_atom_site_label
_atom_site_type_symbol
_atom_type_description
_atom_site_fract_x
_atom_site_fract_y
_atom_site_fract_z
_atom_type_partial_charge
O1    O     O_R   0.506770 0.599700 0.449550 -0.542089
O2    O     O_R   0.179980 0.595740 0.587960 -0.548151
O3    O     O_R   0.004580 0.400300 0.550450 -0.538066
C1    C     C_R   0.348567 0.617772 0.615010 0.684798
O4    O     O_R   0.177380 0.611700 0.452380 -0.542050
O5    O     O_R   0.001970 0.416370 0.413900 -0.546698
C2    C     C_R   0.345288 0.638428 0.435744 0.689443
O6    O     O_R   0.509390 0.583630 0.586100 -0.541689
O7    O     O_3   0.337530 0.435890 0.487530 -0.354677
V1    V     V_3+5 0.064660 0.511890 0.502310 1.434997
O8    O     O_R   0.671950 0.404260 0.412040 -0.522188
C3    C     C_R   0.840149 0.382307 0.384992 0.719971
O9    O     O_R   0.674540 0.388300 0.547620 -0.531947
C4    C     C_R   0.843599 0.361613 0.564198 0.730606
V2    V     V_3+5 0.564030 0.488110 0.497690 1.474328
O10   O     O_3   0.841030 0.564110 0.512470 -0.379631
C5    C     C_R   0.873922 0.107067 0.608039 0.355324
H1    H     H_    0.873239 0.160666 0.516098 0.147972
H2    H     H_    0.921176 0.983067 0.695699 0.126128
C6    C     C_R   0.852938 0.283696 0.603545 -0.114188
C7    C     C_R   0.833694 0.316125 0.929724 -0.169376
C8    C     C_R   0.815934 0.391651 0.893829 -0.122375
C9    C     C_R   0.821959 0.367849 0.823306 -0.158921
C10   C     C_R   0.847307 0.266557 0.786426 0.100216
C11   C     C_R   0.865813 0.189659 0.823743 0.072294
C12   C     C_R   0.853568 0.239112 0.713983 0.041842
C13   C     C_R   0.872582 0.135044 0.680148 0.041276
C14   C     C_R   0.895728 0.061917 0.718823 -0.198555
C15   C     C_R   0.891353 0.088591 0.788973 -0.193801
C16   C     C_R   0.843753 0.312008 0.673964 -0.226942
C17   C     C_R   0.868844 0.182087 0.570935 -0.146850
C18   C     C_R   0.858513 0.215452 0.895461 -0.077742
H3    H     H_    0.831905 0.391948 0.695685 0.102430
H4    H     H_    0.826850 0.336126 0.984531 0.101019
H5    H     H_    0.804452 0.430734 0.799530 0.105691
H6    H     H_    0.795931 0.469452 0.920874 0.117885
H7    H     H_    0.908786 0.028662 0.815895 0.106466
C19   C     C_R   0.704993 0.245994 0.204906 0.046836
C20   C     C_R   0.866912 0.187215 0.182995 -0.078572
C21   C     C_R   0.022925 0.195737 0.228399 -0.168823
H8    H     H_    0.146643 0.148224 0.214867 0.139490
C22   C     C_R   0.014352 0.259691 0.293626 -0.156584
H9    H     H_    0.131449 0.261176 0.328589 0.177588
C23   C     C_R   0.849353 0.315785 0.315999 -0.062869
C24   C     C_R   0.695112 0.306500 0.270591 0.039554
C25   C     C_3   0.496923 0.271072 0.279713 0.110823
C26   C     C_3   0.504351 0.209785 0.207248 -0.418439
H10   H     H_    0.393144 0.334552 0.287665 0.092085
H11   H     H_    0.409498 0.239892 0.172132 0.143474
H12   H     H_    0.494752 0.126418 0.202022 0.199187
C27   C     C_R   0.501710 0.680200 0.729878 0.100102
C28   C     C_R   0.352244 0.683920 0.684145 -0.106819
C29   C     C_R   0.195539 0.747299 0.708164 -0.171827
H13   H     H_    0.075818 0.752174 0.674905 0.132199
C30   C     C_R   0.196723 0.809889 0.773910 -0.173856
H14   H     H_    0.078963 0.861331 0.789140 0.125347
C31   C     C_R   0.354951 0.811371 0.817564 -0.109191
C32   C     C_R   0.503545 0.742822 0.794743 0.101416
C33   C     C_3   0.713514 0.762075 0.792022 -0.399322
C34   C     C_3   0.711326 0.693708 0.721456 -0.410449
H15   H     H_    0.795651 0.730107 0.829490 0.171619
H16   H     H_    0.745584 0.842598 0.792348 0.166908
H17   H     H_    0.791752 0.622058 0.718134 0.165701
H18   H     H_    0.742280 0.734458 0.680849 0.169080
C35   C     C_R   0.273400 0.886741 0.387422 -0.109431
H19   H     H_    0.271994 0.837273 0.480689 0.124964
H20   H     H_    0.225395 0.007798 0.302835 0.171438
H21   H     H_    0.233914 0.963426 0.412106 0.149084
C36   C     C_R   0.347982 0.716237 0.396204 -0.042858
C37   C     C_R   0.408035 0.684190 0.070421 -0.165049
C38   C     C_R   0.425928 0.608739 0.106402 -0.121029
C39   C     C_R   0.404931 0.631403 0.176494 -0.157855
C40   C     C_R   0.362884 0.731172 0.212603 0.080596
C41   C     C_R   0.337560 0.807469 0.174946 0.065118
C42   C     C_R   0.345880 0.757881 0.284701 0.068883
C43   C     C_R   0.296023 0.858895 0.316929 0.123686
C44   C     C_R   0.266729 0.931273 0.278674 -0.151075
C45   C     C_R   0.289794 0.906582 0.209012 -0.196924
C46   C     C_R   0.374460 0.687780 0.326130 -0.213161
C47   C     C_R   0.296764 0.815480 0.426643 -0.154874
C48   C     C_R   0.363545 0.783267 0.103847 -0.075876
H22   H     H_    0.411103 0.609760 0.305586 0.092391
H23   H     H_    0.430681 0.665471 0.016184 0.101572
H24   H     H_    0.422316 0.568912 0.200688 0.103059
H25   H     H_    0.459348 0.532140 0.079859 0.117044
H26   H     H_    0.267821 0.966001 0.181983 0.118787
O11   O     O_R   0.203450 0.916320 0.913910 -0.541976
O12   O     O_R   0.535520 0.888300 0.047620 -0.537939
O13   O     O_R   0.710860 0.083650 0.086100 -0.536219
C49   C     C_R   0.367544 0.861825 0.064501 0.687606
O14   O     O_R   0.532860 0.904250 0.912040 -0.542341
O15   O     O_R   0.708190 0.099710 0.949550 -0.537044
C50   C     C_R   0.364088 0.882641 0.884836 0.696814
O16   O     O_R   0.206120 0.900260 0.050460 -0.539924
O17   O     O_3   0.375280 0.064080 0.012470 -0.370736
V3    V     V_3+5 0.648180 0.988110 0.997690 1.419753
O18   O     O_R   0.038220 0.111740 0.952370 -0.539936
C51   C     C_R   0.869089 0.138118 0.935578 0.688292
O19   O     O_R   0.040880 0.095790 0.087940 -0.549114
C52   C     C_R   0.872967 0.116850 0.115315 0.693837
V4    V     V_3+5 0.148800 0.011950 0.002300 1.407906
O20   O     O_3   0.871820 0.935920 0.987530 -0.371052
Br1   Br    Br    0.489005 0.184438 0.344971 -0.609636
O21   O     O_3   0.880946 0.007939 0.571731 -0.646277
H27   H     H_    0.804835 0.965544 0.595820 0.278091

loop_
_geom_bond_atom_site_label_1
_geom_bond_atom_site_label_2
_ccdc_geom_bond_type
C30   H14   S    
O12   V3    S    
V4    O20   S    
V3    O20   S    
C40   C41   A    
O17   V3    S    
H20   C44   S    
C1    O6    A    
O18   C51   A    
C31   C32   A    
O15   C51   A    
C26   H11   S    
C6    C16   A    
C29   H13   S    
C28   C29   A    
C12   C13   A    
C35   C43   A    
C1    C28   S    
C34   H17   S    
C14   C15   A    
C5    O21   S    
C10   C12   A    
O5    C3    A    
C19   C20   A    
V2    O10   S    
O15   V3    S    
C37   C48   A    
C19   C24   A    
O14   V3    S    
O11   V4    S    
O8    V2    S    
O16   V4    S    
C9    C10   A    
C37   C38   A    
O1    V2    S    
O7    V1    S    
C45   H26   S    
C11   C18   A    
C21   C22   A    
C33   C34   S    
C35   C47   A    
C31   C50   S    
O9    C4    A    
C40   C42   A    
C22   C23   A    
O21   H27   S    
C49   O16   A    
C26   H12   S    
C29   C30   A    
C11   C15   A    
C7    C18   A    
C25   H10   S    
C33   H15   S    
O13   C52   A    
C27   C28   A    
C5    C13   A    
C4    C6    S    
C10   C11   A    
C20   C21   A    
O4    C2    A    
C7    H4    S    
C32   C33   S    
C44   C45   A    
O2    C1    A    
C42   C43   A    
O5    V1    S    
H2    C14   S    
O14   C50   A    
O19   C52   A    
C35   H21   S    
C27   C32   A    
C43   C44   A    
C37   H23   S    
C19   C26   S    
C39   H24   S    
O3    C4    A    
C48   C49   S    
C21   H8    S    
O19   V4    S    
O12   C49   A    
C12   C16   A    
O6    V2    S    
C9    H5    S    
O9    V2    S    
C5    C17   A    
C36   C46   A    
C22   H9    S    
C41   C48   A    
O2    V1    S    
C8    H6    S    
C23   C24   A    
C25   C26   S    
C33   H16   S    
C16   H3    S    
O1    C2    A    
C39   C40   A    
C2    C36   S    
C46   H22   S    
O8    C3    A    
H1    C17   S    
H19   C47   S    
C25   Br1   S    
C34   H18   S    
O13   V3    S    
C30   C31   A    
O7    V2    S    
O4    V1    S    
C3    C23   S    
O3    V1    S    
V1    O10   S    
C20   C52   S    
C38   H25   S    
O11   C50   A    
C18   C51   S    
C24   C25   S    
C38   C39   A    
C41   C45   A    
C15   H7    S    
C13   C14   A    
C8    C9    A    
C36   C47   A    
C27   C34   S    
C7    C8    A    
C42   C46   A    
O18   V4    S    
O17   V4    S    
C6    C17   A    
