data_mof_unit_52473.cif
_audit_creation_date              2012-12-10T17:05:15-0500
_audit_creation_method            fapswitch 2.2
_symmetry_space_group_name_H-M    P1
_symmetry_Int_Tables_number       1
_space_group_crystal_system       triclinic
_cell_length_a                    10.091847
_cell_length_b                    10.654824
_cell_length_c                    15.415048
_cell_angle_alpha                 89.654561
_cell_angle_beta                  67.386134
_cell_angle_gamma                 88.40603
_cell_volume                      1529.484283

loop_
_atom_site_label
_atom_site_type_symbol
_atom_type_description
_atom_site_fract_x
_atom_site_fract_y
_atom_site_fract_z
_atom_type_partial_charge
Br1   Br    Br    0.456896 0.065246 0.632972 -0.470659
Br2   Br    Br    0.229192 0.298259 0.369841 -0.501831
Br3   Br    Br    0.553261 0.332372 0.789893 -0.453489
C1    C     C_R   0.500770 0.736983 0.494059 0.907775
C2    C     C_R   0.737466 0.519025 0.026049 0.158264
C3    C     C_R   0.593601 0.554004 0.082897 0.092343
C4    C     C_R   0.409545 0.500548 0.676170 0.952311
C5    C     C_R   0.836478 0.490391 0.067571 -0.177448
C6    C     C_R   0.791338 0.488130 0.165257 -0.197124
C7    C     C_R   0.550924 0.550217 0.180223 -0.225158
C8    C     C_2   0.587598 0.069798 0.427507 -0.251213
C9    C     C_2   0.509244 0.131079 0.507336 0.098231
C10   C     C_2   0.610032 0.933839 0.425676 0.287563
C11   C     C_2   0.496803 0.868618 0.479042 -0.335802
C12   C     C_R   0.422776 0.552453 0.908732 -0.015483
C13   C     C_2   0.100531 0.414862 0.458440 0.299565
C14   C     C_2   0.943955 0.404592 0.476531 -0.043733
C15   C     C_R   0.501091 0.263024 0.502334 0.934943
C16   C     C_R   0.590320 0.502343 0.323779 0.849251
C17   C     C_R   0.352662 0.521251 0.777459 -0.131398
C18   C     C_R   0.646912 0.514053 0.221575 -0.064659
C19   C     C_R   0.195835 0.644629 0.911337 0.198251
C20   C     C_R   0.229618 0.597525 0.820551 -0.314808
C21   C     C_R   0.439419 0.487328 0.826126 0.186272
C22   C     C_3   0.855012 0.949743 0.303200 -0.768014
C23   C     C_R   0.292480 0.621337 0.956351 0.106393
C24   C     C_3   0.967816 0.658938 0.390747 -0.686689
C25   C     C_3   0.095034 0.855104 0.943026 -0.725130
C26   C     C_R   0.530802 0.549733 0.946003 0.104677
C27   C     C_R   0.493468 0.581861 0.041199 0.075966
C28   C     C_R   0.358307 0.641219 0.090836 -0.224968
C29   C     C_R   0.261730 0.664317 0.047838 -0.196311
C30   C     C_R   0.676776 0.524638 0.889340 -0.144079
C31   C     C_R   0.779142 0.510731 0.928871 -0.252467
H1    H     H_    0.161494 0.713712 0.087569 0.174267
H2    H     H_    0.162728 0.624579 0.782493 0.173897
H3    H     H_    0.327956 0.677638 0.161241 0.145690
H4    H     H_    0.713514 0.518948 0.813660 0.183701
H5    H     H_    0.725379 0.793060 0.331594 0.212447
H6    H     H_    0.951529 0.889410 0.265702 0.233124
H7    H     H_    0.883934 0.020268 0.345290 0.266080
H8    H     H_    0.822352 0.997298 0.249917 0.236893
H9    H     H_    0.837681 0.682105 0.531547 0.267414
H10   H     H_    0.063238 0.600368 0.348458 0.225451
H11   H     H_    0.002038 0.757476 0.388120 0.232413
H12   H     H_    0.947295 0.465704 0.024628 0.153661
H13   H     H_    0.886684 0.652708 0.359020 0.256095
H14   H     H_    0.986251 0.697346 0.935348 0.232918
H15   H     H_    0.993454 0.908179 0.982473 0.241120
H16   H     H_    0.132704 0.881147 0.867581 0.260010
H17   H     H_    0.176342 0.882207 0.971173 0.253401
H18   H     H_    0.632695 0.121085 0.361821 0.139216
H19   H     H_    0.391074 0.914276 0.510153 0.177162
H20   H     H_    0.072954 0.547305 0.554315 0.167347
H21   H     H_    0.907037 0.313877 0.465124 0.157507
H22   H     H_    0.440028 0.567789 0.225227 0.170210
H23   H     H_    0.867606 0.461999 0.196486 0.164880
H24   H     H_    0.889771 0.488841 0.883731 0.157143
N1    N     N_2   0.148330 0.498670 0.499030 -0.198439
N2    N     N_2   0.852680 0.498640 0.499000 -0.050295
N3    N     N_2   0.740291 0.872931 0.363879 -0.288244
N4    N     N_2   0.908937 0.617126 0.487471 -0.261927
N5    N     N_2   0.069954 0.721813 0.953957 -0.327677
O1    O     O_R   0.386950 0.680940 0.500010 -0.617753
O2    O     O_R   0.613110 0.680900 0.499990 -0.601150
O3    O     O_R   0.322330 0.500030 0.632270 -0.620469
O4    O     O_R   0.548480 0.499990 0.632240 -0.574489
O5    O     O_R   0.386890 0.319100 0.500010 -0.563973
O6    O     O_R   0.613050 0.319060 0.499990 -0.606262
O7    O     O_R   0.451520 0.500010 0.367760 -0.574771
O8    O     O_R   0.677670 0.499970 0.367730 -0.634714
Zn1   Zn    Zn3+2 0.349000 0.500030 0.500020 0.989576
Zn2   Zn    Zn3+2 0.651000 0.499970 0.499980 0.977197

loop_
_geom_bond_atom_site_label_1
_geom_bond_atom_site_label_2
_ccdc_geom_bond_type
C22   H8    S    
C3    C7    A    
C2    C5    A    
C17   C21   A    
C8    C9    D    
C25   N5    S    
C23   C29   A    
C26   C27   A    
O4    Zn2   S    
C24   N4    S    
Br2   C13   S    
C25   H15   S    
C14   H21   S    
C16   O8    A    
C30   H4    S    
C17   C20   A    
N1    Zn1   S    
O5    Zn1   S    
C2    C31   A    
C24   H11   S    
C15   O6    A    
C9    C15   S    
C30   C31   A    
C5    C6    A    
C10   N3    S    
C7    C18   A    
C31   H24   S    
C22   N3    S    
C10   C11   D    
C4    O3    A    
O6    Zn2   S    
C8    C10   S    
C27   C28   A    
C6    C18   A    
Br3   C21   S    
C2    C3    A    
Br1   C9    S    
C25   H16   S    
C24   H13   S    
C7    H22   S    
C3    C27   A    
C12   C26   A    
C6    H23   S    
H20   N1    S    
O1    Zn1   S    
C22   H6    S    
C1    C11   S    
C1    O2    A    
H5    N3    S    
C25   H17   S    
C5    H12   S    
C14   N2    D    
C15   O5    A    
C29   H1    S    
C26   C30   A    
N2    Zn2   S    
C11   H19   S    
O2    Zn2   S    
N2    N4    S    
C20   H2    S    
C19   C23   A    
C22   H7    S    
O8    Zn2   S    
C1    O1    A    
C19   C20   A    
C12   C21   A    
C12   C23   A    
O7    Zn1   S    
C8    H18   S    
C16   C18   S    
C19   N5    S    
C16   O7    A    
C4    O4    A    
C24   H10   S    
C4    C17   S    
O3    Zn1   S    
C28   C29   A    
H9    N4    S    
C28   H3    S    
C13   C14   S    
H14   N5    S    
C13   N1    D    
