data_mof_unit_15504.cif
_audit_creation_date              2012-12-10T17:37:24-0500
_audit_creation_method            fapswitch 2.2
_symmetry_space_group_name_H-M    P1
_symmetry_Int_Tables_number       1
_space_group_crystal_system       triclinic
_cell_length_a                    12.01934
_cell_length_b                    12.982441
_cell_length_c                    17.147667
_cell_angle_alpha                 91.320885
_cell_angle_beta                  82.866484
_cell_angle_gamma                 92.201591
_cell_volume                      2652.605999

loop_
_atom_site_label
_atom_site_type_symbol
_atom_type_description
_atom_site_fract_x
_atom_site_fract_y
_atom_site_fract_z
_atom_type_partial_charge
C1    C     C_R   0.520244 0.699776 0.494022 1.000166
C2    C     C_R   0.562799 0.129003 0.487502 0.475770
C3    C     C_R   0.441748 0.975670 0.503925 -0.288185
C4    C     C_R   0.548491 0.022724 0.478666 -0.290691
C5    C     C_R   0.961395 0.397059 0.428268 0.370621
C6    C     C_R   0.035912 0.583003 0.584085 0.355655
C7    C     C_R   0.843449 0.407157 0.436863 0.552153
C8    C     C_R   0.153200 0.577515 0.573803 0.563169
C9    C     C_R   0.854571 0.543522 0.530645 0.550591
C10   C     C_R   0.146545 0.464187 0.463686 0.600492
C11   C     C_R   0.971855 0.530654 0.530106 -0.403896
C12   C     C_R   0.479107 0.299930 0.503868 0.941091
C13   C     C_R   0.026705 0.462938 0.473631 -0.325717
C14   C     C_R   0.486216 0.499570 0.652661 1.037082
C15   C     C_R   0.514173 0.500023 0.347590 1.003605
C16   C     C_R   0.482729 0.490047 0.736725 -0.446949
C17   C     C_R   0.520820 0.504705 0.263533 -0.402203
C18   C     C_R   0.577161 0.525281 0.771172 0.511800
C19   C     C_R   0.458979 0.579250 0.232318 0.429232
C20   C     C_R   0.587772 0.500159 0.847405 0.408728
C21   C     C_R   0.458825 0.584431 0.151785 0.427714
C22   C     C_R   0.496014 0.453014 0.893870 -0.311368
C23   C     C_R   0.468200 0.188988 0.508324 -0.398394
C24   C     C_R   0.530501 0.521761 0.102714 -0.290475
C25   C     C_R   0.398887 0.419518 0.860779 0.449764
C26   C     C_R   0.599512 0.450957 0.132796 0.413166
C27   C     C_R   0.394576 0.434052 0.780494 0.320589
C28   C     C_R   0.591229 0.439246 0.214574 0.344071
C29   C     C_2   0.500623 0.444449 0.977621 0.511614
C30   C     C_2   0.528858 0.528023 0.018897 0.673280
C31   C     C_3   0.977288 0.301787 0.310451 -0.146984
C32   C     C_3   0.948636 0.574857 0.709200 -0.063618
C33   C     C_3   0.595446 0.284399 0.275027 -0.169761
C34   C     C_R   0.526934 0.809890 0.481924 -0.377998
C35   C     C_3   0.213656 0.434992 0.751955 -0.119897
C36   C     C_3   0.242100 0.436743 0.948832 -0.232275
C37   C     C_3   0.674226 0.296903 0.083894 -0.147704
C38   C     C_3   0.279714 0.627224 0.137826 -0.232302
C39   C     C_3   0.756507 0.441878 0.868342 -0.251613
C40   C     C_3   0.714344 0.175890 0.548832 -0.153378
C41   C     C_3   0.277049 0.808146 0.446106 -0.160128
C42   C     C_3   0.833091 0.979786 0.435157 -0.183929
C43   C     C_3   0.157033 0.020392 0.529945 -0.134536
C44   C     C_3   0.203448 0.474093 0.333057 -0.216812
C45   C     C_R   0.639306 0.962883 0.445568 0.510848
C46   C     C_3   0.827943 0.716196 0.539390 -0.102579
C47   C     C_R   0.349168 0.036195 0.532808 0.485047
C48   C     C_R   0.625919 0.855981 0.445916 0.405651
C49   C     C_R   0.363855 0.142886 0.534581 0.475078
C50   C     C_R   0.430294 0.868561 0.500638 0.512993
F1    F     F_    0.662158 0.580541 0.729826 -0.597101
F2    F     F_    0.402958 0.650146 0.279956 -0.686001
F3    F     F_    0.214267 0.631357 0.623328 -0.597332
F4    F     F_    0.777420 0.343102 0.397582 -0.604096
F5    F     F_    0.543271 0.622650 0.985448 -0.599202
F6    F     F_    0.465762 0.354533 0.013735 -0.680203
F7    F     F_    0.278000 0.201309 0.567038 -0.624379
F8    F     F_    0.705153 0.797251 0.405339 -0.672153
H1    H     H_    0.048791 0.273694 0.269333 0.159134
H2    H     H_    0.168647 0.416962 0.700334 0.173330
H3    H     H_    0.226871 0.520442 0.755162 0.165485
H4    H     H_    0.158600 0.407571 0.804648 0.152002
H5    H     H_    0.279187 0.463440 0.002084 0.171889
H6    H     H_    0.160546 0.396956 0.968732 0.184350
H7    H     H_    0.224292 0.504584 0.914300 0.116864
H8    H     H_    0.729788 0.267829 0.124873 0.187468
H9    H     H_    0.704463 0.265671 0.024638 0.167954
H10   H     H_    0.586722 0.266060 0.099124 0.184939
H11   H     H_    0.247383 0.654440 0.197934 0.200153
H12   H     H_    0.950561 0.374277 0.285785 0.146615
H13   H     H_    0.262429 0.542632 0.131765 0.094513
H14   H     H_    0.232164 0.665749 0.096041 0.192107
H15   H     H_    0.776688 0.419390 0.805279 0.135743
H16   H     H_    0.717919 0.374921 0.902426 0.170157
H17   H     H_    0.836640 0.463657 0.891285 0.191595
H18   H     H_    0.717293 0.097136 0.572554 0.116800
H19   H     H_    0.665644 0.225917 0.593145 0.137619
H20   H     H_    0.801614 0.208301 0.539356 0.173527
H21   H     H_    0.325187 0.754042 0.404937 0.202910
H22   H     H_    0.271369 0.882723 0.416456 0.122467
H23   H     H_    0.909185 0.241328 0.312231 0.228904
H24   H     H_    0.190673 0.774649 0.459647 0.149230
H25   H     H_    0.870448 0.914322 0.399707 0.200218
H26   H     H_    0.819345 0.959679 0.498572 0.088400
H27   H     H_    0.895540 0.045204 0.429115 0.180547
H28   H     H_    0.180118 0.042075 0.467296 0.109154
H29   H     H_    0.114185 0.084736 0.563489 0.215140
H30   H     H_    0.095373 0.954474 0.530693 0.148240
H31   H     H_    0.261064 0.440753 0.284228 0.172717
H32   H     H_    0.231831 0.555339 0.343201 0.180943
H33   H     H_    0.119007 0.474498 0.313524 0.132666
H34   H     H_    0.892287 0.510891 0.691289 0.153782
H35   H     H_    0.761977 0.771122 0.560657 0.177415
H36   H     H_    0.833807 0.710740 0.474159 0.165160
H37   H     H_    0.908269 0.749864 0.555432 0.162374
H38   H     H_    0.899883 0.620098 0.756407 0.233333
H39   H     H_    0.020723 0.543477 0.734298 0.082706
H40   H     H_    0.533448 0.256078 0.235602 0.098302
H41   H     H_    0.551369 0.300177 0.334493 0.170036
H42   H     H_    0.653094 0.220961 0.280509 0.218919
N1    N     N_R   0.206400 0.519440 0.514690 -0.234405
N2    N     N_R   0.793600 0.480560 0.485310 -0.218345
O1    O     O_R   0.421320 0.658850 0.503920 -0.566669
O2    O     O_3   0.986038 0.641047 0.646552 -0.547766
O3    O     O_3   0.659930 0.371821 0.245775 -0.554737
O4    O     O_3   0.314198 0.381102 0.742401 -0.535446
O5    O     O_3   0.311797 0.365823 0.904458 -0.512226
O6    O     O_3   0.683316 0.405587 0.081556 -0.589666
O7    O     O_3   0.394634 0.655156 0.119781 -0.510178
O8    O     O_3   0.686609 0.527169 0.877600 -0.515500
O9    O     O_3   0.669748 0.174120 0.476282 -0.487200
O10   O     O_3   0.324899 0.821198 0.517158 -0.488878
O11   O     O_3   0.734831 0.009978 0.405417 -0.533034
O12   O     O_R   0.578680 0.341150 0.496080 -0.568881
O13   O     O_3   0.249073 0.990304 0.567201 -0.517178
O14   O     O_3   0.204612 0.413563 0.400546 -0.523751
O15   O     O_3   0.800055 0.620288 0.575772 -0.499601
O16   O     O_R   0.609840 0.646370 0.494500 -0.575576
O17   O     O_R   0.390160 0.353630 0.505500 -0.544388
O18   O     O_R   0.394600 0.506990 0.621070 -0.558627
O19   O     O_R   0.605400 0.493010 0.378930 -0.552550
O20   O     O_R   0.583120 0.494520 0.611640 -0.582771
O21   O     O_R   0.416880 0.505480 0.388360 -0.606549
O22   O     O_3   0.012864 0.315393 0.385690 -0.564854
Zn1   Zn    Zn3+2 0.374120 0.508330 0.506290 1.078279
Zn2   Zn    Zn3+2 0.625880 0.491670 0.493710 1.076583

loop_
_geom_bond_atom_site_label_1
_geom_bond_atom_site_label_2
_ccdc_geom_bond_type
C14   O20   A    
C22   C29   S    
C9    O15   S    
C41   H22   S    
C44   H32   S    
C47   C49   A    
C47   O13   S    
C5    O22   S    
C15   O21   A    
C43   H30   S    
C19   C21   A    
C24   C26   A    
C31   O22   S    
O12   Zn2   S    
C14   O18   A    
C23   C49   A    
C37   H10   S    
C49   F7    S    
C32   H39   S    
C22   C25   A    
C18   C20   A    
C33   H40   S    
C39   H16   S    
C31   H1    S    
C43   O13   S    
C19   F2    S    
C31   H12   S    
C46   H37   S    
C9    N2    A    
C41   O10   S    
C18   F1    S    
N1    Zn1   S    
C32   O2    S    
C6    O2    S    
C36   H5    S    
C8    N1    A    
C1    O1    A    
C5    C13   A    
C16   C27   A    
C38   H11   S    
C36   O5    S    
C17   C28   A    
C3    C50   A    
C1    C34   S    
C40   O9    S    
C12   O12   A    
C4    C45   A    
C39   O8    S    
C38   H14   S    
C2    O9    S    
C34   C50   A    
C33   O3    S    
C37   O6    S    
C26   O6    S    
C6    C11   A    
C5    C7    A    
C36   H7    S    
C12   C23   S    
C27   O4    S    
C7    N2    A    
C40   H18   S    
C46   O15   S    
C35   H2    S    
C33   H41   S    
O20   Zn2   S    
C2    C4    A    
C29   C30   D    
C12   O17   A    
C42   O11   S    
C21   O7    S    
C46   H36   S    
C28   O3    S    
C37   H8    S    
C50   O10   S    
C42   H26   S    
C35   H3    S    
C42   H27   S    
C38   O7    S    
C9    C11   A    
C44   H33   S    
C20   O8    S    
O17   Zn1   S    
C32   H38   S    
C20   C22   A    
C39   H17   S    
C40   H20   S    
C34   C48   A    
C3    C4    A    
C10   O14   S    
C25   O5    S    
C45   C48   A    
C15   C17   S    
C38   H13   S    
C15   O19   A    
O18   Zn1   S    
C43   H28   S    
C10   N1    A    
C42   H25   S    
N2    Zn2   S    
C10   C13   A    
C8    F3    S    
C41   H21   S    
C6    C8    A    
C48   F8    S    
C29   F6    S    
C25   C27   A    
C30   F5    S    
C26   C28   A    
C31   H23   S    
C33   H42   S    
C43   H29   S    
O19   Zn2   S    
C35   O4    S    
C11   C13   A    
C32   H34   S    
C46   H35   S    
C41   H24   S    
C37   H9    S    
C3    C47   A    
C17   C19   A    
C35   H4    S    
C14   C16   S    
C1    O16   A    
C39   H15   S    
O1    Zn1   S    
C24   C30   S    
O21   Zn1   S    
C45   O11   S    
C44   O14   S    
C16   C18   A    
C21   C24   A    
C2    C23   A    
C40   H19   S    
O16   Zn2   S    
C7    F4    S    
C36   H6    S    
C44   H31   S    
