data_mof_unit_46059.cif
_audit_creation_date              2012-12-11T15:48:57-0500
_audit_creation_method            fapswitch 2.2
_symmetry_space_group_name_H-M    P1
_symmetry_Int_Tables_number       1
_space_group_crystal_system       triclinic
_cell_length_a                    10.935821
_cell_length_b                    11.006923
_cell_length_c                    18.778455
_cell_angle_alpha                 90.512003
_cell_angle_beta                  90.115627
_cell_angle_gamma                 60.240552
_cell_volume                      1962.16897351

loop_
_atom_site_label
_atom_site_type_symbol
_atom_type_description
_atom_site_fract_x
_atom_site_fract_y
_atom_site_fract_z
_atom_type_partial_charge
C1    C     C_R   0.240869 0.644526 0.610642 0.546801
C2    C     C_R   0.603185 0.097536 0.700079 -0.178112
C3    C     C_R   0.614544 0.072161 0.772356 -0.166998
C4    C     C_R   0.651667 0.618819 0.602691 0.555085
C5    C     C_3   0.933169 0.102862 0.784431 -0.280850
C6    C     C_3   0.925010 0.119071 0.704319 -0.282465
C7    C     C_R   0.680968 0.151856 0.668205 0.010152
C8    C     C_R   0.179755 0.669622 0.835063 0.028429
C9    C     C_R   0.175504 0.562177 0.796637 -0.002205
C10   C     C_R   0.189497 0.555408 0.722539 -0.021928
C11   C     C_R   0.198341 0.769512 0.724709 -0.182510
C12   C     C_3   0.728726 0.516123 0.798866 -0.244860
C13   C     C_R   0.202674 0.766207 0.798398 -0.180017
C14   C     C_3   0.278171 0.409458 0.803943 -0.135959
C15   C     C_3   0.295855 0.402922 0.723763 -0.245987
C16   C     C_R   0.630845 0.224335 0.601070 0.541465
C17   C     C_R   0.196882 0.661359 0.685173 0.013762
C18   C     C_R   0.654686 0.656414 0.165525 0.000636
C19   C     C_R   0.765941 0.558173 0.206647 -0.006876
C20   C     C_R   0.749453 0.538177 0.276631 -0.006980
C21   C     C_R   0.500231 0.698902 0.267809 -0.164406
C22   C     C_R   0.518101 0.721874 0.195056 -0.049000
C23   C     C_3   0.695308 0.666858 0.815192 0.057699
C24   C     C_3   0.906829 0.545487 0.219694 -0.243627
C25   C     C_3   0.888787 0.522864 0.297349 -0.120654
C26   C     C_R   0.619490 0.611845 0.310025 0.000623
C27   C     C_R   0.633241 0.180303 0.170643 0.020567
C28   C     C_R   0.223891 0.646931 0.401297 0.557713
C29   C     C_R   0.538841 0.160312 0.212399 0.016017
C30   C     C_R   0.538521 0.172882 0.284745 0.013057
C31   C     C_R   0.709234 0.249576 0.276155 -0.174332
C32   C     C_R   0.707207 0.240276 0.201894 -0.174193
C33   C     C_3   0.514872 0.037749 0.217273 -0.247782
C34   C     C_3   0.667126 0.642020 0.678981 0.046423
C35   C     C_3   0.513604 0.053495 0.297374 -0.276136
C36   C     C_R   0.632469 0.204679 0.318147 0.018986
C37   C     C_R   0.124836 0.687138 0.186707 0.021083
C38   C     C_R   0.054659 0.801840 0.232863 0.018212
C39   C     C_R   0.072449 0.788804 0.304594 0.033976
C40   C     C_R   0.614256 0.588411 0.386256 0.564702
C41   C     C_R   0.215407 0.538476 0.288442 -0.162114
C42   C     C_R   0.196368 0.552754 0.215007 -0.183272
C43   C     C_3   0.041690 0.943201 0.234050 -0.267616
C44   C     C_3   0.058390 0.929975 0.314085 -0.282140
C45   C     C_3   0.783805 0.679076 0.690705 -0.247702
C46   C     C_R   0.163247 0.659108 0.332705 0.040484
C47   C     C_R   0.725584 0.047156 0.888604 0.556973
C48   C     C_R   0.719320 0.684571 0.890474 0.540102
C49   C     C_R   0.118160 0.706406 0.905910 0.543172
C50   C     C_R   0.672257 0.111143 0.102363 0.555440
C51   C     C_R   0.694885 0.688529 0.096743 0.543464
C52   C     C_R   0.614142 0.235105 0.393196 0.545899
C53   C     C_R   0.091660 0.711070 0.112846 0.555609
C54   C     C_3   0.540557 0.765820 0.792685 -0.243004
C55   C     C_3   0.528201 0.760682 0.711452 -0.235488
C56   C     C_3   0.705506 0.503917 0.719184 -0.217847
C57   C     C_3   0.798476 0.696371 0.770989 -0.217916
C58   C     C_1   0.403630 0.386244 0.844313 0.214346
C59   C     C_1   0.400196 0.814797 0.151714 0.181480
C60   C     C_1   0.873898 0.637484 0.344465 0.232845
C61   C     C_R   0.709792 0.091678 0.814516 0.035981
C62   C     C_R   0.780222 0.154771 0.783805 0.032788
C63   C     C_R   0.769124 0.180298 0.710856 0.008799
Cr1   Cr    Cr6+3 0.392960 0.397920 0.502240 1.009917
Cr2   Cr    Cr6+3 0.398340 0.708480 0.501250 1.005944
Cr3   Cr    Cr6+3 0.708670 0.393570 0.496460 1.006212
Cr4   Cr    Cr6+3 0.937650 0.938540 0.007610 1.034008
Cr5   Cr    Cr6+3 0.625330 0.937370 0.994520 1.027885
Cr6   Cr    Cr6+3 0.937940 0.625230 0.001190 1.012211
H1    H     H_    0.499985 0.874902 0.810432 0.125366
H2    H     H_    0.973493 0.018275 0.674471 0.147665
H3    H     H_    0.206900 0.852570 0.699018 0.133317
H4    H     H_    0.471823 0.731104 0.818466 0.126883
H5    H     H_    0.212466 0.847185 0.826670 0.131617
H6    H     H_    0.228563 0.349595 0.824334 0.113945
H7    H     H_    0.401008 0.382688 0.705636 0.163461
H8    H     H_    0.256776 0.338313 0.697016 0.125896
H9    H     H_    0.396307 0.751870 0.291633 0.128859
H10   H     H_    0.904528 0.645459 0.208414 0.149460
H11   H     H_    0.993218 0.451210 0.193223 0.141404
H12   H     H_    0.804146 0.417139 0.696999 0.143990
H13   H     H_    0.965031 0.416468 0.316686 0.117410
H14   H     H_    0.442129 0.739607 0.698653 0.147534
H15   H     H_    0.775033 0.285852 0.300563 0.141572
H16   H     H_    0.776125 0.263080 0.170364 0.133250
H17   H     H_    0.606339 0.938673 0.197804 0.155679
H18   H     H_    0.410908 0.061908 0.195234 0.155390
H19   H     H_    0.408608 0.087935 0.321581 0.142182
H20   H     H_    0.603729 0.963840 0.324007 0.167804
H21   H     H_    0.281427 0.434531 0.309361 0.152552
H22   H     H_    0.241409 0.460894 0.180764 0.131895
H23   H     H_    0.908577 0.621990 0.786649 0.139602
H24   H     H_    0.936966 0.022853 0.216387 0.162988
H25   H     H_    0.501952 0.863431 0.688204 0.116927
H26   H     H_    0.129767 0.947246 0.208008 0.173223
H27   H     H_    0.155824 0.928041 0.332604 0.152433
H28   H     H_    0.960879 0.003304 0.343569 0.152843
H29   H     H_    0.780857 0.802590 0.782585 0.114481
H30   H     H_    0.757643 0.777804 0.662777 0.124659
H31   H     H_    0.839905 0.439854 0.812628 0.134106
H32   H     H_    0.660026 0.489315 0.830824 0.150742
H33   H     H_    0.620292 0.477413 0.711936 0.127155
H34   H     H_    0.885628 0.594868 0.668728 0.132756
H35   H     H_    0.527357 0.081940 0.669999 0.132598
H36   H     H_    0.548685 0.036142 0.795395 0.129650
H37   H     H_    0.987689 0.995061 0.803307 0.158302
H38   H     H_    0.959731 0.175792 0.812736 0.133734
H39   H     H_    0.957901 0.193480 0.685204 0.128903
N1    N     N_1   0.499445 0.372691 0.876866 -0.292852
N2    N     N_1   0.308660 0.888920 0.115042 -0.302725
N3    N     N_1   0.860055 0.727394 0.382034 -0.307731
O1    O     O_R   0.507380 0.255700 0.581440 -0.530930
O2    O     O_R   0.837170 0.593410 0.915250 -0.524644
O3    O     O_R   0.065200 0.635530 0.931570 -0.501710
O4    O     O_R   0.280320 0.527350 0.578930 -0.496817
O5    O     O_R   0.068260 0.828890 0.091840 -0.492424
O6    O     O_R   0.798870 0.057410 0.079340 -0.504554
O7    O     O_R   0.584930 0.080350 0.076780 -0.509748
O8    O     O_R   0.626960 0.809650 0.067060 -0.492704
O9    O     O_R   0.816040 0.596610 0.076510 -0.515978
O10   O     O_R   0.045610 0.638500 0.081060 -0.512760
O11   O     O_3   0.833640 0.833710 0.001100 -0.279398
O12   O     O_R   0.524480 0.695810 0.424040 -0.493884
O13   O     O_R   0.260510 0.739590 0.584590 -0.532523
O14   O     O_R   0.532300 0.695080 0.573820 -0.504734
O15   O     O_R   0.744840 0.503500 0.576370 -0.521476
O16   O     O_R   0.699120 0.276560 0.571960 -0.500567
O17   O     O_R   0.498940 0.256500 0.419860 -0.516496
O18   O     O_R   0.272500 0.528080 0.429150 -0.509715
O19   O     O_R   0.252060 0.740380 0.423010 -0.535402
O20   O     O_R   0.736390 0.504290 0.414790 -0.511208
O21   O     O_R   0.691300 0.277290 0.422170 -0.528944
O22   O     O_3   0.499990 0.499990 0.499980 -0.277780
O23   O     O_R   0.089400 0.825690 0.930570 -0.529658
O24   O     O_R   0.818460 0.054440 0.929850 -0.492000
O25   O     O_R   0.606060 0.077150 0.915510 -0.503955
O26   O     O_R   0.646550 0.806680 0.917570 -0.524885

loop_
_geom_bond_atom_site_label_1
_geom_bond_atom_site_label_2
_ccdc_geom_bond_type
C49   O23   A    
C34   C56   S    
C8    C13   A    
C57   H23   S    
C47   O25   A    
C27   C29   A    
C50   O6    A    
C41   C42   A    
C2    C7    A    
C21   C26   A    
Cr2   O19   S    
C52   O17   A    
C56   H12   S    
C3    H36   S    
C12   C23   S    
Cr6   O2    S    
C62   C63   A    
C4    O14   A    
C28   O18   A    
C10   C15   S    
C31   C36   A    
Cr5   O8    S    
C5    C6    S    
C33   C35   S    
Cr1   O1    S    
C20   C25   S    
C32   H16   S    
C10   C17   A    
C58   N1    T    
Cr4   O5    S    
C29   C33   S    
C59   N2    T    
Cr3   O16   S    
C42   H22   S    
C35   H19   S    
Cr2   O13   S    
C37   C42   A    
C45   H34   S    
Cr5   O7    S    
Cr1   O22   S    
C24   H11   S    
C19   C20   A    
C8    C9    A    
Cr1   O17   S    
C21   H9    S    
C51   O8    A    
C41   C46   A    
C25   C60   S    
C2    H35   S    
C29   C30   A    
C9    C10   A    
C36   C52   S    
C27   C50   S    
C37   C53   S    
C49   O3    A    
C34   C55   S    
Cr1   O4    S    
C50   O7    A    
C21   C22   A    
Cr5   O26   S    
C55   H25   S    
C18   C51   S    
Cr3   O21   S    
C5    H37   S    
C3    C61   A    
C6    H2    S    
C14   C58   S    
C4    C34   S    
Cr6   O3    S    
C52   O21   A    
Cr5   O25   S    
Cr4   O23   S    
C38   C39   A    
C24   C25   S    
C45   H30   S    
Cr5   O11   S    
C22   C59   S    
C9    C14   S    
C11   H3    S    
C18   C19   A    
C31   H15   S    
Cr3   O15   S    
C24   H10   S    
Cr2   O14   S    
C6    C63   S    
Cr4   O24   S    
C33   H17   S    
C37   C38   A    
C44   H27   S    
Cr3   O22   S    
C44   H28   S    
C54   H4    S    
C43   H26   S    
C31   C32   A    
C54   H1    S    
Cr6   O10   S    
C45   C57   S    
C51   O9    A    
C34   C45   S    
C13   H5    S    
Cr4   O6    S    
C7    C63   A    
C12   C56   S    
C39   C46   A    
C48   O26   A    
C7    C16   S    
C40   O20   A    
C43   C44   S    
C25   H13   S    
C55   H14   S    
Cr4   O11   S    
C35   H20   S    
C16   O1    A    
C23   C54   S    
Cr3   O20   S    
C5    H38   S    
C23   C57   S    
C40   O12   A    
C54   C55   S    
C11   C17   A    
C23   C48   S    
C47   O24   A    
C27   C32   A    
C18   C22   A    
C47   C61   S    
C53   O5    A    
C39   C44   S    
C4    O15   A    
C30   C35   S    
Cr6   O9    S    
C1    C17   S    
C30   C36   A    
C28   C46   S    
C14   H6    S    
C19   C24   S    
C33   H18   S    
C1    O13   A    
C56   H33   S    
C38   C43   S    
C60   N3    T    
C53   O10   A    
C11   C13   A    
C26   C40   S    
C15   H8    S    
C20   C26   A    
Cr6   O11   S    
C57   H29   S    
C43   H24   S    
C5    C62   S    
C2    C3    A    
C28   O19   A    
Cr2   O12   S    
C61   C62   A    
C16   O16   A    
C12   H31   S    
C12   H32   S    
Cr1   O18   S    
C6    H39   S    
C14   C15   S    
C15   H7    S    
C1    O4    A    
C8    C49   S    
Cr2   O22   S    
C41   H21   S    
C48   O2    A    
