data_mof_unit_65944.cif
_audit_creation_date              2012-12-10T16:52:44-0500
_audit_creation_method            fapswitch 2.2
_symmetry_space_group_name_H-M    P1
_symmetry_Int_Tables_number       1
_space_group_crystal_system       triclinic
_cell_length_a                    23.520631
_cell_length_b                    31.365077
_cell_length_c                    18.812179
_cell_angle_alpha                 89.870174
_cell_angle_beta                  126.55203
_cell_angle_gamma                 90.128134
_cell_volume                      11148.5829281

loop_
_atom_site_label
_atom_site_type_symbol
_atom_type_description
_atom_site_fract_x
_atom_site_fract_y
_atom_site_fract_z
_atom_type_partial_charge
C1    C     C_R   0.805013 0.191316 0.120293 0.928374
C2    C     C_R   0.359276 0.749484 0.999677 0.902104
C3    C     C_R   0.587007 0.092412 0.954882 -0.116898
C4    C     C_R   0.599159 0.129657 0.002684 -0.124027
C5    C     C_R   0.667715 0.139945 0.075841 -0.127674
C6    C     C_R   0.276461 0.885628 0.895616 0.172039
C7    C     C_R   0.331770 0.857808 0.918371 -0.132025
C8    C     C_R   0.401467 0.867272 0.989651 -0.125965
C9    C     C_R   0.416397 0.904417 0.038778 -0.115391
C10   C     C_R   0.361715 0.932304 0.016298 -0.154410
C11   C     C_R   0.292024 0.923243 0.944379 -0.143242
C12   C     C_R   0.278062 0.115407 0.891732 0.156153
C13   C     C_R   0.359303 0.250604 0.999690 0.890875
C14   C     C_R   0.295878 0.075607 0.934346 -0.162501
C15   C     C_R   0.366400 0.066043 0.002780 -0.140565
C16   C     C_R   0.419734 0.095713 0.028110 -0.118781
C17   C     C_R   0.402672 0.135035 0.985014 -0.128516
C18   C     C_R   0.332174 0.144901 0.917023 -0.115278
C19   C     C_R   0.721514 0.884080 0.110370 0.154722
C20   C     C_R   0.668244 0.853894 0.084877 -0.112842
C21   C     C_R   0.597206 0.863757 0.019162 -0.130747
C22   C     C_R   0.578708 0.903801 0.978742 -0.120383
C23   C     C_R   0.631169 0.934174 0.004374 -0.140665
C24   C     C_R   0.640606 0.749288 0.000115 0.899119
C25   C     C_R   0.702254 0.924557 0.070333 -0.164295
C26   C     C_R   0.233578 0.605394 0.091684 0.159751
C27   C     C_R   0.235153 0.566562 0.055863 -0.175564
C28   C     C_R   0.173985 0.550922 0.977632 -0.140723
C29   C     C_R   0.110622 0.573702 0.935019 -0.126857
C30   C     C_R   0.108248 0.612057 0.970818 -0.132108
C31   C     C_R   0.169288 0.627766 0.049083 -0.097547
C32   C     C_R   0.775723 0.384349 0.892890 0.175614
C33   C     C_R   0.829815 0.357565 0.908489 -0.140337
C34   C     C_R   0.900262 0.366218 0.977998 -0.129316
C35   C     C_R   0.140850 0.750361 0.000595 0.887990
C36   C     C_R   0.917097 0.401240 0.033155 -0.119121
C37   C     C_R   0.863446 0.428080 0.017791 -0.147438
C38   C     C_R   0.792912 0.420005 0.947183 -0.137681
C39   C     C_R   0.776069 0.612849 0.896709 0.155704
C40   C     C_R   0.789079 0.572978 0.937954 -0.163072
C41   C     C_R   0.857488 0.562054 0.010577 -0.139511
C42   C     C_R   0.913538 0.590455 0.041633 -0.122574
C43   C     C_R   0.901327 0.629826 0.999947 -0.125067
C44   C     C_R   0.832959 0.640973 0.927575 -0.108007
C45   C     C_R   0.233516 0.353537 0.175563 0.141265
C46   C     C_R   0.859172 0.249581 0.999446 0.903307
C47   C     C_R   0.218272 0.314596 0.197997 -0.170300
C48   C     C_R   0.151884 0.307691 0.179090 -0.140313
C49   C     C_R   0.100096 0.339329 0.136881 -0.109903
C50   C     C_R   0.114422 0.377877 0.112910 -0.153649
C51   C     C_R   0.181237 0.385200 0.133043 -0.134283
C52   C     C_R   0.859255 0.750544 0.999594 0.895622
C53   C     C_R   0.140620 0.249347 0.000145 0.921416
C54   C     C_1   0.580819 0.251468 0.000879 -0.203446
C55   C     C_1   0.419299 0.748303 0.999379 -0.205665
C56   C     C_1   0.419204 0.251755 0.999117 -0.203190
C57   C     C_R   0.194638 0.808698 0.879661 0.930893
C58   C     C_1   0.580684 0.748017 0.000646 -0.205440
C59   C     C_1   0.080879 0.751319 0.001011 -0.200357
C60   C     C_1   0.919052 0.248437 0.998839 -0.205278
C61   C     C_1   0.919106 0.751558 0.998923 -0.206537
C62   C     C_1   0.080318 0.247921 0.999863 -0.181105
C63   C     C_1   0.529826 0.252000 0.000399 -0.011052
C64   C     C_1   0.470239 0.747678 0.999749 -0.011115
C65   C     C_1   0.470159 0.252154 0.999505 -0.013233
C66   C     C_1   0.529796 0.747526 0.000404 -0.013111
C67   C     C_1   0.029834 0.751779 0.000427 -0.005429
C68   C     C_R   0.195039 0.191388 0.879665 0.925952
C69   C     C_1   0.969801 0.247716 0.998813 -0.021143
C70   C     C_1   0.970092 0.751895 0.999378 -0.009876
C71   C     C_1   0.029241 0.247432 0.999226 -0.005583
C72   C     C_2   0.834510 0.093392 0.253924 -0.248101
C73   C     C_2   0.165492 0.906204 0.745253 -0.246687
C74   C     C_2   0.165258 0.094942 0.742864 -0.232625
C75   C     C_2   0.834976 0.904585 0.258246 -0.233025
C76   C     C_2   0.337100 0.592175 0.251865 -0.243598
C77   C     C_2   0.664819 0.405685 0.744186 -0.244120
C78   C     C_2   0.665309 0.594262 0.744300 -0.233693
C79   C     C_R   0.805117 0.808631 0.120332 0.926126
C80   C     C_2   0.346425 0.393559 0.280751 -0.232640
C81   C     C_2   0.902789 0.082587 0.294313 -0.081496
C82   C     C_2   0.097732 0.917814 0.706260 -0.081551
C83   C     C_2   0.097601 0.083180 0.705259 -0.082351
C84   C     C_2   0.901996 0.917170 0.294368 -0.082311
C85   C     C_2   0.408509 0.589248 0.305437 -0.075175
C86   C     C_2   0.597916 0.418418 0.706779 -0.079689
C87   C     C_2   0.596596 0.584114 0.703902 -0.081541
C88   C     C_2   0.398610 0.418692 0.294378 -0.069784
C89   C     C_2   0.797359 0.123385 0.179893 0.036052
C90   C     C_R   0.302118 0.691562 0.119699 0.926773
C91   C     C_2   0.202619 0.876124 0.819133 0.034522
C92   C     C_2   0.203549 0.124928 0.816821 0.025498
C93   C     C_2   0.796578 0.874807 0.183981 0.026430
C94   C     C_2   0.298174 0.621306 0.176238 0.032270
C95   C     C_2   0.701327 0.375727 0.818001 0.029177
C96   C     C_2   0.703676 0.624111 0.818526 0.026176
C97   C     C_2   0.306989 0.363327 0.208325 0.028444
C98   C     C_2   0.829096 0.160990 0.190814 -0.421978
C99   C     C_2   0.169876 0.839048 0.809059 -0.421526
C100  C     C_2   0.170519 0.161461 0.808630 -0.392399
C101  C     C_R   0.693882 0.308734 0.879584 0.932922
C102  C     C_2   0.830083 0.838618 0.191340 -0.392150
C103  C     C_2   0.320777 0.661793 0.189408 -0.392116
C104  C     C_2   0.667825 0.339167 0.808906 -0.420731
C105  C     C_2   0.672331 0.661594 0.808796 -0.395765
C106  C     C_2   0.343544 0.338993 0.190378 -0.396979
C107  C     C_R   0.438841 0.442632 0.376341 0.919882
C108  C     C_R   0.560791 0.557713 0.623966 0.891029
C109  C     C_R   0.561061 0.442820 0.624507 0.911519
C110  C     C_R   0.440785 0.559278 0.379101 0.888026
C111  C     C_R   0.938923 0.942600 0.375603 0.898069
C112  C     C_R   0.695552 0.691420 0.879730 0.925706
C113  C     C_R   0.061037 0.057444 0.624375 0.896320
C114  C     C_R   0.061050 0.942708 0.624449 0.912794
C115  C     C_R   0.939050 0.057382 0.375688 0.912111
C116  C     C_3   0.942100 0.090263 0.253409 -0.388384
C117  C     C_3   0.942532 0.049806 0.208109 -0.338019
C118  C     C_3   0.982475 0.056947 0.168309 -0.883530
C119  C     C_3   0.059678 0.911294 0.749078 -0.388202
C120  C     C_3   0.059948 0.952540 0.792883 -0.341653
C121  C     C_3   0.021653 0.946567 0.835131 -0.882234
C122  C     C_3   0.059281 0.092038 0.747379 -0.384127
C123  C     C_R   0.309796 0.308644 0.120226 0.942070
C124  C     C_3   0.097596 0.072299 0.840126 -0.331481
C125  C     C_3   0.051678 0.073833 0.872626 -0.893935
C126  C     C_3   0.938816 0.909759 0.249939 -0.384488
C127  C     C_3   0.898790 0.930644 0.158039 -0.331800
C128  C     C_3   0.942990 0.930502 0.123052 -0.892175
C129  C     C_3   0.457613 0.611762 0.288556 -0.378587
C130  C     C_3   0.448201 0.594984 0.205587 -0.336692
C131  C     C_3   0.490304 0.621589 0.183655 -0.871604
C132  C     C_3   0.561205 0.413435 0.751635 -0.387875
C133  C     C_3   0.561511 0.455757 0.792530 -0.345905
C134  C     C_R   0.640800 0.250424 0.000487 0.895512
C135  C     C_3   0.525141 0.451303 0.837520 -0.884685
C136  C     C_3   0.555904 0.595502 0.741922 -0.382943
C137  C     C_3   0.590207 0.576613 0.834630 -0.331596
C138  C     C_3   0.541308 0.580355 0.862475 -0.892861
C139  C     C_3   0.411380 0.428040 0.225216 -0.405294
C140  C     C_3   0.392904 0.474419 0.193344 -0.354615
C141  C     C_3   0.398988 0.482679 0.118030 -0.908099
C142  C     C_R   0.724665 0.112899 0.101737 0.172402
C143  C     C_R   0.711844 0.075165 0.054304 -0.143841
C144  C     C_R   0.643316 0.065257 0.980561 -0.157655
H1    H     H_    0.805670 0.081779 0.278577 0.165073
H2    H     H_    0.120612 0.831161 0.745394 0.160556
H3    H     H_    0.971624 0.407670 0.087648 0.118753
H4    H     H_    0.876573 0.455091 0.060665 0.119735
H5    H     H_    0.751751 0.441121 0.935521 0.120047
H6    H     H_    0.746295 0.550502 0.914387 0.119280
H7    H     H_    0.867076 0.531560 0.042778 0.122259
H8    H     H_    0.966473 0.581865 0.097712 0.126306
H9    H     H_    0.944873 0.651648 0.023504 0.134870
H10   H     H_    0.824436 0.671303 0.895028 0.103339
H11   H     H_    0.258576 0.290246 0.232983 0.142730
H12   H     H_    0.140781 0.277945 0.197909 0.139243
H13   H     H_    0.122412 0.170234 0.744602 0.153904
H14   H     H_    0.049278 0.333995 0.123847 0.128327
H15   H     H_    0.074306 0.402409 0.080318 0.127662
H16   H     H_    0.192671 0.415709 0.116988 0.130109
H17   H     H_    0.878992 0.830128 0.254805 0.153543
H18   H     H_    0.357024 0.673627 0.256673 0.154149
H19   H     H_    0.617627 0.331621 0.746068 0.159885
H20   H     H_    0.626300 0.671097 0.743601 0.155038
H21   H     H_    0.400952 0.340801 0.230213 0.143214
H22   H     H_    0.957533 0.083044 0.118587 0.264027
H23   H     H_    0.038583 0.065241 0.221058 0.261131
H24   H     H_    0.981028 0.027391 0.134951 0.253259
H25   H     H_    0.193717 0.917008 0.719226 0.165460
H26   H     H_    0.967920 0.023082 0.256252 0.237149
H27   H     H_    0.887103 0.040661 0.154269 0.212172
H28   H     H_    0.919246 0.115899 0.203414 0.218442
H29   H     H_    0.997308 0.100379 0.306144 0.204785
H30   H     H_    0.965388 0.937909 0.783985 0.261989
H31   H     H_    0.047537 0.921136 0.886300 0.264122
H32   H     H_    0.023558 0.976718 0.867243 0.254067
H33   H     H_    0.115604 0.962036 0.845117 0.211154
H34   H     H_    0.033685 0.978666 0.743379 0.237544
H35   H     H_    0.004324 0.900904 0.697706 0.205314
H36   H     H_    0.193261 0.083327 0.717183 0.163992
H37   H     H_    0.083404 0.886337 0.800567 0.219876
H38   H     H_    0.038711 0.107393 0.876460 0.267475
H39   H     H_    0.001843 0.055697 0.827251 0.259952
H40   H     H_    0.080798 0.059350 0.939576 0.251998
H41   H     H_    0.111433 0.038691 0.838870 0.207333
H42   H     H_    0.147258 0.089826 0.888510 0.242983
H43   H     H_    0.051103 0.126545 0.749968 0.195408
H44   H     H_    0.004852 0.078748 0.705814 0.217579
H45   H     H_    0.993095 0.948394 0.168427 0.259438
H46   H     H_    0.955478 0.897243 0.116555 0.268127
H47   H     H_    0.807692 0.915213 0.285539 0.164803
H48   H     H_    0.912792 0.945975 0.056954 0.252240
H49   H     H_    0.848919 0.913225 0.109911 0.242918
H50   H     H_    0.885126 0.963992 0.161624 0.205409
H51   H     H_    0.993142 0.923220 0.290937 0.216710
H52   H     H_    0.946962 0.875458 0.245263 0.196648
H53   H     H_    0.470849 0.655010 0.168757 0.263777
H54   H     H_    0.547462 0.621291 0.240024 0.259707
H55   H     H_    0.483691 0.608076 0.124626 0.252927
H56   H     H_    0.467327 0.561587 0.217559 0.228144
H57   H     H_    0.391739 0.595565 0.147523 0.238149
H58   H     H_    0.305502 0.571240 0.261844 0.158827
H59   H     H_    0.452275 0.646765 0.286100 0.199701
H60   H     H_    0.513935 0.606877 0.345355 0.204971
H61   H     H_    0.468982 0.441726 0.788541 0.263112
H62   H     H_    0.552665 0.427101 0.891152 0.263780
H63   H     H_    0.526721 0.482315 0.866952 0.255565
H64   H     H_    0.617177 0.466036 0.842598 0.209148
H65   H     H_    0.533821 0.480871 0.740895 0.239484
H66   H     H_    0.505893 0.402433 0.702002 0.204877
H67   H     H_    0.586226 0.389560 0.805363 0.220866
H68   H     H_    0.528658 0.614358 0.863446 0.268126
H69   H     H_    0.692471 0.415255 0.716659 0.166588
H70   H     H_    0.491447 0.562414 0.816074 0.260257
H71   H     H_    0.567908 0.566850 0.929893 0.251827
H72   H     H_    0.602972 0.542566 0.835359 0.210071
H73   H     H_    0.640077 0.593579 0.884507 0.243198
H74   H     H_    0.549376 0.630342 0.743052 0.194189
H75   H     H_    0.500756 0.583426 0.698314 0.218684
H76   H     H_    0.454422 0.477845 0.141430 0.267795
H77   H     H_    0.363482 0.460908 0.061669 0.267801
H78   H     H_    0.383123 0.515926 0.093976 0.243056
H79   H     H_    0.337739 0.481193 0.169384 0.219711
H80   H     H_    0.694438 0.580956 0.721465 0.163669
H81   H     H_    0.429006 0.496440 0.248777 0.226817
H82   H     H_    0.467784 0.421678 0.254291 0.204837
H83   H     H_    0.378738 0.408055 0.165427 0.230373
H84   H     H_    0.754943 0.053773 0.073651 0.119338
H85   H     H_    0.633890 0.036606 0.943102 0.122691
H86   H     H_    0.533972 0.084578 0.897997 0.127998
H87   H     H_    0.555483 0.150572 0.983014 0.131235
H88   H     H_    0.676405 0.168809 0.112583 0.107261
H89   H     H_    0.320931 0.829010 0.880547 0.108231
H90   H     H_    0.443901 0.845817 0.006847 0.130969
H91   H     H_    0.334730 0.392815 0.328674 0.163980
H92   H     H_    0.470330 0.911608 0.094200 0.129019
H93   H     H_    0.373353 0.960871 0.054819 0.121479
H94   H     H_    0.250181 0.945206 0.927435 0.120224
H95   H     H_    0.255264 0.052070 0.914869 0.119010
H96   H     H_    0.379814 0.035571 0.036008 0.122774
H97   H     H_    0.474324 0.088129 0.080741 0.128586
H98   H     H_    0.444177 0.157735 0.003986 0.132813
H99   H     H_    0.319868 0.175204 0.883136 0.105160
H100  H     H_    0.681596 0.823095 0.117141 0.104223
H101  H     H_    0.556361 0.840538 0.000092 0.132529
H102  H     H_    0.877301 0.169295 0.255227 0.160700
H103  H     H_    0.523677 0.911414 0.928090 0.130123
H104  H     H_    0.616617 0.965274 0.973524 0.125402
H105  H     H_    0.742154 0.948679 0.090209 0.120372
H106  H     H_    0.283764 0.548573 0.088191 0.127950
H107  H     H_    0.175699 0.521093 0.950146 0.134152
H108  H     H_    0.063301 0.561532 0.874503 0.128144
H109  H     H_    0.059041 0.629532 0.938180 0.133237
H110  H     H_    0.166389 0.657205 0.076750 0.106233
H111  H     H_    0.817437 0.330278 0.866317 0.113777
H112  H     H_    0.941551 0.345754 0.988590 0.132588
O1    O     O_R   0.820770 0.230320 0.141550 -0.624295
O2    O     O_R   0.230290 0.820740 0.960580 -0.601097
O3    O     O_R   0.230290 0.179260 0.960580 -0.604907
O4    O     O_R   0.769710 0.820740 0.039420 -0.604415
O5    O     O_R   0.269710 0.679260 0.039420 -0.601757
O6    O     O_R   0.730290 0.320740 0.960580 -0.602646
O7    O     O_R   0.730290 0.679260 0.960580 -0.604576
O8    O     O_R   0.269710 0.320740 0.039420 -0.611306
O9    O     O_R   0.692770 0.275550 0.051090 -0.617073
O10   O     O_R   0.307230 0.724450 0.948910 -0.613697
O11   O     O_R   0.307230 0.275550 0.948910 -0.619564
O12   O     O_R   0.179230 0.769680 0.858450 -0.622692
O13   O     O_R   0.692770 0.724450 0.051090 -0.615778
O14   O     O_R   0.192770 0.775550 0.051090 -0.616539
O15   O     O_R   0.807230 0.224450 0.948910 -0.616660
O16   O     O_R   0.807230 0.775550 0.948910 -0.615609
O17   O     O_R   0.192770 0.224450 0.051090 -0.622104
O18   O     O_R   0.641720 0.224490 0.948960 -0.613652
O19   O     O_R   0.358280 0.775510 0.051040 -0.611312
O20   O     O_R   0.358280 0.224490 0.051040 -0.613821
O21   O     O_R   0.641720 0.775510 0.948960 -0.612646
O22   O     O_R   0.141720 0.724490 0.948960 -0.621542
O23   O     O_R   0.179230 0.230320 0.858450 -0.626104
O24   O     O_R   0.858280 0.275510 0.051040 -0.612529
O25   O     O_R   0.858280 0.724490 0.051040 -0.615360
O26   O     O_R   0.141720 0.275510 0.948960 -0.611458
O27   O     O_R   0.501540 0.454790 0.409570 -0.620665
O28   O     O_R   0.498460 0.545210 0.590430 -0.634543
O29   O     O_R   0.498460 0.454790 0.590430 -0.625755
O30   O     O_R   0.501540 0.545210 0.409570 -0.631225
O31   O     O_R   0.001540 0.954790 0.409570 -0.633182
O32   O     O_R   0.998460 0.045210 0.590430 -0.633498
O33   O     O_R   0.998460 0.954790 0.590430 -0.623645
O34   O     O_R   0.820770 0.769680 0.141550 -0.624830
O35   O     O_R   0.001540 0.045210 0.409570 -0.623963
O36   O     O_R   0.408080 0.454790 0.409570 -0.630686
O37   O     O_R   0.591920 0.545210 0.590430 -0.626417
O38   O     O_R   0.591920 0.454790 0.590430 -0.628456
O39   O     O_R   0.408080 0.545210 0.409570 -0.621966
O40   O     O_R   0.908080 0.954790 0.409570 -0.625814
O41   O     O_R   0.091920 0.045210 0.590430 -0.625515
O42   O     O_R   0.091920 0.954790 0.590430 -0.628156
O43   O     O_R   0.908080 0.045210 0.409570 -0.627822
O44   O     O_R   0.320770 0.730320 0.141550 -0.627589
O45   O     O_R   0.679230 0.269680 0.858450 -0.623481
O46   O     O_R   0.679230 0.730320 0.858450 -0.625460
O47   O     O_R   0.320770 0.269680 0.141550 -0.625503
O48   O     O_R   0.769710 0.179260 0.039420 -0.601021
Zn1   Zn    Zn3+2 0.784110 0.284120 0.068220 0.963048
Zn2   Zn    Zn3+2 0.062380 1.000000 0.499980 0.930503
Zn3   Zn    Zn3+2 0.437620 0.500000 0.500020 0.931247
Zn4   Zn    Zn3+2 0.562380 0.500000 0.499980 0.934167
Zn5   Zn    Zn3+2 0.215890 0.715880 0.931780 0.963299
Zn6   Zn    Zn3+2 0.215890 0.284120 0.931780 0.956732
Zn7   Zn    Zn3+2 0.784110 0.715880 0.068220 0.962790
Zn8   Zn    Zn3+2 0.284110 0.784120 0.068220 0.963356
Zn9   Zn    Zn3+2 0.715890 0.215880 0.931780 0.965526
Zn10  Zn    Zn3+2 0.715890 0.784120 0.931780 0.962838
Zn11  Zn    Zn3+2 0.284110 0.215880 0.068220 0.958808
Zn12  Zn    Zn3+2 0.937620 0.000000 0.500020 0.930983

loop_
_geom_bond_atom_site_label_1
_geom_bond_atom_site_label_2
_ccdc_geom_bond_type
C18   H99   S    
O14   Zn8   S    
C63   C65   S    
C126  C127  S    
C19   C20   A    
C74   C83   D    
C53   O26   A    
O5    Zn5   S    
C131  H53   S    
C2    C55   S    
C14   H95   S    
O28   Zn3   S    
O38   Zn4   S    
C54   C63   T    
C143  C144  A    
C54   C134  S    
C13   O11   A    
C115  O43   A    
C74   C92   S    
C23   H104  S    
O10   Zn5   S    
C85   C129  S    
C129  H60   S    
C25   H105  S    
C117  H26   S    
C78   C96   S    
C112  O46   A    
C79   C102  S    
C108  O28   A    
O34   Zn7   S    
C21   C22   A    
O15   Zn9   S    
C119  H35   S    
C3    H86   S    
O22   Zn5   S    
C45   C47   A    
C84   C126  S    
C138  H71   S    
C29   H108  S    
C144  H85   S    
C33   H111  S    
C140  C141  S    
C85   C110  S    
C6    C11   A    
C11   H94   S    
C64   C66   S    
C43   C44   A    
C37   C38   A    
O44   Zn8   S    
O18   Zn9   S    
C122  H44   S    
C110  O30   A    
C108  O37   A    
C105  H20   S    
C40   H6    S    
C73   C91   S    
C135  H62   S    
C105  C112  S    
O33   Zn12  S    
C75   C93   S    
O23   Zn6   S    
C90   O44   A    
C31   H110  S    
C46   C60   S    
C125  H38   S    
C87   C136  S    
C4    C5    A    
C139  C140  S    
C6    C7    A    
C41   H7    S    
C52   C61   S    
C44   H10   S    
C130  C131  S    
C28   H107  S    
C80   C88   D    
C124  H42   S    
C86   C132  S    
C52   O16   A    
C102  H17   S    
C138  H68   S    
C77   C95   S    
C128  H46   S    
O6    Zn1   S    
C20   C21   A    
C137  H73   S    
C133  C135  S    
C22   C23   A    
C76   C85   D    
C78   H80   S    
C78   C87   D    
C80   C97   S    
C133  H65   S    
C131  H55   S    
O7    Zn7   S    
C7    C8    A    
C136  H75   S    
C121  H31   S    
C116  H29   S    
C139  H82   S    
C35   C59   S    
C36   C37   A    
C127  H49   S    
C141  H76   S    
C75   C84   D    
C72   H1    S    
C57   C99   S    
C118  H23   S    
C34   H112  S    
C90   O5    A    
C59   C67   T    
C100  H13   S    
C9    C10   A    
C13   C56   S    
C76   C94   S    
C134  O9    A    
C2    O19   A    
C101  O6    A    
C125  H40   S    
C132  H67   S    
C126  H51   S    
O8    Zn6   S    
C39   C40   A    
C128  H48   S    
C75   H47   S    
C68   C100  S    
C29   C30   A    
C123  O8    A    
O35   Zn2   S    
C17   C18   A    
O20   Zn11  S    
O36   Zn3   S    
O43   Zn12  S    
O17   Zn11  S    
O31   Zn2   S    
C122  C124  S    
C3    C4    A    
O27   Zn4   S    
C135  H63   S    
C129  C130  S    
O24   Zn1   S    
C113  O41   A    
C12   C92   S    
C72   C81   D    
C136  C137  S    
C1    C98   S    
C39   C44   A    
C89   C98   D    
C67   C70   S    
C117  C118  S    
C5    C142  A    
C60   C69   T    
C81   C116  S    
C62   C71   T    
C34   C36   A    
C83   C122  S    
C10   C11   A    
C79   O34   A    
O47   Zn11  S    
C129  H59   S    
C126  H52   S    
C32   C95   S    
C110  O39   A    
C10   H93   S    
C49   C50   A    
O4    Zn10  S    
C14   C15   A    
C91   C99   D    
O1    Zn1   S    
C8    H90   S    
C61   C70   T    
C26   C94   S    
O39   Zn3   S    
C96   C105  D    
O40   Zn12  S    
C35   O22   A    
C41   C42   A    
C83   C113  S    
C77   H69   S    
O48   Zn9   S    
C107  O36   A    
C133  H64   S    
O45   Zn9   S    
C26   C27   A    
C28   C29   A    
C98   H102  S    
C30   C31   A    
C136  H74   S    
C24   O21   A    
C89   C142  S    
C51   H16   S    
C116  H28   S    
C139  H83   S    
C119  H37   S    
C120  H34   S    
C52   O25   A    
C57   O12   A    
C16   C17   A    
C141  H77   S    
C46   O24   A    
C1    O48   A    
C38   H5    S    
O12   Zn5   S    
C19   C93   S    
C135  H61   S    
C48   H12   S    
O46   Zn10  S    
C82   C119  S    
C1    O1    A    
C84   C111  S    
C106  H21   S    
C131  H54   S    
C132  H66   S    
C88   C107  S    
C15   H96   S    
C4    H87   S    
C56   C65   T    
C117  H27   S    
C36   H3    S    
C121  H30   S    
C86   C109  S    
C50   C51   A    
C5    H88   S    
O16   Zn10  S    
C130  H57   S    
C97   C106  D    
C48   C49   A    
C94   C103  D    
C101  C104  S    
C137  H72   S    
C115  O35   A    
C42   C43   A    
C35   O14   A    
C73   H25   S    
C127  C128  S    
C73   C82   D    
O29   Zn3   S    
O37   Zn4   S    
O30   Zn4   S    
C138  H70   S    
C103  H18   S    
C107  O27   A    
C3    C144  A    
O25   Zn7   S    
C93   C102  D    
C68   O3    A    
C119  C120  S    
C50   H15   S    
C24   O13   A    
C32   C33   A    
O21   Zn10  S    
C122  H43   S    
C22   H103  S    
C118  H24   S    
C37   H4    S    
C90   C103  S    
C112  O7    A    
C24   C58   S    
C114  O42   A    
C111  O31   A    
C142  C143  A    
C45   C97   S    
C43   H9    S    
C15   C16   A    
C2    O10   A    
O19   Zn8   S    
C7    H89   S    
C46   O15   A    
C125  H39   S    
C143  H84   S    
C120  H33   S    
C104  H19   S    
C68   O23   A    
C140  H81   S    
C79   O4    A    
C27   H106  S    
C113  O32   A    
C124  H41   S    
C76   H58   S    
C121  H32   S    
C109  O38   A    
C45   C51   A    
C6    C91   S    
C57   O2    A    
C116  C117  S    
C128  H45   S    
C69   C71   S    
C13   O20   A    
C58   C66   T    
C87   C108  S    
C8    C9    A    
C106  C123  S    
C32   C38   A    
C42   H8    S    
C101  O45   A    
C141  H78   S    
C109  O29   A    
C16   H97   S    
C53   O17   A    
C26   C31   A    
C9    H92   S    
C80   H91   S    
C130  H56   S    
O26   Zn6   S    
C30   H109  S    
O9    Zn1   S    
C82   C114  S    
C127  H50   S    
C132  C133  S    
C21   H101  S    
C118  H22   S    
C123  O47   A    
C88   C139  S    
C53   C62   S    
C47   C48   A    
C55   C64   T    
C81   C115  S    
C33   C34   A    
O11   Zn6   S    
O42   Zn2   S    
C40   C41   A    
C99   H2    S    
C12   C14   A    
C77   C86   D    
C134  O18   A    
C49   H14   S    
O32   Zn12  S    
O41   Zn2   S    
C95   C104  D    
C92   C100  D    
C114  O33   A    
C111  O40   A    
C17   H98   S    
C140  H79   S    
C137  C138  S    
O2    Zn8   S    
C72   C89   S    
C47   H11   S    
C23   C25   A    
C20   H100  S    
C19   C25   A    
C39   C96   S    
C74   H36   S    
C12   C18   A    
C27   C28   A    
C120  C121  S    
O3    Zn11  S    
C124  C125  S    
O13   Zn7   S    
