data_mof_unit_36341.cif
_audit_creation_date              2012-12-11T18:37:21-0500
_audit_creation_method            fapswitch 2.2
_symmetry_space_group_name_H-M    P1
_symmetry_Int_Tables_number       1
_space_group_crystal_system       triclinic
_cell_length_a                    8.206953
_cell_length_b                    14.319048
_cell_length_c                    26.965894
_cell_angle_alpha                 93.553252
_cell_angle_beta                  92.686975
_cell_angle_gamma                 88.335791
_cell_volume                      3158.26235069

loop_
_atom_site_label
_atom_site_type_symbol
_atom_type_description
_atom_site_fract_x
_atom_site_fract_y
_atom_site_fract_z
_atom_type_partial_charge
Ba1   Ba    Ba6+2 0.849670 0.455410 0.524690 1.643723
Ba2   Ba    Ba6+2 0.340150 0.544510 0.475310 1.635628
C1    C     C_3   0.645916 0.124421 0.668083 -0.375510
C2    C     C_3   0.637787 0.218262 0.644615 0.361631
C3    C     C_3   0.524080 0.691796 0.623235 0.305694
C4    C     C_3   0.497760 0.729658 0.676317 -0.380303
C5    C     C_3   0.086492 0.744051 0.333026 0.339958
C6    C     C_3   0.104045 0.769274 0.279626 -0.315150
C7    C     C_3   0.551489 0.794416 0.354482 0.361541
C8    C     C_3   0.520076 0.889077 0.332695 -0.363554
C9    C     C_R   0.009062 0.426736 0.179742 0.597477
C10   C     C_R   0.922571 0.587364 0.174401 0.573056
C11   C     C_2   0.766326 0.558512 0.269921 -0.085134
C12   C     C_3   0.193467 0.197497 0.662404 0.322615
C13   C     C_3   0.752146 0.591306 0.323784 -0.045436
C14   C     C_1   0.980985 0.484247 0.343163 0.034314
C15   C     C_2   0.021388 0.478028 0.295456 -0.104061
C16   C     C_2   0.906115 0.514610 0.255167 0.192844
C17   C     C_R   0.017943 0.500111 0.100227 -0.081762
C18   C     C_R   0.047863 0.421771 0.128740 -0.035535
C19   C     C_R   0.115639 0.340112 0.105487 -0.060717
C20   C     C_R   0.956976 0.583634 0.123471 -0.023859
C21   C     C_2   0.852980 0.533655 0.359070 -0.290931
C22   C     C_2   0.353954 0.480884 0.641579 -0.276582
C23   C     C_3   0.170007 0.169856 0.715491 -0.162083
C24   C     C_R   0.176294 0.415799 0.975790 0.023576
C25   C     C_R   0.024359 0.565362 0.967063 0.015955
C26   C     C_R   0.123002 0.491044 0.946355 0.032940
C27   C     C_R   0.276535 0.344402 0.953647 -0.101604
C28   C     C_R   0.320118 0.346071 0.904244 -0.066491
C29   C     C_R   0.265571 0.418856 0.874548 -0.031190
C30   C     C_R   0.166009 0.491151 0.895591 -0.083158
C31   C     C_R   0.108370 0.563329 0.865799 -0.044350
C32   C     C_R   0.158356 0.565541 0.816321 0.589008
C33   C     C_R   0.306898 0.420160 0.824080 0.584862
C34   C     C_3   0.163683 0.258031 0.423304 0.310469
C35   C     C_2   0.457394 0.481226 0.730287 -0.076399
C36   C     C_3   0.503084 0.487969 0.676536 -0.061550
C37   C     C_1   0.214846 0.518612 0.656058 0.044753
C38   C     C_2   0.173339 0.516215 0.703017 -0.085015
C39   C     C_2   0.300131 0.495715 0.743477 0.202163
C40   C     C_R   0.128217 0.414860 0.026167 0.019457
C41   C     C_R   0.050979 0.495640 0.048463 0.047517
C42   C     C_R   0.009532 0.573169 0.019675 0.015610
C43   C     C_R   0.156814 0.336968 0.055582 -0.102358
C44   C     C_R   0.937529 0.663307 0.095705 -0.063002
C45   C     C_3   0.166579 0.152475 0.412342 -0.383410
C46   C     C_R   0.940330 0.626035 0.933555 0.043916
C47   C     C_R   0.993604 0.628806 0.884896 -0.077098
C48   C     C_R   0.967138 0.658465 0.045160 -0.105732
C49   C     C_R   0.689311 0.064613 0.472177 -0.038137
C50   C     C_R   0.510021 0.198274 0.501359 0.050593
C51   C     C_R   0.372931 0.229574 0.526911 -0.283054
C52   C     C_R   0.273079 0.166634 0.547431 -0.002247
C53   C     C_R   0.317827 0.072052 0.546871 -0.149494
C54   C     C_R   0.459560 0.039319 0.523399 0.000282
C55   C     C_R   0.554460 0.101491 0.498625 -0.024100
C56   C     C_3   0.032177 0.741543 0.575052 0.307941
C57   C     C_R   0.639263 0.908072 0.497734 -0.020751
C58   C     C_R   0.733956 0.969141 0.472288 -0.002949
C59   C     C_R   0.683387 0.812024 0.496749 0.028842
C60   C     C_R   0.817384 0.777981 0.470826 -0.290976
C61   C     C_R   0.918280 0.838604 0.449223 0.018304
C62   C     C_R   0.875404 0.934076 0.448789 -0.141711
C63   C     C_R   0.503890 0.944494 0.523430 -0.039011
C64   C     C_3   0.031558 0.847332 0.585246 -0.388553
C65   C     C_3   0.658306 0.339656 0.379825 0.300414
C66   C     C_3   0.661349 0.315626 0.324144 -0.365002
H1    H     H_    0.747087 0.222463 0.622291 0.118534
H2    H     H_    0.254293 0.132705 0.383104 0.129042
H3    H     H_    0.203799 0.116044 0.446264 0.065865
H4    H     H_    0.043036 0.129392 0.399261 0.118002
H5    H     H_    0.908109 0.719287 0.563490 0.003077
H6    H     H_    0.115968 0.722634 0.544780 0.074876
H7    H     H_    0.941554 0.868791 0.613563 0.131540
H8    H     H_    0.998761 0.883024 0.550739 0.067582
H9    H     H_    0.154724 0.869691 0.599207 0.110319
H10   H     H_    0.781481 0.359969 0.393919 0.011037
H11   H     H_    0.570819 0.399188 0.386249 0.081801
H12   H     H_    0.759755 0.118426 0.691576 0.129883
H13   H     H_    0.754773 0.259614 0.316368 0.133771
H14   H     H_    0.691095 0.378205 0.304500 0.069501
H15   H     H_    0.539827 0.291227 0.309788 0.133886
H16   H     H_    0.526677 0.222062 0.619808 -0.051741
H17   H     H_    0.643699 0.066656 0.638614 0.076947
H18   H     H_    0.404108 0.670836 0.606103 0.029082
H19   H     H_    0.609045 0.630070 0.623808 0.032946
H20   H     H_    0.419793 0.794337 0.675982 0.130129
H21   H     H_    0.435918 0.677499 0.697045 0.073184
H22   H     H_    0.616896 0.746027 0.695663 0.124493
H23   H     H_    0.541017 0.118494 0.691964 0.115037
H24   H     H_    0.283293 0.183774 0.738683 0.113427
H25   H     H_    0.157480 0.678004 0.338796 0.091525
H26   H     H_    0.955582 0.733397 0.338665 -0.053556
H27   H     H_    0.224219 0.800339 0.275050 0.146947
H28   H     H_    0.095979 0.705056 0.254694 0.122413
H29   H     H_    0.006214 0.820291 0.268832 0.119031
H30   H     H_    0.685627 0.780738 0.355684 -0.066105
H31   H     H_    0.507999 0.798600 0.392991 0.078747
H32   H     H_    0.589611 0.943368 0.355236 0.070164
H33   H     H_    0.388444 0.908797 0.333026 0.150728
H34   H     H_    0.229482 0.272038 0.663897 0.003338
H35   H     H_    0.560177 0.886507 0.293858 0.122275
H36   H     H_    0.139538 0.448417 0.285602 0.132946
H37   H     H_    0.139290 0.278167 0.126076 0.120655
H38   H     H_    0.553873 0.470856 0.758496 0.105371
H39   H     H_    0.397721 0.289641 0.889343 0.118753
H40   H     H_    0.326708 0.287082 0.974082 0.068182
H41   H     H_    0.207711 0.271498 0.040621 0.068900
H42   H     H_    0.675521 0.583160 0.242872 0.118465
H43   H     H_    0.901697 0.730483 0.113161 0.121357
H44   H     H_    0.292552 0.152707 0.646511 -0.022948
H45   H     H_    0.936153 0.678602 0.860449 0.115234
H46   H     H_    0.047910 0.530465 0.712524 0.133993
H47   H     H_    0.967181 0.723518 0.027136 0.070506
H48   H     H_    0.839050 0.549843 0.398520 0.082959
H49   H     H_    0.362090 0.447341 0.604498 0.076829
H50   H     H_    0.338112 0.303115 0.528199 0.066129
H51   H     H_    0.240818 0.024172 0.563983 0.065430
H52   H     H_    0.953681 0.980686 0.431346 0.072283
H53   H     H_    0.850633 0.704282 0.470864 0.061802
H54   H     H_    0.761807 0.108996 0.451525 0.099297
H55   H     H_    0.071096 0.215279 0.731541 0.113138
H56   H     H_    0.429909 0.899767 0.543466 0.096921
H57   H     H_    0.288676 0.280953 0.433319 0.002597
H58   H     H_    0.083221 0.275372 0.454699 0.065625
N1    N     N_R   0.946354 0.509065 0.202376 -0.421642
N2    N     N_R   0.255554 0.493936 0.795488 -0.422874
O1    O     O_2   0.918080 0.549800 0.616640 -0.465830
O2    O     O_3   0.610996 0.260788 0.403149 -0.640439
O3    O     O_3   0.047083 0.185814 0.633948 -0.605064
O4    O     O_2   0.271610 0.450170 0.383330 -0.460619
O5    O     O_3   0.039630 0.450200 0.443530 -0.497933
O6    O     O_3   0.531440 0.620360 0.408460 -0.476132
O7    O     O_3   0.105909 0.300570 0.380473 -0.623843
O8    O     O_3   0.643350 0.612530 0.521650 -0.472632
O9    O     O_3   0.127390 0.668260 0.431510 -0.491918
O10   O     O_2   0.256740 0.834341 0.457338 -0.488148
O11   O     O_3   0.146356 0.816748 0.365444 -0.601252
O12   O     O_3   0.150070 0.549720 0.556460 -0.494651
O13   O     O_3   0.546340 0.387390 0.478340 -0.487613
O14   O     O_2   0.398940 0.728800 0.517420 -0.468986
O15   O     O_3   0.592038 0.762046 0.597540 -0.647529
O16   O     O_2   0.416530 0.543786 0.321321 -0.498262
O17   O     O_3   0.467613 0.724676 0.325144 -0.594168
O18   O     O_2   0.029170 0.357255 0.203632 -0.596981
O19   O     O_2   0.386800 0.354833 0.805492 -0.599732
O20   O     O_2   0.871940 0.661210 0.193853 -0.620736
O21   O     O_2   0.116383 0.632068 0.791996 -0.606336
O22   O     O_3   0.658250 0.379560 0.591530 -0.491318
O23   O     O_2   0.834109 0.423631 0.674004 -0.478925
O24   O     O_3   0.082490 0.699583 0.618801 -0.630295
O25   O     O_3   0.632037 0.290374 0.682266 -0.591414
O26   O     O_2   0.790750 0.271170 0.482550 -0.469261
O27   O     O_3   0.062300 0.331660 0.568480 -0.467855
O28   O     O_2   0.934179 0.166754 0.542285 -0.491990
P1    P     P_3+3 0.090020 0.577590 0.608380 0.996040
P2    P     P_3+3 0.614340 0.285150 0.467650 0.972483
P3    P     P_3+3 0.079986 0.210698 0.572611 0.943793
P4    P     P_3+3 0.099670 0.422330 0.391610 0.991590
P5    P     P_3+3 0.112511 0.790001 0.426405 0.943764
P6    P     P_3+3 0.658350 0.397805 0.656258 0.984639
P7    P     P_3+3 0.583967 0.729675 0.533894 0.936070
P8    P     P_3+3 0.540363 0.615861 0.343928 0.945831
C67   C     C_3   0.774685 0.673244 0.943576 -0.204381
C68   C     C_3   0.648520 0.602223 0.955412 -0.394178
H59   H     H_    0.639787 0.545785 0.925280 0.135957
H60   H     H_    0.681104 0.570723 0.991228 0.138787
H61   H     H_    0.526909 0.637686 0.958438 0.124498
H62   H     H_    0.779975 0.730462 0.972808 0.103263
H63   H     H_    0.725403 0.708020 0.910088 0.103492
C69   C     C_3   0.123742 0.066771 0.717988 -0.201423
C70   C     C_3   0.266337 0.997949 0.708560 -0.422608
H64   H     H_    0.306279 0.000124 0.669906 0.125749
H65   H     H_    0.370336 0.013847 0.735278 0.137262
H66   H     H_    0.226949 0.925804 0.713759 0.141165
H67   H     H_    0.080556 0.056978 0.755726 0.116935
H68   H     H_    0.021833 0.049167 0.690815 0.146373

loop_
_geom_bond_atom_site_label_1
_geom_bond_atom_site_label_2
_ccdc_geom_bond_type
C25   C46   A    
C69   H67   S    
C47   H45   S    
C53   C54   A    
C67   H63   S    
C67   C68   S    
C28   H39   S    
C14   P4    S    
C12   H34   S    
C7    H30   S    
C17   C18   A    
C6    H28   S    
C6    H29   S    
O1    P1    D    
C5    C6    S    
C10   N1    Am   
C53   H51   S    
C51   C52   A    
C69   C70   S    
C12   H44   S    
C65   H10   S    
C24   C40   A    
C22   H49   S    
O4    P4    D    
C11   C16   D    
C66   H13   S    
Ba1   P2    S    
C15   H36   S    
O26   P2    D    
Ba1   O1    S    
C28   C29   A    
O12   P1    S    
C43   H41   S    
C3    O15   S    
C1    H17   S    
C42   C48   A    
C54   C63   A    
C10   C20   A    
C22   C37   D    
C4    H20   S    
C54   C55   A    
C34   C45   S    
C1    H23   S    
C48   H47   S    
C63   H56   S    
Ba1   O27   S    
C52   P3    S    
O24   P1    S    
C25   C42   A    
C56   C64   S    
C38   H46   S    
C46   C67   S    
C34   H57   S    
C56   O24   S    
C14   C15   D    
C22   C36   S    
C27   H40   S    
C49   C55   A    
Ba1   O8    S    
C7    C8    S    
C13   C21   S    
C2    O25   S    
C21   H48   S    
C57   C58   A    
C7    H31   S    
C44   H43   S    
C37   P1    S    
C68   H60   S    
C66   H15   S    
C39   N2    S    
C33   N2    Am   
C6    H27   S    
Ba1   O5    S    
C1    H12   S    
O15   P7    S    
C2    H1    S    
C32   O21   D    
C17   C41   A    
C31   C32   A    
C19   C43   A    
C12   O3    S    
C70   H65   S    
C50   P2    S    
C5    H25   S    
C9    C18   A    
C57   C59   A    
Ba2   O5    S    
O27   P3    S    
C65   C66   S    
C13   P8    S    
O11   P5    S    
C17   C20   A    
C65   H11   S    
C37   C38   D    
C51   H50   S    
C8    H32   S    
C70   H64   S    
Ba2   O8    S    
O22   P6    S    
C40   C43   A    
C49   H54   S    
C9    N1    Am   
C41   C42   A    
C45   H2    S    
C35   C36   S    
C16   N1    S    
Ba2   O4    S    
C29   C30   A    
C2    H16   S    
C26   C30   A    
O23   P6    D    
C64   H8    S    
O9    P5    S    
C60   C61   A    
C15   C16   S    
Ba1   O22   S    
C33   O19   D    
O3    P3    S    
C23   H55   S    
C11   H42   S    
C45   H3    S    
Ba1   O12   S    
C68   H61   S    
C3    H18   S    
C23   C69   S    
Ba2   P4    S    
C46   C47   A    
C20   C44   A    
C14   C21   D    
C11   C13   S    
C68   H59   S    
Ba2   O14   S    
C29   C33   A    
C65   O2    S    
C40   C41   A    
C1    C2    S    
C34   O7    S    
O14   P7    D    
C50   C51   A    
C56   H6    S    
C70   H66   S    
C69   H68   S    
C67   H62   S    
C61   P5    S    
C5    H26   S    
C52   C53   A    
C8    H35   S    
C23   H24   S    
O7    P4    S    
C59   P7    S    
Ba2   O9    S    
C8    H33   S    
C34   H58   S    
Ba1   O26   S    
Ba2   O6    S    
C9    O18   D    
O17   P8    S    
O28   P3    D    
C4    H21   S    
C44   C48   A    
C24   C26   A    
C62   H52   S    
C58   C62   A    
O25   P6    S    
O2    P2    S    
O5    P4    S    
Ba2   O12   S    
C30   C31   A    
C10   O20   D    
Ba1   P1    S    
C66   H14   S    
C35   H38   S    
C4    H22   S    
C57   C63   A    
C5    O11   S    
C3    C4    S    
C64   H7    S    
Ba1   Ba2   S    
C7    O17   S    
O6    P8    S    
O10   P5    D    
C64   H9    S    
C12   C23   S    
C35   C39   D    
C59   C60   A    
C19   H37   S    
C45   H4    S    
Ba1   O13   S    
C50   C55   A    
C27   C28   A    
C61   C62   A    
C3    H19   S    
O13   P2    S    
C36   P6    S    
C18   C19   A    
C24   C27   A    
C32   N2    Am   
C25   C26   A    
Ba2   O13   S    
C38   C39   S    
C49   C58   A    
C31   C47   A    
C60   H53   S    
O16   P8    D    
C56   H5    S    
O8    P7    S    
