data_mof_unit_56711.cif
_audit_creation_date              2012-10-26T19:52:28-0400
_audit_creation_method            fapswitch 2.2
_symmetry_space_group_name_H-M    P1
_symmetry_Int_Tables_number       1
_space_group_crystal_system       triclinic
_cell_length_a                    9.566719
_cell_length_b                    10.816291
_cell_length_c                    13.583493
_cell_angle_alpha                 90.536696
_cell_angle_beta                  72.876577
_cell_angle_gamma                 89.751062
_cell_volume                      1343.17001428

loop_
_atom_site_label
_atom_site_type_symbol
_atom_type_description
_atom_site_fract_x
_atom_site_fract_y
_atom_site_fract_z
_atom_type_partial_charge
C1    C     C_R   0.498767 0.737628 0.502428 0.562705
C2    C     C_R   0.383220 0.530070 0.812843 0.001066
C3    C     C_R   0.372984 0.937388 0.505375 0.027075
C4    C     C_R   0.423381 0.509883 0.699540 0.529306
C5    C     C_R   0.492642 0.870632 0.515445 -0.038677
C6    C     C_R   0.600586 0.933597 0.547030 -0.098320
C7    C     C_R   0.598010 0.062794 0.554561 0.212456
C8    C     C_R   0.490045 0.129831 0.523486 -0.007336
C9    C     C_R   0.372143 0.064446 0.508692 -0.055534
C10   C     C_3   0.295160 0.075463 0.428030 -0.236898
C11   C     C_3   0.296571 0.934675 0.423510 0.135373
C12   C     C_R   0.443484 0.532826 0.977573 0.059325
C13   C     C_R   0.946061 0.405492 0.453983 0.172271
C14   C     C_R   0.903253 0.589645 0.549340 0.046653
C15   C     C_R   0.049838 0.589179 0.551817 0.328844
C16   C     C_R   0.497678 0.262624 0.506480 0.547419
C17   C     C_R   0.093743 0.405788 0.453482 0.133524
C18   C     C_3   0.145081 0.371413 0.341908 -0.279702
C19   C     C_3   0.986483 0.370410 0.342765 -0.272607
C20   C     C_R   0.577689 0.502033 0.300945 0.542842
C21   C     C_R   0.796796 0.453543 0.025489 -0.148547
C22   C     C_R   0.621015 0.503721 0.188623 -0.002516
C23   C     C_R   0.490166 0.535473 0.868142 0.017065
C24   C     C_R   0.234315 0.538143 0.868032 -0.132920
C25   C     C_R   0.190033 0.542080 0.974969 -0.150096
C26   C     C_R   0.291995 0.533462 0.029166 -0.072675
C27   C     C_R   0.550677 0.521975 0.031138 0.075852
C28   C     C_R   0.696462 0.491019 0.974965 0.013790
C29   C     C_R   0.742777 0.506852 0.869416 -0.134564
C30   C     C_R   0.642902 0.541441 0.819081 -0.110753
C31   C     C_R   0.521031 0.545793 0.137230 0.206647
C32   C     C_R   0.757195 0.455294 0.132187 -0.169073
Cu1   Cu    Cu3+1 0.359330 0.500020 0.500010 0.979206
Cu2   Cu    Cu3+1 0.640670 0.499980 0.499990 0.940626
H1    H     H_    0.833861 0.420851 0.170273 0.123946
H2    H     H_    0.946632 0.276839 0.330427 0.144692
H3    H     H_    0.904677 0.420908 0.982098 0.117062
H4    H     H_    0.151054 0.538450 0.828560 0.129819
H5    H     H_    0.248930 0.522481 0.111353 0.170375
H6    H     H_    0.075220 0.547584 0.016888 0.121763
H7    H     H_    0.690953 0.574994 0.742871 0.153390
H8    H     H_    0.688009 0.883123 0.564878 0.160264
H9    H     H_    0.659913 0.193154 0.629679 0.343769
H10   H     H_    0.481518 0.923701 0.311347 0.327741
H11   H     H_    0.164246 0.652611 0.635202 0.364916
H12   H     H_    0.183291 0.114966 0.459974 0.134893
H13   H     H_    0.430989 0.671297 0.239491 0.380395
H14   H     H_    0.363675 0.120069 0.356775 0.141851
H15   H     H_    0.186161 0.892592 0.449791 0.197070
H16   H     H_    0.830454 0.663598 0.587608 0.131206
H17   H     H_    0.208795 0.445829 0.293315 0.188837
H18   H     H_    0.197263 0.278620 0.327880 0.124674
H19   H     H_    0.960650 0.444445 0.294642 0.146978
H20   H     H_    0.857829 0.499899 0.826589 0.117518
N1    N     N_R   0.852320 0.499070 0.499340 -0.270759
N2    N     N_R   0.148230 0.499110 0.499340 -0.236227
O1    O     O_R   0.381190 0.680360 0.500000 -0.465719
O2    O     O_3   0.382927 0.885841 0.328489 -0.692822
O3    O     O_3   0.089084 0.684131 0.605812 -0.723114
O4    O     O_3   0.404546 0.622144 0.185874 -0.707106
O5    O     O_R   0.618780 0.680320 0.499990 -0.525792
O6    O     O_R   0.323230 0.500000 0.650990 -0.534130
O7    O     O_R   0.560820 0.499960 0.650980 -0.524896
O8    O     O_R   0.381220 0.319680 0.500010 -0.500565
O9    O     O_R   0.618810 0.319640 0.500000 -0.482661
O10   O     O_R   0.439180 0.500040 0.349020 -0.487043
O11   O     O_R   0.676770 0.500000 0.349010 -0.505342
O12   O     O_3   0.704051 0.118665 0.589280 -0.686812

loop_
_geom_bond_atom_site_label_1
_geom_bond_atom_site_label_2
_ccdc_geom_bond_type
C31   O4    S    
Cu2   O11   S    
C1    O5    A    
C2    C4    S    
C23   C30   A    
C30   H7    S    
C10   H12   S    
C6    C7    A    
C11   H15   S    
C1    O1    A    
C18   H17   S    
C11   O2    S    
C9    C10   S    
C20   O11   A    
C24   H4    S    
C8    C9    A    
C12   C23   A    
C13   C17   A    
C10   C11   S    
C15   N2    A    
C19   H19   S    
Cu1   N2    S    
C17   C18   S    
H13   O4    S    
C18   H18   S    
Cu2   N1    S    
C8    C16   S    
C10   H14   S    
C17   N2    A    
C14   H16   S    
C22   C32   A    
Cu1   O8    S    
C3    C9    A    
Cu2   O9    S    
C20   O10   A    
C28   C29   A    
C21   C28   A    
C20   C22   S    
Cu1   O10   S    
C14   N1    A    
C2    C23   A    
C19   H2    S    
C25   H6    S    
C2    C24   A    
C5    C6    A    
C21   C32   A    
C1    C5    S    
C26   H5    S    
Cu1   O6    S    
C3    C11   S    
C29   H20   S    
C13   C19   S    
C12   C27   A    
C29   C30   A    
C4    O7    A    
C32   H1    S    
C4    O6    A    
C7    C8    A    
Cu1   Cu2   S    
C24   C25   A    
C21   H3    S    
H11   O3    S    
C18   C19   S    
C22   C31   A    
H10   O2    S    
C27   C28   A    
C14   C15   A    
Cu2   O7    S    
Cu1   O1    S    
C16   O9    A    
C16   O8    A    
C3    C5    A    
C25   C26   A    
C27   C31   A    
Cu2   O5    S    
C7    O12   S    
C12   C26   A    
H9    O12   S    
C13   N1    A    
C15   O3    S    
C6    H8    S    
