data_mof_unit_28152.cif
_audit_creation_date              2012-12-10T17:29:23-0500
_audit_creation_method            fapswitch 2.2
_symmetry_space_group_name_H-M    P1
_symmetry_Int_Tables_number       1
_space_group_crystal_system       triclinic
_cell_length_a                    12.098528
_cell_length_b                    12.835563
_cell_length_c                    13.08577
_cell_angle_alpha                 86.907092
_cell_angle_beta                  114.334252
_cell_angle_gamma                 92.919466
_cell_volume                      1847.95231664

loop_
_atom_site_label
_atom_site_type_symbol
_atom_type_description
_atom_site_fract_x
_atom_site_fract_y
_atom_site_fract_z
_atom_type_partial_charge
C1    C     C_R   0.474671 0.300341 0.489449 0.950389
C2    C     C_R   0.619194 0.516154 0.832910 -0.140280
C3    C     C_R   0.522521 0.811546 0.473403 -0.076692
C4    C     C_R   0.569335 0.503199 0.709646 0.938237
C5    C     C_R   0.453026 0.190364 0.467221 -0.151819
C6    C     C_R   0.348915 0.031191 0.485660 -0.163703
C7    C     C_R   0.360671 0.138043 0.489421 -0.152349
C8    C     C_R   0.526917 0.136380 0.428574 -0.092030
C9    C     C_R   0.523896 0.027058 0.437039 0.099464
C10   C     C_R   0.433569 0.975749 0.465765 0.152028
C11   C     C_R   0.430285 0.868929 0.477824 -0.201390
C12   C     C_R   0.553259 0.510483 0.985125 0.081641
C13   C     C_R   0.610716 0.859882 0.442362 -0.183045
C14   C     C_R   0.609040 0.966920 0.420435 -0.153881
C15   C     C_R   0.009323 0.605719 0.403084 -0.277384
C16   C     C_R   0.519216 0.700418 0.494360 0.906878
C17   C     C_R   0.127321 0.593121 0.409286 0.005341
C18   C     C_R   0.159978 0.456055 0.546081 0.027579
C19   C     C_R   0.035662 0.457351 0.531439 -0.053225
C20   C     C_R   0.962381 0.538008 0.464834 0.081662
C21   C     C_R   0.843937 0.548629 0.461257 -0.050579
C22   C     C_R   0.865686 0.396131 0.578239 0.053973
C23   C     C_R   0.541874 0.551645 0.879313 0.008624
C24   C     C_R   0.982333 0.380911 0.581314 -0.293860
C25   C     C_R   0.431901 0.505206 0.290321 0.885888
C26   C     C_R   0.267786 0.609684 0.989959 -0.020563
C27   C     C_R   0.387777 0.519342 0.167931 -0.165186
C28   C     C_R   0.734470 0.479180 0.906908 -0.026018
C29   C     C_R   0.752689 0.448912 0.016669 -0.187384
C30   C     C_R   0.661320 0.458746 0.053464 -0.178469
C31   C     C_2   0.198215 0.605784 0.147323 0.525749
C32   C     C_2   0.597979 0.193983 0.372523 0.905104
C33   C     C_2   0.815708 0.314173 0.632800 0.555067
C34   C     C_R   0.459618 0.527780 0.020505 0.071940
C35   C     C_2   0.040882 0.278891 0.625997 0.932779
C36   C     C_2   0.247901 0.401636 0.647007 0.975784
C37   C     C_2   0.152655 0.657373 0.908852 0.431194
C38   C     C_2   0.840518 0.480976 0.877330 1.024690
C39   C     C_2   0.477405 0.711239 0.748663 0.915705
C40   C     C_R   0.361330 0.592043 0.954387 0.056800
C41   C     C_R   0.364461 0.645351 0.859351 -0.223102
C42   C     C_R   0.457096 0.630301 0.825009 -0.005703
C43   C     C_R   0.463799 0.485593 0.122049 -0.203606
C44   C     C_R   0.284963 0.577784 0.100869 -0.045809
H1    H     H_    0.679519 0.814981 0.433523 0.164045
H2    H     H_    0.683016 0.432302 0.138852 0.145998
H3    H     H_    0.838668 0.418248 0.075035 0.173649
H4    H     H_    0.357166 0.831034 0.494579 0.209397
H5    H     H_    0.146364 0.544892 0.170501 0.052871
H6    H     H_    0.760381 0.227986 0.367537 0.336678
H7    H     H_    0.818248 0.232748 0.616060 0.092980
H8    H     H_    0.038124 0.241781 0.476985 0.299094
H9    H     H_    0.321854 0.387534 0.815934 0.357309
H10   H     H_    0.123952 0.648647 0.819446 0.068239
H11   H     H_    0.926553 0.549004 0.786716 0.338466
H12   H     H_    0.278636 0.991616 0.505779 0.178203
H13   H     H_    0.599227 0.796960 0.708178 0.347378
H14   H     H_    0.677417 0.001012 0.394940 0.199152
H15   H     H_    0.299565 0.179197 0.513192 0.231094
H16   H     H_    0.787933 0.611359 0.410894 0.128152
H17   H     H_    0.954566 0.667403 0.349008 0.161216
H18   H     H_    0.160833 0.644964 0.359854 0.169160
H19   H     H_    0.300690 0.705956 0.816853 0.171788
H20   H     H_    0.531793 0.431291 0.172045 0.196471
N1    N     N_R   0.798200 0.480260 0.519790 -0.106606
N2    N     N_R   0.201820 0.519740 0.480210 -0.141072
O1    O     O_R   0.579910 0.341070 0.505280 -0.615109
O2    O     O_2   0.545934 0.253427 0.292526 -0.637419
O3    O     O_R   0.723220 0.182782 0.411909 -0.848139
O4    O     O_2   0.779082 0.334799 0.702674 -0.543173
O5    O     O_2   0.067055 0.251876 0.723927 -0.521190
O6    O     O_R   0.065801 0.212983 0.556998 -0.743949
O7    O     O_2   0.301272 0.326638 0.638937 -0.598623
O8    O     O_R   0.262453 0.432090 0.752787 -0.806722
O9    O     O_2   0.088640 0.706559 0.939258 -0.483177
O10   O     O_2   0.920137 0.417459 0.921645 -0.606600
O11   O     O_R   0.853219 0.558743 0.803544 -0.731992
O12   O     O_R   0.388440 0.353740 0.492580 -0.586343
O13   O     O_2   0.392945 0.762999 0.684449 -0.649013
O14   O     O_R   0.594916 0.733930 0.756547 -0.789848
O15   O     O_R   0.643280 0.490550 0.663120 -0.527712
O16   O     O_R   0.451810 0.503220 0.650420 -0.623179
O17   O     O_R   0.611560 0.646260 0.507420 -0.612183
O18   O     O_R   0.420090 0.658930 0.494720 -0.615823
O19   O     O_R   0.548190 0.496780 0.349580 -0.610167
O20   O     O_R   0.356720 0.509450 0.336880 -0.645744
O21   O     O_2   0.188396 0.696687 0.164491 -0.530451
Zn1   Zn    Zn3+2 0.627850 0.491540 0.508480 1.020319
Zn2   Zn    Zn3+2 0.372150 0.508460 0.491520 0.992134

loop_
_geom_bond_atom_site_label_1
_geom_bond_atom_site_label_2
_ccdc_geom_bond_type
C41   C42   A    
H9    O8    S    
C26   C44   A    
C38   O10   D    
C12   C23   A    
O1    Zn1   S    
O16   Zn2   S    
C29   H3    S    
C1    C5    S    
C28   C29   A    
H6    O3    S    
H11   O11   S    
C16   O18   A    
C18   C19   A    
C27   C44   A    
C4    O15   A    
C19   C20   A    
C8    C9    A    
N2    Zn2   S    
C9    C10   A    
C3    C13   A    
C32   O2    D    
C12   C30   A    
O17   Zn1   S    
C37   O9    D    
C35   O5    D    
C13   C14   A    
C1    O12   A    
H13   O14   S    
C11   H4    S    
C31   H5    S    
C7    H15   S    
C43   H20   S    
C39   C42   S    
O12   Zn2   S    
C15   C20   A    
C14   H14   S    
C24   C35   S    
C31   O21   D    
C31   C44   S    
C8    C32   S    
C21   H16   S    
C10   C11   A    
C5    C7    A    
C16   O17   A    
C39   O13   D    
C2    C4    S    
C9    C14   A    
C22   N1    A    
C29   C30   A    
H8    O6    S    
C17   H18   S    
C28   C38   S    
C25   O19   A    
C15   H17   S    
C23   C42   A    
C32   O3    S    
C36   O8    S    
C33   O4    D    
C37   H10   S    
C40   C41   A    
C35   O6    S    
C25   C27   S    
C22   C24   A    
C18   N2    A    
O18   Zn2   S    
C41   H19   S    
C12   C34   A    
N1    Zn1   S    
O19   Zn1   S    
C15   C17   A    
C22   C33   S    
C21   N1    A    
C30   H2    S    
C34   C43   A    
C6    H12   S    
O20   Zn2   S    
C6    C10   A    
C5    C8    A    
C26   C37   S    
C6    C7    A    
C38   O11   S    
C33   H7    S    
C39   O14   S    
C19   C24   A    
C13   H1    S    
C26   C40   A    
C25   O20   A    
C1    O1    A    
C17   N2    A    
O15   Zn1   S    
C3    C11   A    
C36   O7    D    
C27   C43   A    
C4    O16   A    
C20   C21   A    
C2    C23   A    
C34   C40   A    
C2    C28   A    
C18   C36   S    
C3    C16   S    
