data_mof_unit_39878.cif
_audit_creation_date              2012-12-11T16:31:25-0500
_audit_creation_method            fapswitch 2.2
_symmetry_space_group_name_H-M    P1
_symmetry_Int_Tables_number       1
_space_group_crystal_system       triclinic
_cell_length_a                    6.997132
_cell_length_b                    18.272532
_cell_length_c                    20.203116
_cell_angle_alpha                 68.283979
_cell_angle_beta                  91.279526
_cell_angle_gamma                 91.402743
_cell_volume                      2398.78859706

loop_
_atom_site_label
_atom_site_type_symbol
_atom_type_description
_atom_site_fract_x
_atom_site_fract_y
_atom_site_fract_z
_atom_type_partial_charge
O1    O     O_R   0.488990 0.443920 0.942160 -0.534155
O2    O     O_R   0.823840 0.406530 0.087600 -0.530429
O3    O     O_R   0.999650 0.556080 0.057840 -0.527730
C1    C     C_R   0.655177 0.383003 0.114518 0.939557
O4    O     O_R   0.818390 0.434590 0.944530 -0.519691
O5    O     O_R   0.994160 0.584350 0.913750 -0.546708
C2    C     C_R   0.647353 0.420808 0.923979 0.790799
O6    O     O_R   0.494480 0.415650 0.086250 -0.535560
O7    O     O_3   0.662600 0.549100 0.990070 -0.375803
V1    V     V_3+5 0.935320 0.490890 0.001840 1.619109
O8    O     O_R   0.324240 0.593470 0.912400 -0.531081
C3    C     C_R   0.155400 0.617475 0.885664 0.894907
O9    O     O_R   0.329690 0.565410 0.055470 -0.514991
C4    C     C_R   0.163429 0.578549 0.076627 0.755027
V2    V     V_3+5 0.435990 0.509110 0.998160 1.622742
O10   O     O_3   0.158840 0.450900 0.009930 -0.375555
C5    C     C_3   0.991386 0.669479 0.268818 0.375466
C6    C     C_3   0.344626 0.714634 0.241217 0.922176
C7    C     C_3   0.335863 0.765295 0.289825 0.727311
C8    C     C_1   0.106886 0.876171 0.377445 -0.034188
C9    C     C_3   0.142528 0.708171 0.207979 -0.467476
C10   C     C_3   0.992634 0.716271 0.320983 0.816217
C11   C     C_3   0.124547 0.792079 0.291738 -0.412778
C12   C     C_3   0.060373 0.843626 0.212679 0.549378
C13   C     C_3   0.074952 0.793589 0.163908 0.456103
C14   C     C_1   0.113173 0.838559 0.338951 0.264470
C15   C     C_1   0.154228 0.662599 0.159957 0.209432
C16   C     C_1   0.159853 0.624608 0.121736 -0.106262
H1    H     H_    0.934313 0.790256 0.138352 0.132895
C17   C     C_R   0.151825 0.780647 0.880459 0.226487
C18   C     C_R   0.117451 0.856508 0.879995 0.247166
C19   C     C_R   0.080363 0.918305 0.815647 0.507072
C20   C     C_R   0.081993 0.906802 0.750710 0.174974
C21   C     C_R   0.111424 0.829687 0.749806 -0.112584
C22   C     C_R   0.136432 0.764838 0.816088 -0.101359
C23   C     C_R   0.117546 0.816238 0.684448 -0.029623
C24   C     C_R   0.135126 0.738450 0.685027 -0.213057
C25   C     C_R   0.147935 0.672691 0.751167 -0.118655
C26   C     C_R   0.147730 0.686159 0.816642 -0.021835
C27   C     C_R   0.138218 0.724336 0.620213 0.377636
C28   C     C_R   0.153700 0.648965 0.620313 0.588750
C29   C     C_R   0.165557 0.585097 0.683597 0.455424
C30   C     C_R   0.162550 0.594941 0.749410 0.125757
C31   C     C_R   0.642083 0.220472 0.121638 0.493450
C32   C     C_R   0.631438 0.143686 0.122866 0.207989
C33   C     C_R   0.615205 0.080646 0.188052 0.476809
C34   C     C_R   0.611195 0.093964 0.251477 0.420970
C35   C     C_R   0.623109 0.171870 0.252004 -0.226297
C36   C     C_R   0.637414 0.236586 0.185477 -0.198431
C37   C     C_R   0.619333 0.185912 0.316902 -0.017194
C38   C     C_R   0.625791 0.264964 0.315567 -0.103594
C39   C     C_R   0.640800 0.329548 0.248658 -0.191240
C40   C     C_R   0.645794 0.315226 0.183926 -0.040357
C41   C     C_R   0.617289 0.281747 0.379401 0.180853
C42   C     C_R   0.626165 0.360162 0.375939 0.456301
C43   C     C_R   0.643134 0.422727 0.310650 0.247052
C44   C     C_R   0.650849 0.407789 0.248168 0.457879
O11   O     O_R   0.770890 0.084490 0.414040 -0.539702
O12   O     O_R   0.445980 0.065450 0.555510 -0.536001
O13   O     O_R   0.270670 0.915620 0.586180 -0.540786
C45   C     C_R   0.616585 0.077315 0.577716 0.742204
O14   O     O_R   0.441480 0.093500 0.412450 -0.534504
O15   O     O_R   0.266140 0.943870 0.442100 -0.518824
C46   C     C_R   0.610205 0.117238 0.385726 0.916055
O16   O     O_R   0.775410 0.056240 0.558120 -0.526869
O17   O     O_3   0.602660 0.950990 0.510100 -0.365691
V3    V     V_3+5 0.329740 0.009100 0.498130 1.602912
O18   O     O_R   0.936120 0.934420 0.444240 -0.515344
C47   C     C_R   0.102587 0.921498 0.423104 0.813286
O19   O     O_R   0.940610 0.906370 0.587310 -0.529573
C48   C     C_R   0.109308 0.883811 0.614961 0.925774
V4    V     V_3+5 0.829110 0.990690 0.501470 1.639523
O20   O     O_3   0.106080 0.049010 0.489880 -0.387929
C49   C     C_3   0.839892 0.241816 0.715636 0.525164
C50   C     C_3   0.493077 0.274084 0.679081 0.675685
C51   C     C_3   0.474116 0.319343 0.732320 0.488384
C52   C     C_1   0.632080 0.373838 0.879718 -0.068679
C53   C     C_3   0.636913 0.204511 0.710939 -0.292136
C54   C     C_3   0.827151 0.295363 0.762543 0.693060
C55   C     C_3   0.624514 0.287572 0.795415 -0.300053
C56   C     C_3   0.584706 0.197150 0.839727 0.677026
C57   C     C_3   0.570432 0.150321 0.787916 0.677890
C58   C     C_1   0.623605 0.334809 0.842309 0.325215
C59   C     C_1   0.639291 0.157932 0.663740 0.330052
C60   C     C_1   0.631317 0.121093 0.624556 -0.153626
O21   O     O_3   0.057176 0.668069 0.389525 -0.565953
H2    H     H_    0.951415 0.630645 0.412486 0.398082
O22   O     O_3   0.806071 0.673624 0.238788 -0.546794
H3    H     H_    0.801990 0.642754 0.207407 0.356631
F1    F     F_    0.808215 0.738934 0.328023 -0.582632
O23   O     O_3   0.182085 0.910287 0.184794 -0.490297
H4    H     H_    0.151499 0.947705 0.208133 0.352181
F2    F     F_    0.180383 0.512722 0.680432 -0.634436
O24   O     O_3   0.205292 0.721610 0.943530 -0.654633
H5    H     H_    0.240799 0.743459 0.980293 0.354360
O25   O     O_3   0.119048 0.868040 0.944010 -0.576989
H6    H     H_    0.094701 0.923930 0.935682 0.400889
F3    F     F_    0.043828 0.990861 0.816121 -0.622499
O26   O     O_3   0.050212 0.970396 0.687945 -0.647192
H7    H     H_    0.038945 0.019821 0.696929 0.367602
F4    F     F_    0.125167 0.782597 0.555152 -0.676750
F5    F     F_    0.156565 0.637677 0.557599 -0.539981
O27   O     O_3   0.032088 0.589568 0.308301 -0.609474
H8    H     H_    0.017850 0.559408 0.276495 0.330898
O28   O     O_3   0.174468 0.529235 0.811758 -0.637865
H9    H     H_    0.183687 0.480567 0.801354 0.361492
O29   O     O_3   0.652231 0.500215 0.305485 -0.562727
H10   H     H_    0.648215 0.502562 0.353627 0.394540
F6    F     F_    0.657176 0.278521 0.056489 -0.679184
O30   O     O_3   0.636825 0.132795 0.058810 -0.545068
H11   H     H_    0.628129 0.075753 0.067679 0.396278
F7    F     F_    0.602344 0.005387 0.190559 -0.535243
F8    F     F_    0.593280 0.028875 0.311820 -0.647458
O31   O     O_3   0.599085 0.221276 0.444890 -0.654916
H12   H     H_    0.588765 0.242321 0.483298 0.353441
F9    F     F_    0.618639 0.375653 0.436689 -0.603221
F10   F     F_    0.670066 0.472102 0.187193 -0.673845
O32   O     O_3   0.862807 0.375273 0.720460 -0.568963
H13   H     H_    0.001274 0.386101 0.722752 0.397618
F11   F     F_    0.468458 0.752461 0.185734 -0.530242
O33   O     O_3   0.896348 0.288024 0.645765 -0.535217
H14   H     H_    0.021247 0.313316 0.648595 0.377623
O34   O     O_3   0.314066 0.244846 0.666092 -0.617465
H15   H     H_    0.318465 0.238553 0.619403 0.343542
F12   F     F_    0.559207 0.326787 0.613880 -0.561503
O35   O     O_3   0.506901 0.400573 0.695358 -0.526080
H16   H     H_    0.404375 0.419458 0.658519 0.414703
O36   O     O_3   0.290423 0.311097 0.760658 -0.607259
H17   H     H_    0.249711 0.255497 0.774897 0.388345
F13   F     F_    0.685652 0.084405 0.813697 -0.577982
O37   O     O_3   0.381812 0.123188 0.784299 -0.594606
H18   H     H_    0.358024 0.077758 0.829337 0.393974
F14   F     F_    0.734000 0.166562 0.888081 -0.544941
O38   O     O_3   0.975271 0.181501 0.743257 -0.559926
H19   H     H_    0.968749 0.158647 0.795828 0.418823
F15   F     F_    0.958470 0.272799 0.818874 -0.625085
O39   O     O_3   0.420710 0.639296 0.277696 -0.562307
H20   H     H_    0.357237 0.614171 0.324105 0.348412
O40   O     O_3   0.416146 0.185870 0.879490 -0.599293
H21   H     H_    0.444927 0.200844 0.921170 0.371992
O41   O     O_3   0.404900 0.721980 0.359126 -0.573521
H22   H     H_    0.439665 0.759933 0.382262 0.372854
F16   F     F_    0.453899 0.831528 0.261412 -0.525026
F17   F     F_    0.197017 0.830292 0.107469 -0.514422
O42   O     O_3   0.872608 0.871192 0.211277 -0.546892
H23   H     H_    0.779142 0.830226 0.209998 0.407574

loop_
_geom_bond_atom_site_label_1
_geom_bond_atom_site_label_2
_ccdc_geom_bond_type
C31   C36   A    
C42   C43   A    
O35   H16   S    
C33   F7    S    
C1    C40   S    
C6    C9    S    
C37   C46   S    
C28   C29   A    
C41   C42   A    
O2    C1    A    
C1    O6    A    
O36   H17   S    
O31   H12   S    
O34   H15   S    
C32   C33   A    
C28   F5    S    
C54   F15   S    
C17   C22   A    
C50   O34   S    
C23   C24   A    
C21   C22   A    
C24   C27   A    
C12   O42   S    
O5    C3    A    
C17   C18   A    
C42   F9    S    
C52   C58   T    
V2    O10   S    
C29   F2    S    
C54   O32   S    
C41   O31   S    
C5    O22   S    
C51   O35   S    
C43   C44   A    
C56   O40   S    
C6    C7    S    
C30   O28   S    
C11   C14   S    
O32   H13   S    
O14   C46   A    
O12   V3    S    
C27   F4    S    
O30   H11   S    
O8    V2    S    
O17   V4    S    
O15   C47   A    
O13   V3    S    
C19   F3    S    
O18   C47   A    
O29   H10   S    
O19   C48   A    
V3    O20   S    
C57   F13   S    
O7    V1    S    
C23   C48   S    
C2    C52   S    
C31   F6    S    
C35   C37   A    
O17   V3    S    
C9    C15   S    
C7    O41   S    
O1    C2    A    
O9    C4    A    
O11   C46   A    
C55   C58   S    
C56   C57   S    
C13   H1    S    
O15   V3    S    
O12   C45   A    
C38   C39   A    
C34   C35   A    
C12   C13   S    
O23   H4    S    
O4    C2    A    
C32   O30   S    
V4    O20   S    
O13   C48   A    
C5    C9    S    
C50   F12   S    
C6    O39   S    
C22   C26   A    
C50   C51   S    
C43   O29   S    
C24   C25   A    
C45   O16   A    
C53   C57   S    
O26   H7    S    
O18   V4    S    
O25   H6    S    
C37   C38   A    
C10   F1    S    
C59   C60   T    
O33   H14   S    
O3    C4    A    
C45   C60   S    
O1    V2    S    
O14   V3    S    
C35   C36   A    
O6    V2    S    
C49   C54   S    
O9    V2    S    
C51   O36   S    
C8    C47   S    
C13   F17   S    
C29   C30   A    
O37   H18   S    
O2    V1    S    
C12   O23   S    
C6    F11   S    
O42   H23   S    
O27   H8    S    
C39   C40   A    
C7    C11   S    
C44   F10   S    
O39   H20   S    
C34   F8    S    
C9    C13   S    
C33   C34   A    
C27   C28   A    
C7    F16   S    
O21   H2    S    
C18   C19   A    
C31   C32   A    
C51   C55   S    
C55   C56   S    
O5    V1    S    
O40   H21   S    
C56   F14   S    
O38   H19   S    
O16   V4    S    
O28   H9    S    
C5    C10   S    
C38   C41   A    
C4    C16   S    
C19   C20   A    
C3    C26   S    
O7    V2    S    
O4    V1    S    
C17   O24   S    
O3    V1    S    
V1    O10   S    
O41   H22   S    
O11   V4    S    
C25   C26   A    
C8    C14   T    
C36   C40   A    
C49   O38   S    
C20   C21   A    
C21   C23   A    
C10   O21   S    
C5    O27   S    
O24   H5    S    
C50   C53   S    
C39   C44   A    
C11   C12   S    
C54   C55   S    
C53   C59   S    
C25   C30   A    
C49   O33   S    
O22   H3    S    
C49   C53   S    
C15   C16   T    
C10   C11   S    
O19   V4    S    
C20   O26   S    
C57   O37   S    
C18   O25   S    
O8    C3    A    
