data_mof_unit_32901.cif
_audit_creation_date              2013-03-05T15:39:57-0500
_audit_creation_method            fapswitch 2.2
_symmetry_space_group_name_H-M    P1
_symmetry_Int_Tables_number       1
_space_group_crystal_system       triclinic
_cell_length_a                    10.846679
_cell_length_b                    8.703138
_cell_length_c                    7.574172
_cell_angle_alpha                 103.660454
_cell_angle_beta                  94.593404
_cell_angle_gamma                 94.241533
_cell_volume                      689.354598187

loop_
_atom_site_label
_atom_site_type_symbol
_atom_site_description
_atom_site_fract_x
_atom_site_fract_y
_atom_site_fract_z
_atom_type_partial_charge
O1    O     O_R   0.508930 0.286130 0.619780 -0.570981
O2    O     O_R   0.485720 0.256780 0.308360 -0.586067
C1    C     C_R   0.496011 0.199839 0.452815 0.832536
O3    O     O_R   0.333540 0.514670 0.655670 -0.556935
O4    O     O_R   0.310330 0.485320 0.344250 -0.560325
C2    C     C_R   0.265390 0.493931 0.500737 0.830830
Cu1   Cu    Cu3+1 0.513740 0.517380 0.684380 1.132538
Cu2   Cu    Cu3+1 0.486260 0.482620 0.315620 1.122611
O5    O     O_R   0.514280 0.743220 0.691640 -0.552273
O6    O     O_R   0.491070 0.713870 0.380220 -0.552611
O7    O     O_R   0.689670 0.514680 0.655750 -0.533436
O8    O     O_R   0.666460 0.485330 0.344330 -0.526818
C3    C     C_R   0.503575 0.800134 0.547250 0.874080
C4    C     C_R   0.734249 0.499811 0.498883 0.846849
C5    C     C_2   0.919834 0.423905 0.357518 -0.103587
C6    C     C_2   0.867198 0.506312 0.499193 -0.247837
H1    H     H_    0.862958 0.349430 0.239543 0.198207
H2    H     H_    0.921081 0.581924 0.619002 0.153278
C7    C     C_2   0.054536 0.434978 0.352536 -0.137863
C8    C     C_2   0.132397 0.478218 0.505657 -0.281321
H3    H     H_    0.089543 0.404085 0.219574 0.220408
H4    H     H_    0.099256 0.495738 0.639614 0.185739
C9    C     C_2   0.493954 0.031060 0.427455 -0.298871
H5    H     H_    0.482665 0.957693 0.288403 0.203138
C10   C     C_2   0.505718 0.968915 0.572626 -0.299600
H6    H     H_    0.517157 0.042264 0.711663 0.205387
N1    N     N_2   0.465540 0.456420 0.038510 0.026209
N2    N     N_2   0.534460 0.543580 0.961490 0.082227
N3    N     N_R   0.350524 0.397130 0.944693 0.249032
O9    O     O_R   0.330246 0.246099 0.867660 -0.371815
O10   O     O_R   0.255877 0.479284 0.977649 -0.367173
S1    S     S_3+6 0.680234 0.639358 0.053806 0.141525
O11   O     O_2   0.685382 0.740233 0.244334 -0.293005
O12   O     O_2   0.772343 0.517838 0.043980 -0.312497
O13   O     O_3   0.724771 0.764123 0.926779 -0.505722
H7    H     H_    0.814723 0.793301 0.964071 0.354147

loop_
_geom_bond_atom_site_label_1
_geom_bond_atom_site_label_2
_geom_bond_distance
_ccdc_geom_bond_type
O4    Cu2   1.938948 S    
C5    C7    1.461218 S    
C9    H5    1.087230 S    
N3    O9    1.300382 A    
N1    N3    1.384615 S    
C2    C8    1.443208 S    
C1    C9    1.433966 S    
O13   H7    0.990727 S    
Cu2   O8    1.947017 S    
S1    O11   1.495933 D    
O2    C1    1.303796 A    
Cu1   Cu2   2.726850 S    
N3    O10   1.301063 A    
Cu1   O7    1.938948 S    
C3    C10   1.433913 S    
O3    Cu1   1.947016 S    
O3    C2    1.302821 A    
C7    H3    1.085878 S    
O8    C4    1.305988 A    
C9    C10   1.336589 D    
O4    C2    1.305394 A    
O7    C4    1.300337 A    
C4    C6    1.438772 S    
C5    C6    1.336782 D    
S1    O13   1.681795 S    
Cu1   O5    1.952821 S    
N2    S1    1.742550 S    
C6    H2    1.083607 S    
N1    N2    1.292111 D    
C5    H1    1.085422 S    
Cu2   N1    2.049051 S    
O5    C3    1.303419 A    
C10   H6    1.087074 S    
O1    Cu1   1.951393 S    
Cu2   O6    1.951393 S    
O2    Cu2   1.952821 S    
Cu1   N2    2.049051 S    
C7    C8    1.337859 D    
C8    H4    1.084143 S    
O1    C1    1.300144 A    
O6    C3    1.300534 A    
S1    O12   1.501085 D    
