data_mof_unit_32449.cif
_audit_creation_date              2012-12-11T14:01:40-0500
_audit_creation_method            fapswitch 2.2
_symmetry_space_group_name_H-M    P1
_symmetry_Int_Tables_number       1
_space_group_crystal_system       triclinic
_cell_length_a                    18.964493
_cell_length_b                    10.982687
_cell_length_c                    18.787833
_cell_angle_alpha                 89.981895
_cell_angle_beta                  90.524706
_cell_angle_gamma                 89.875384
_cell_volume                      3912.97678456

loop_
_atom_site_label
_atom_site_type_symbol
_atom_type_description
_atom_site_fract_x
_atom_site_fract_y
_atom_site_fract_z
_atom_type_partial_charge
C1    C     C_R   0.272048 0.043020 0.853054 0.573032
C2    C     C_R   0.006091 0.666998 0.963348 -0.130885
C3    C     C_R   0.494169 0.167184 0.036125 -0.131058
C4    C     C_R   0.506091 0.166998 0.963348 -0.130885
C5    C     C_2   0.251149 0.578595 0.920378 0.072461
C6    C     C_2   0.749014 0.578709 0.079647 0.073245
C7    C     C_2   0.751149 0.078595 0.920378 0.072461
C8    C     C_2   0.249014 0.078709 0.079647 0.073245
C9    C     C_2   0.252570 0.592142 0.079506 -0.024998
C10   C     C_2   0.747380 0.592023 0.920507 -0.024795
C11   C     C_2   0.752570 0.092142 0.079506 -0.024998
C12   C     C_R   0.727955 0.043115 0.146948 0.570809
C13   C     C_2   0.247380 0.092023 0.920507 -0.024795
C14   C     C_2   0.300736 0.534189 0.039218 0.088322
C15   C     C_2   0.699450 0.534020 0.960899 0.087711
C16   C     C_2   0.800736 0.034189 0.039218 0.088322
C17   C     C_2   0.199450 0.034020 0.960899 0.087710
C18   C     C_2   0.307447 0.567402 0.964196 -0.103700
C19   C     C_2   0.692711 0.567343 0.035891 -0.103055
C20   C     C_2   0.807447 0.067402 0.964196 -0.103700
C21   C     C_2   0.192711 0.067343 0.035891 -0.103055
C22   C     C_2   0.511621 0.838997 0.584485 -0.102916
C23   C     C_R   0.772048 0.543020 0.853054 0.573032
C24   C     C_2   0.514042 0.829279 0.428337 -0.093499
C25   C     C_2   0.011621 0.338997 0.584485 -0.102916
C26   C     C_2   0.014042 0.329279 0.428337 -0.093499
C27   C     C_2   0.545528 0.748202 0.472242 -0.148376
C28   C     C_2   0.530705 0.741089 0.547643 -0.164828
C29   C     C_2   0.045528 0.248202 0.472242 -0.148376
C30   C     C_2   0.030705 0.241089 0.547643 -0.164828
C31   C     C_2   0.270813 0.660593 0.563735 -0.093568
C32   C     C_2   0.745782 0.611891 0.430480 -0.102513
C33   C     C_2   0.770813 0.160593 0.563735 -0.093568
C34   C     C_R   0.227955 0.543114 0.146948 0.570809
C35   C     C_2   0.245782 0.111891 0.430480 -0.102513
C36   C     C_2   0.258739 0.612190 0.411658 -0.110720
C37   C     C_2   0.742848 0.603537 0.585638 -0.106901
C38   C     C_2   0.758739 0.112189 0.411658 -0.110720
C39   C     C_2   0.242848 0.103537 0.585638 -0.106901
C40   C     C_R   0.471700 0.822278 0.853108 0.537137
C41   C     C_R   0.528307 0.822430 0.146880 0.536923
C42   C     C_R   0.971700 0.322278 0.853108 0.537137
C43   C     C_R   0.028307 0.322430 0.146880 0.536923
C44   C     C_2   0.222034 0.699490 0.444837 -0.155195
C45   C     C_R   0.489627 0.057413 0.072999 -0.079418
C46   C     C_2   0.782337 0.681080 0.549229 -0.157948
C47   C     C_2   0.722034 0.199490 0.444837 -0.155195
C48   C     C_2   0.282337 0.181080 0.549229 -0.157948
C49   C     C_2   0.237412 0.735557 0.518386 -0.166393
C50   C     C_2   0.770586 0.699995 0.473856 -0.149496
C51   C     C_2   0.737413 0.235557 0.518386 -0.166393
C52   C     C_2   0.270586 0.199995 0.473856 -0.149496
C53   C     C_R   0.261201 0.635820 0.851262 0.564456
C54   C     C_R   0.738835 0.635952 0.148738 0.556066
C55   C     C_R   0.761201 0.135820 0.851262 0.564456
C56   C     C_R   0.510605 0.057052 0.926651 -0.079208
C57   C     C_R   0.238835 0.135952 0.148738 0.556066
C58   C     C_R   0.270813 0.048144 0.649555 0.544515
C59   C     C_R   0.729142 0.048924 0.350451 0.549346
C60   C     C_R   0.770813 0.548144 0.649555 0.544515
C61   C     C_R   0.229142 0.548924 0.350451 0.549346
C62   C     C_R   0.472111 0.824474 0.649360 0.547606
C63   C     C_R   0.532306 0.823318 0.353873 0.550515
C64   C     C_R   0.972110 0.324474 0.649360 0.547606
C65   C     C_R   0.032306 0.323318 0.353873 0.550515
C66   C     C_R   0.275174 0.690509 0.638474 0.570500
C67   C     C_R   0.989627 0.557413 0.072999 -0.079418
C68   C     C_R   0.738594 0.641763 0.356021 0.547263
C69   C     C_R   0.775174 0.190509 0.638474 0.570500
C70   C     C_R   0.238594 0.141763 0.356021 0.547263
C71   C     C_R   0.500385 0.831596 0.074385 0.000250
C72   C     C_R   0.499601 0.831328 0.925600 0.000768
C73   C     C_R   0.000385 0.331597 0.074385 0.000249
C74   C     C_R   0.999601 0.331328 0.925600 0.000768
C75   C     C_R   0.497428 0.944547 0.037459 0.042435
C76   C     C_R   0.502705 0.944383 0.962362 0.042404
C77   C     C_R   0.997428 0.444547 0.037459 0.042435
C78   C     C_R   0.010605 0.557052 0.926651 -0.079208
C79   C     C_R   0.002705 0.444383 0.962362 0.042404
C80   C     C_R   0.501065 0.722079 0.963774 -0.162365
C81   C     C_R   0.498704 0.722227 0.036369 -0.162376
C82   C     C_R   0.001065 0.222079 0.963774 -0.162365
C83   C     C_R   0.998704 0.222227 0.036369 -0.162376
C84   C     C_R   0.994169 0.667184 0.036125 -0.131058
Cr1   Cr    Cr6+3 0.230530 0.836340 0.748870 1.032974
Cr2   Cr    Cr6+3 0.614360 0.677860 0.250770 1.015912
Cr3   Cr    Cr6+3 0.885640 0.177860 0.749230 1.016754
Cr4   Cr    Cr6+3 0.114360 0.177860 0.250770 1.015912
Cr5   Cr    Cr6+3 0.769470 0.836340 0.251130 1.036948
Cr6   Cr    Cr6+3 0.730530 0.336340 0.748870 1.032974
Cr7   Cr    Cr6+3 0.269470 0.336340 0.251130 1.036948
Cr8   Cr    Cr6+3 0.387420 0.989430 0.750820 1.015575
Cr9   Cr    Cr6+3 0.612580 0.989430 0.249180 1.020303
Cr10  Cr    Cr6+3 0.887420 0.489430 0.750820 1.015575
Cr11  Cr    Cr6+3 0.112580 0.489430 0.249180 1.020303
Cr12  Cr    Cr6+3 0.385640 0.677860 0.749230 1.016754
H1    H     H_    0.499775 0.634221 0.937554 0.133412
H2    H     H_    0.788315 0.786808 0.452756 0.156747
H3    H     H_    0.713574 0.319154 0.537806 0.132562
H4    H     H_    0.288315 0.286808 0.452756 0.156747
H5    H     H_    0.308526 0.578783 0.432927 0.099666
H6    H     H_    0.694273 0.567090 0.563137 0.095066
H7    H     H_    0.808526 0.078783 0.432927 0.099666
H8    H     H_    0.194273 0.067089 0.563137 0.095066
H9    H     H_    0.293549 0.574686 0.546948 0.105320
H10   H     H_    0.727437 0.524476 0.449817 0.082996
H11   H     H_    0.793549 0.074686 0.546948 0.105320
H12   H     H_    0.499830 0.634440 0.062718 0.133456
H13   H     H_    0.227437 0.024477 0.449817 0.082996
H14   H     H_    0.477081 0.062395 0.128911 0.128043
H15   H     H_    0.523163 0.061716 0.870733 0.129186
H16   H     H_    0.977081 0.562395 0.128911 0.128043
H17   H     H_    0.023163 0.561716 0.870733 0.129186
H18   H     H_    0.988555 0.752667 0.064208 0.108611
H19   H     H_    0.011750 0.752330 0.935129 0.109135
H20   H     H_    0.488555 0.252667 0.064208 0.108611
H21   H     H_    0.511750 0.252330 0.935129 0.109135
H22   H     H_    0.360369 0.585969 0.945433 0.122679
H23   H     H_    0.999775 0.134221 0.937554 0.133412
H24   H     H_    0.639745 0.585838 0.054679 0.123283
H25   H     H_    0.860369 0.085969 0.945433 0.122679
H26   H     H_    0.139745 0.085838 0.054679 0.123283
H27   H     H_    0.223030 0.668376 0.057263 0.094292
H28   H     H_    0.776714 0.668320 0.942665 0.094996
H29   H     H_    0.723031 0.168376 0.057263 0.094292
H30   H     H_    0.276714 0.168320 0.942665 0.094996
H31   H     H_    0.579785 0.677301 0.451515 0.157110
H32   H     H_    0.530123 0.650835 0.571362 0.152898
H33   H     H_    0.079785 0.177301 0.451515 0.157110
H34   H     H_    0.999830 0.134440 0.062718 0.133456
H35   H     H_    0.030123 0.150835 0.571362 0.152898
H36   H     H_    0.479897 0.901530 0.447287 0.094266
H37   H     H_    0.516213 0.929834 0.562061 0.113330
H38   H     H_    0.979897 0.401530 0.447287 0.094266
H39   H     H_    0.016213 0.429834 0.562061 0.113330
H40   H     H_    0.397711 0.465613 0.059806 0.202986
H41   H     H_    0.336484 0.361009 0.037083 0.231062
H42   H     H_    0.602673 0.465207 0.940486 0.203263
H43   H     H_    0.664263 0.360765 0.963239 0.230662
H44   H     H_    0.897711 0.965612 0.059806 0.202986
H45   H     H_    0.174797 0.737924 0.420511 0.154249
H46   H     H_    0.836484 0.861008 0.037083 0.231062
H47   H     H_    0.102673 0.965208 0.940486 0.203263
H48   H     H_    0.164263 0.860766 0.963239 0.230662
H49   H     H_    0.160339 0.486482 0.905767 0.226746
H50   H     H_    0.151169 0.625904 0.942734 0.239539
H51   H     H_    0.840105 0.486720 0.094249 0.225269
H52   H     H_    0.848850 0.626120 0.057179 0.239831
H53   H     H_    0.660339 0.986482 0.905767 0.226746
H54   H     H_    0.651169 0.125904 0.942734 0.239538
H55   H     H_    0.340105 0.986720 0.094249 0.225269
H56   H     H_    0.828672 0.723424 0.572905 0.156809
H57   H     H_    0.348850 0.126120 0.057179 0.239831
H58   H     H_    0.674797 0.237924 0.420511 0.154249
H59   H     H_    0.328672 0.223424 0.572905 0.156809
H60   H     H_    0.213573 0.819154 0.537806 0.132562
N1    N     N_3   0.345312 0.439556 0.067276 -0.583967
N2    N     N_3   0.655148 0.439248 0.932984 -0.583921
N3    N     N_3   0.845312 0.939556 0.067276 -0.583968
N4    N     N_3   0.155148 0.939248 0.932983 -0.583920
N5    N     N_3   0.181670 0.546650 0.943253 -0.637386
N6    N     N_3   0.818572 0.546837 0.056740 -0.637602
N7    N     N_3   0.681670 0.046650 0.943253 -0.637385
N8    N     N_3   0.318572 0.046837 0.056740 -0.637602
O1    O     O_R   0.215090 0.709860 0.828130 -0.501911
O2    O     O_R   0.543740 0.718170 0.330000 -0.515379
O3    O     O_R   0.956260 0.218170 0.670000 -0.520215
O4    O     O_R   0.043740 0.218170 0.330000 -0.515379
O5    O     O_R   0.320940 0.626760 0.674370 -0.499382
O6    O     O_R   0.679060 0.626760 0.325630 -0.504042
O7    O     O_R   0.820940 0.126760 0.674370 -0.499382
O8    O     O_R   0.179060 0.126760 0.325630 -0.504042
O9    O     O_3   0.334530 0.834540 0.749640 -0.270051
O10   O     O_3   0.665470 0.834540 0.250360 -0.250323
O11   O     O_3   0.834530 0.334540 0.749640 -0.270051
O12   O     O_R   0.784910 0.709860 0.171870 -0.504956
O13   O     O_3   0.165470 0.334540 0.250360 -0.250323
O14   O     O_R   0.236990 0.958390 0.823710 -0.454306
O15   O     O_R   0.763010 0.958390 0.176290 -0.454520
O16   O     O_R   0.736990 0.458390 0.823710 -0.454307
O17   O     O_R   0.263010 0.458390 0.176290 -0.454520
O18   O     O_R   0.332380 0.074750 0.830850 -0.521040
O19   O     O_R   0.667620 0.074750 0.169150 -0.524085
O20   O     O_R   0.832380 0.574750 0.830850 -0.521040
O21   O     O_R   0.167620 0.574750 0.169150 -0.524085
O22   O     O_R   0.445800 0.917770 0.825070 -0.505260
O23   O     O_R   0.715090 0.209860 0.828130 -0.501911
O24   O     O_R   0.554200 0.917770 0.174930 -0.506795
O25   O     O_R   0.945800 0.417770 0.825070 -0.505260
O26   O     O_R   0.054200 0.417770 0.174930 -0.506795
O27   O     O_R   0.456410 0.716580 0.829970 -0.523728
O28   O     O_R   0.543590 0.716580 0.170030 -0.522707
O29   O     O_R   0.956410 0.216580 0.829970 -0.523728
O30   O     O_R   0.043590 0.216580 0.170030 -0.522707
O31   O     O_R   0.321080 0.625290 0.822650 -0.506968
O32   O     O_R   0.678920 0.625290 0.177350 -0.511227
O33   O     O_R   0.821080 0.125290 0.822650 -0.506968
O34   O     O_R   0.284910 0.209860 0.171870 -0.504956
O35   O     O_R   0.178920 0.125290 0.177350 -0.511227
O36   O     O_R   0.214930 0.711450 0.668160 -0.505734
O37   O     O_R   0.785070 0.711450 0.331840 -0.515483
O38   O     O_R   0.714930 0.211450 0.668160 -0.505734
O39   O     O_R   0.285070 0.211450 0.331840 -0.515483
O40   O     O_R   0.236850 0.959870 0.675420 -0.525423
O41   O     O_R   0.763150 0.959870 0.324580 -0.508426
O42   O     O_R   0.736850 0.459870 0.675420 -0.525423
O43   O     O_R   0.263150 0.459870 0.324580 -0.508426
O44   O     O_R   0.332230 0.076350 0.670880 -0.512110
O45   O     O_R   0.445660 0.919250 0.676780 -0.501515
O46   O     O_R   0.667770 0.076350 0.329120 -0.513377
O47   O     O_R   0.832230 0.576350 0.670880 -0.512110
O48   O     O_R   0.167770 0.576350 0.329120 -0.513377
O49   O     O_R   0.554340 0.919250 0.323220 -0.495648
O50   O     O_R   0.945660 0.419250 0.676780 -0.501515
O51   O     O_R   0.054340 0.419250 0.323220 -0.495648
O52   O     O_R   0.456260 0.718170 0.670000 -0.520215

loop_
_geom_bond_atom_site_label_1
_geom_bond_atom_site_label_2
_ccdc_geom_bond_type
C44   C49   S    
C43   C73   S    
C31   C66   S    
Cr5   O37   S    
C74   C79   A    
Cr4   O8    S    
C57   O34   A    
C34   O21   A    
Cr11  O51   S    
C14   C18   S    
C49   H60   S    
C2    C84   A    
Cr2   O2    S    
C24   C27   D    
C7    C55   S    
H46   N3    S    
C75   C76   A    
C20   H25   S    
C39   H8    S    
C32   C68   S    
C15   C19   S    
C6    C19   D    
C65   O4    A    
C29   C30   S    
C43   O30   A    
C56   C76   A    
Cr11  O48   S    
Cr5   O10   S    
Cr12  O27   S    
C64   O50   A    
C11   H29   S    
C31   C49   D    
C65   O51   A    
C64   O3    A    
C10   H28   S    
C10   C15   D    
H44   N3    S    
C37   H6    S    
C80   H1    S    
Cr8   O22   S    
C12   O19   A    
C40   O22   A    
Cr6   O23   S    
C30   H35   S    
Cr9   O10   S    
C25   C30   D    
C2    H19   S    
C34   O17   A    
Cr2   O6    S    
C46   H56   S    
C69   O7    A    
C54   O12   A    
C21   H26   S    
C17   N4    S    
C70   O8    A    
C26   H38   S    
C66   O5    A    
Cr1   O40   S    
Cr2   O32   S    
Cr6   O42   S    
Cr7   O34   S    
C27   H31   S    
Cr11  O13   S    
C63   O2    A    
Cr5   O41   S    
C6    N6    S    
C43   O26   A    
Cr1   O14   S    
Cr4   O4    S    
C33   H11   S    
Cr1   O9    S    
H53   N7    S    
C55   O23   A    
H48   N4    S    
C18   H22   S    
C56   H15   S    
Cr11  O26   S    
C59   O46   A    
C33   C69   S    
Cr10  O11   S    
C41   C71   S    
C59   O41   A    
C81   H12   S    
C58   O40   A    
Cr10  O47   S    
C32   H10   S    
C4    C56   A    
C16   N3    S    
C31   H9    S    
Cr8   O45   S    
Cr10  O20   S    
C82   H23   S    
C6    C54   S    
Cr6   O16   S    
C77   C79   A    
C51   H3    S    
H50   N5    S    
Cr3   O3    S    
C50   H2    S    
Cr10  O50   S    
Cr12  O9    S    
C14   N1    S    
Cr9   O49   S    
C37   C60   S    
H54   N7    S    
Cr4   O30   S    
Cr4   O13   S    
C54   O32   A    
H43   N2    S    
C15   N2    S    
C8    N8    S    
C68   O6    A    
C78   C79   A    
C44   H45   S    
C47   C51   S    
C5    C18   D    
C22   H37   S    
C39   C58   S    
C7    N7    S    
Cr6   O11   S    
C3    C45   A    
C17   C21   S    
C41   O24   A    
C36   H5    S    
Cr2   O10   S    
C25   C64   S    
C5    N5    S    
C42   O29   A    
C9    C14   D    
C66   O36   A    
C38   H7    S    
Cr8   O44   S    
C8    C57   S    
C22   C62   S    
C1    O14   A    
H42   N2    S    
Cr1   O36   S    
C58   O44   A    
C16   C20   S    
Cr3   O7    S    
C12   O15   A    
C8    C21   D    
C23   O16   A    
C72   C76   A    
C63   O49   A    
C32   C50   D    
C38   C47   D    
C42   C74   S    
C83   H34   S    
H40   N1    S    
C53   O1    A    
C48   H59   S    
C61   O43   A    
C19   H24   S    
H55   N8    S    
C24   C63   S    
Cr12  O5    S    
C35   C70   S    
C9    C34   S    
Cr8   O9    S    
C29   H33   S    
C4    H21   S    
C36   C44   D    
C78   H17   S    
C1    C13   S    
Cr3   O33   S    
C69   O38   A    
C3    C4    A    
H57   N8    S    
Cr9   O46   S    
C2    C78   A    
Cr11  O21   S    
Cr3   O29   S    
C74   C82   A    
C5    C53   S    
C70   O39   A    
C35   C52   D    
C84   H18   S    
C40   C72   S    
C41   O28   A    
C68   O37   A    
C45   H14   S    
C26   C65   S    
C62   O52   A    
C67   C77   A    
C80   C81   A    
H51   N6    S    
C35   H13   S    
Cr7   O43   S    
C11   C12   S    
C47   H58   S    
H41   N1    S    
C10   C23   S    
C33   C51   D    
Cr3   O11   S    
C3    H20   S    
C46   C50   S    
Cr2   O28   S    
Cr12  O52   S    
C13   C17   D    
C45   C75   A    
Cr1   O1    S    
Cr7   O17   S    
Cr10  O25   S    
H52   N6    S    
C23   O20   A    
C72   C80   A    
Cr8   O18   S    
C71   C75   A    
C24   H36   S    
Cr9   O19   S    
Cr4   O35   S    
C60   O42   A    
C55   O33   A    
C40   O27   A    
H49   N5    S    
C53   O31   A    
Cr7   O13   S    
Cr6   O38   S    
H47   N4    S    
C9    H27   S    
C62   O45   A    
C52   H4    S    
Cr5   O15   S    
C25   H39   S    
C60   O47   A    
Cr7   O39   S    
C1    O18   A    
C11   C16   D    
C38   C59   S    
Cr9   O24   S    
C28   H32   S    
C67   H16   S    
C67   C84   A    
Cr12  O31   S    
C26   C29   D    
C7    C20   D    
C27   C28   S    
C42   O25   A    
C73   C77   A    
C22   C28   D    
Cr5   O12   S    
C82   C83   A    
C37   C46   D    
C48   C52   S    
C73   C83   A    
C61   O48   A    
C57   O35   A    
C36   C61   S    
C13   H30   S    
C39   C48   D    
C71   C81   A    
