data_mof_unit_12406.cif
_audit_creation_date              2013-03-05T15:45:58-0500
_audit_creation_method            fapswitch 2.2
_symmetry_space_group_name_H-M    P1
_symmetry_Int_Tables_number       1
_space_group_crystal_system       triclinic
_cell_length_a                    19.121835
_cell_length_b                    11.647787
_cell_length_c                    18.722383
_cell_angle_alpha                 90.166729
_cell_angle_beta                  90.794188
_cell_angle_gamma                 89.622204
_cell_volume                      4169.47354633

loop_
_atom_site_label
_atom_site_type_symbol
_atom_site_description
_atom_site_fract_x
_atom_site_fract_y
_atom_site_fract_z
_atom_type_partial_charge
O1    O     O_R   0.787510 0.042610 0.670410 -0.476528
O2    O     O_R   0.212490 0.042610 0.329590 -0.463798
O3    O     O_R   0.287510 0.542610 0.670410 -0.464048
O4    O     O_R   0.712490 0.542610 0.329590 -0.469548
O5    O     O_R   0.765670 0.292090 0.675090 -0.422264
O6    O     O_R   0.234330 0.292090 0.324910 -0.438694
O7    O     O_R   0.265670 0.792090 0.675090 -0.486543
O8    O     O_R   0.734330 0.792090 0.324910 -0.422598
C1    C     C_R   0.711209 0.336116 0.637011 0.572319
C2    C     C_R   0.268796 0.377991 0.352490 0.582103
C3    C     C_R   0.229645 0.876952 0.646477 0.566651
C4    C     C_R   0.786991 0.837513 0.363149 0.560532
O9    O     O_R   0.670220 0.409020 0.668560 -0.395825
O10   O     O_R   0.329780 0.409020 0.331440 -0.459563
O11   O     O_R   0.170220 0.909020 0.668560 -0.459588
O12   O     O_R   0.829780 0.909020 0.331440 -0.426189
O13   O     O_R   0.556580 0.251590 0.674980 -0.483069
O14   O     O_R   0.443420 0.251590 0.325020 -0.506982
O15   O     O_R   0.056580 0.751590 0.674980 -0.521829
O16   O     O_R   0.943420 0.751590 0.325020 -0.523905
C5    C     C_R   0.537781 0.153194 0.644481 0.545284
C6    C     C_R   0.465905 0.155830 0.352585 0.566421
C7    C     C_R   0.031339 0.654346 0.647760 0.522201
C8    C     C_R   0.965337 0.653358 0.354300 0.556699
O17   O     O_R   0.545890 0.049670 0.670030 -0.423176
O18   O     O_R   0.454110 0.049670 0.329970 -0.417294
O19   O     O_R   0.045890 0.549670 0.670030 -0.448901
O20   O     O_R   0.954110 0.549670 0.329970 -0.428633
O21   O     O_R   0.681340 0.957860 0.676500 -0.429009
O22   O     O_R   0.318660 0.957860 0.323500 -0.446038
O23   O     O_R   0.181340 0.457860 0.676500 -0.411938
O24   O     O_R   0.818660 0.457860 0.323500 -0.458120
C9    C     C_R   0.746379 0.959842 0.654403 0.635663
C10   C     C_R   0.259775 0.970849 0.352915 0.607325
C11   C     C_R   0.227104 0.517760 0.640265 0.535359
C12   C     C_R   0.756233 0.462965 0.347671 0.594676
O25   O     O_R   0.787380 0.044010 0.830940 -0.427884
O26   O     O_R   0.212620 0.044010 0.169060 -0.420359
O27   O     O_R   0.287380 0.544010 0.830940 -0.408990
O28   O     O_R   0.712620 0.544010 0.169060 -0.423216
O29   O     O_R   0.765540 0.293390 0.823910 -0.476270
O30   O     O_R   0.234460 0.293390 0.176090 -0.480740
O31   O     O_R   0.265540 0.793390 0.823910 -0.473002
O32   O     O_R   0.734460 0.793390 0.176090 -0.473264
C13   C     C_R   0.732509 0.380877 0.849896 0.582246
C14   C     C_R   0.267549 0.380572 0.150025 0.571191
C15   C     C_R   0.232512 0.880874 0.849896 0.581982
C16   C     C_R   0.767549 0.880573 0.150026 0.586367
O33   O     O_R   0.670090 0.410410 0.829090 -0.437293
O34   O     O_R   0.329910 0.410410 0.170910 -0.436283
O35   O     O_R   0.170090 0.910410 0.829090 -0.433709
O36   O     O_R   0.829910 0.910410 0.170910 -0.435694
O37   O     O_R   0.556450 0.252890 0.823790 -0.483520
O38   O     O_R   0.443550 0.252890 0.176210 -0.482728
O39   O     O_R   0.056450 0.752890 0.823790 -0.478732
O40   O     O_R   0.943550 0.752890 0.176210 -0.482609
C17   C     C_R   0.533966 0.157766 0.853170 0.556600
C18   C     C_R   0.465951 0.157335 0.146857 0.561228
C19   C     C_R   0.033958 0.657768 0.853164 0.559562
C20   C     C_R   0.965937 0.657333 0.146848 0.560784
O41   O     O_R   0.545750 0.051070 0.830560 -0.434227
O42   O     O_R   0.454250 0.051070 0.169440 -0.433464
O43   O     O_R   0.045750 0.551070 0.830560 -0.432577
O44   O     O_R   0.954250 0.551070 0.169440 -0.431725
O45   O     O_R   0.681210 0.959150 0.825320 -0.422988
O46   O     O_R   0.318790 0.959150 0.174680 -0.419476
O47   O     O_R   0.181210 0.459150 0.825320 -0.408796
O48   O     O_R   0.818790 0.459150 0.174680 -0.419726
C21   C     C_R   0.727938 0.019561 0.861779 0.548143
C22   C     C_R   0.272122 0.019959 0.138157 0.551005
C23   C     C_R   0.227933 0.519578 0.861780 0.556353
C24   C     C_R   0.772122 0.519953 0.138161 0.551497
Cr1   Cr    Cr6+3 0.771950 0.169480 0.750100 1.207990
Cr2   Cr    Cr6+3 0.228050 0.169480 0.249900 1.210121
Cr3   Cr    Cr6+3 0.271950 0.669480 0.750100 1.187868
Cr4   Cr    Cr6+3 0.728050 0.669480 0.249900 1.211215
Cr5   Cr    Cr6+3 0.614930 0.323340 0.749170 1.196413
Cr6   Cr    Cr6+3 0.385070 0.323340 0.250830 1.168483
Cr7   Cr    Cr6+3 0.114930 0.823340 0.749170 1.143964
Cr8   Cr    Cr6+3 0.885070 0.823340 0.250830 1.153214
Cr9   Cr    Cr6+3 0.616590 0.010620 0.750610 1.238447
Cr10  Cr    Cr6+3 0.383410 0.010620 0.249390 1.243571
Cr11  Cr    Cr6+3 0.116590 0.510620 0.750610 1.232843
Cr12  Cr    Cr6+3 0.883410 0.510620 0.249390 1.225268
O49   O     O_3   0.667820 0.167810 0.749960 -0.416159
O50   O     O_3   0.332180 0.167810 0.250040 -0.396019
O51   O     O_3   0.167820 0.667810 0.749960 -0.411111
O52   O     O_3   0.832180 0.667810 0.250040 -0.410490
C25   C     C_R   0.499743 0.173151 0.420673 -0.021208
C26   C     C_R   0.521476 0.156609 0.568361 -0.016430
C27   C     C_R   0.989275 0.656533 0.429000 -0.023326
C28   C     C_R   0.991759 0.658867 0.579665 -0.008493
C29   C     C_R   0.473877 0.257275 0.467388 0.003298
C30   C     C_R   0.484119 0.248138 0.539983 0.024608
C31   C     C_R   0.978202 0.757844 0.466558 -0.054454
C32   C     C_R   0.983154 0.760016 0.540781 -0.060146
C33   C     C_R   0.557969 0.083961 0.520085 0.204688
C34   C     C_R   0.548536 0.094214 0.445924 0.210198
C35   C     C_R   0.984204 0.555103 0.541995 0.179339
C36   C     C_R   0.998832 0.553205 0.468119 0.164008
C37   C     C_3   0.401581 0.303257 0.476701 -0.239243
C38   C     C_3   0.412644 0.290939 0.556662 -0.221996
C39   C     C_3   0.023923 0.859256 0.460377 -0.223514
C40   C     C_3   0.027480 0.863158 0.540898 -0.193403
H1    H     H_    0.997312 0.932811 0.434526 0.235502
H2    H     H_    0.080666 0.844182 0.561821 0.156535
H3    H     H_    0.361815 0.244767 0.453911 0.169406
H4    H     H_    0.413588 0.374654 0.585306 0.213692
H5    H     H_    0.397203 0.394060 0.459527 0.213434
H6    H     H_    0.379251 0.223961 0.580804 0.192543
H7    H     H_    0.073932 0.834294 0.435193 0.127227
H8    H     H_    0.000022 0.937939 0.564866 0.221695
C41   C     C_R   0.730448 0.801778 0.561244 0.243886
C42   C     C_R   0.314756 0.894218 0.467973 0.179284
C43   C     C_R   0.205298 0.383843 0.539199 0.190239
C44   C     C_R   0.793186 0.343824 0.452242 0.205713
C45   C     C_R   0.736760 0.782942 0.486238 0.228622
C46   C     C_R   0.308702 0.886467 0.542631 0.127278
C47   C     C_R   0.209370 0.355047 0.467812 0.196212
C48   C     C_R   0.779991 0.320602 0.524169 0.223671
C49   C     C_R   0.779967 0.852968 0.443570 -0.018462
C50   C     C_R   0.246036 0.920778 0.575238 -0.026180
C51   C     C_R   0.243950 0.427529 0.420163 -0.019769
C52   C     C_R   0.717210 0.355946 0.557387 -0.008426
C53   C     C_R   0.826434 0.926474 0.480941 0.161387
C54   C     C_R   0.191029 0.969627 0.532459 0.157150
C55   C     C_R   0.267994 0.535314 0.444861 0.144270
C56   C     C_R   0.660591 0.396225 0.511206 0.174493
C57   C     C_R   0.829982 0.923927 0.555636 -0.119643
C58   C     C_R   0.192156 0.949788 0.459552 -0.145898
C59   C     C_R   0.260550 0.565531 0.516615 -0.186537
C60   C     C_R   0.672334 0.399738 0.437255 -0.086862
H9    H     H_    0.867420 0.979800 0.581920 0.216075
H10   H     H_    0.148045 0.978829 0.427624 0.208935
H11   H     H_    0.280702 0.646729 0.535706 0.162780
H12   H     H_    0.630748 0.428372 0.401589 0.204673
C61   C     C_R   0.771344 0.886907 0.593336 -0.002830
C62   C     C_R   0.254481 0.924448 0.425714 -0.025306
C63   C     C_R   0.230660 0.488862 0.564333 -0.081660
C64   C     C_R   0.739669 0.391770 0.409930 -0.004624
C65   C     C_R   0.495000 0.069239 0.963024 0.113651
C66   C     C_R   0.503816 0.068662 0.036279 0.110712
C67   C     C_R   0.994925 0.569252 0.962992 0.113593
C68   C     C_R   0.003738 0.568652 0.036247 0.111986
C69   C     C_R   0.494163 0.169530 0.074444 -0.040711
C70   C     C_R   0.505564 0.170245 0.925633 -0.039317
C71   C     C_R   0.994121 0.669521 0.074423 -0.041693
C72   C     C_R   0.005524 0.670257 0.925613 -0.040550
C73   C     C_R   0.495215 0.274780 0.037582 0.179188
C74   C     C_R   0.505563 0.274984 0.963503 0.179547
C75   C     C_R   0.995196 0.774778 0.037570 0.179988
C76   C     C_R   0.005543 0.774990 0.963491 0.180844
C77   C     C_R   0.787661 0.030995 0.981775 0.151355
C78   C     C_R   0.212527 0.032723 0.017915 0.150285
C79   C     C_R   0.287636 0.531046 0.981799 0.150193
C80   C     C_R   0.712498 0.532651 0.017957 0.149895
C81   C     C_R   0.782384 0.024904 0.056068 0.157852
C82   C     C_R   0.217940 0.026494 0.943561 0.157737
C83   C     C_R   0.282349 0.524951 0.056093 0.158281
C84   C     C_R   0.717879 0.526419 0.943608 0.156771
C85   C     C_R   0.739283 0.938664 0.085716 -0.027044
C86   C     C_R   0.261047 0.939390 0.913905 -0.026808
C87   C     C_R   0.239264 0.438687 0.085731 -0.027405
C88   C     C_R   0.761018 0.439367 0.913926 -0.026126
C89   C     C_R   0.687767 0.885410 0.041318 0.129505
C90   C     C_R   0.312900 0.885853 0.958051 0.131822
C91   C     C_R   0.187748 0.385440 0.041332 0.132101
C92   C     C_R   0.812889 0.385846 0.958061 0.131685
C93   C     C_R   0.689572 0.909143 0.967961 0.155872
C94   C     C_R   0.311055 0.909480 0.031502 0.155999
C95   C     C_R   0.189548 0.409193 0.967977 0.154632
C96   C     C_R   0.811053 0.409466 0.031512 0.156443
C97   C     C_R   0.730495 0.997225 0.940398 -0.077176
C98   C     C_R   0.269797 0.998059 0.059354 -0.080671
C99   C     C_R   0.230475 0.497273 0.940411 -0.081804
C100  C     C_R   0.769788 0.498030 0.059369 -0.079744
N1    N     N_R   0.606613 0.001159 0.544691 0.080125
O53   O     O_R   0.582989 0.903311 0.566841 -0.179279
O54   O     O_R   0.668598 0.006041 0.517936 -0.345540
N2    N     N_R   0.583677 0.018128 0.397134 0.133245
O55   O     O_R   0.611426 0.058741 0.339445 -0.275847
O56   O     O_R   0.583221 0.907587 0.407139 -0.158664
N3    N     N_R   0.951587 0.460352 0.576851 0.133718
O57   O     O_R   0.891303 0.477462 0.606598 -0.284571
O58   O     O_R   0.987641 0.370006 0.595038 -0.138430
N4    N     N_R   0.035783 0.457343 0.436587 0.110764
O59   O     O_R   0.073439 0.473388 0.380103 -0.297302
O60   O     O_R   0.047408 0.364401 0.473012 -0.174176
N5    N     N_R   0.853483 0.995279 0.954476 0.142080
O61   O     O_R   0.890450 0.064392 0.916411 -0.150063
O62   O     O_R   0.865794 0.885467 0.951094 -0.313267
N6    N     N_R   0.146861 0.997136 0.044757 0.143203
O63   O     O_R   0.109369 0.065981 0.083272 -0.148133
O64   O     O_R   0.135107 0.887363 0.047005 -0.311084
N7    N     N_R   0.353461 0.495310 0.954518 0.142055
O65   O     O_R   0.390429 0.564381 0.916425 -0.147979
O66   O     O_R   0.365792 0.385498 0.951210 -0.311172
N8    N     N_R   0.646843 0.497085 0.044839 0.142724
O67   O     O_R   0.609332 0.566010 0.083281 -0.147675
O68   O     O_R   0.635115 0.387311 0.047197 -0.311152
N9    N     N_R   0.834160 0.082690 0.099487 0.145612
O69   O     O_R   0.820547 0.114542 0.164897 -0.187560
O70   O     O_R   0.896087 0.101027 0.074979 -0.146468
N10   N     N_R   0.166025 0.084251 0.899906 0.145115
O71   O     O_R   0.179610 0.114485 0.834351 -0.185381
O72   O     O_R   0.103741 0.102671 0.923861 -0.144665
N11   N     N_R   0.334119 0.582725 0.099521 0.145405
O73   O     O_R   0.320498 0.614558 0.164932 -0.182994
O74   O     O_R   0.396055 0.601041 0.075029 -0.146325
N12   N     N_R   0.665936 0.584175 0.899991 0.144435
O75   O     O_R   0.679488 0.614445 0.834441 -0.178874
O76   O     O_R   0.603680 0.602670 0.923998 -0.145144
N13   N     N_R   0.638088 0.799559 0.065344 0.114662
O77   O     O_R   0.594331 0.756775 0.019135 -0.138470
O78   O     O_R   0.620250 0.789105 0.131760 -0.177619
N14   N     N_R   0.362870 0.799631 0.933519 0.116590
O79   O     O_R   0.406621 0.755551 0.979491 -0.136862
O80   O     O_R   0.380673 0.789729 0.866990 -0.177553
N15   N     N_R   0.138088 0.299553 0.065351 0.115892
O81   O     O_R   0.094358 0.256709 0.019133 -0.138307
O82   O     O_R   0.120238 0.289106 0.131765 -0.181823
N16   N     N_R   0.862865 0.299633 0.933524 0.116869
O83   O     O_R   0.906625 0.255567 0.979491 -0.136533
O84   O     O_R   0.880663 0.289722 0.866994 -0.179926
N17   N     N_R   0.681984 0.814059 0.921937 0.116656
O85   O     O_R   0.624006 0.804115 0.885246 -0.146296
O86   O     O_R   0.740077 0.772602 0.896443 -0.274147
N18   N     N_R   0.318650 0.814031 0.077051 0.117473
O87   O     O_R   0.376400 0.802973 0.114084 -0.146625
O88   O     O_R   0.260506 0.773126 0.101814 -0.274409
N19   N     N_R   0.181978 0.314104 0.921960 0.116278
O89   O     O_R   0.124009 0.304141 0.885255 -0.146357
O90   O     O_R   0.240083 0.272655 0.896491 -0.269754
N20   N     N_R   0.818656 0.314014 0.077058 0.117441
O91   O     O_R   0.876407 0.302962 0.114091 -0.146998
O92   O     O_R   0.760516 0.273091 0.101818 -0.274875
N21   N     N_R   0.687114 0.730406 0.605008 0.129911
O93   O     O_R   0.631501 0.681358 0.578814 -0.130347
O94   O     O_R   0.704052 0.712191 0.671611 -0.254263
N22   N     N_R   0.383769 0.886362 0.438465 0.129686
O95   O     O_R   0.435429 0.937930 0.470497 -0.281118
O96   O     O_R   0.397459 0.817411 0.385756 -0.165685
N23   N     N_R   0.183565 0.298098 0.587625 0.148070
O97   O     O_R   0.118153 0.296594 0.605463 -0.155508
O98   O     O_R   0.230496 0.248789 0.628471 -0.263112
N24   N     N_R   0.859848 0.311686 0.422453 0.125549
O99   O     O_R   0.915500 0.311753 0.462623 -0.174582
O100  O     O_R   0.864466 0.268601 0.358397 -0.199790
N25   N     N_R   0.714369 0.677231 0.458923 0.070857
O101  O     O_R   0.651546 0.667844 0.432141 -0.181093
O102  O     O_R   0.746607 0.588658 0.485332 -0.403684
N26   N     N_R   0.367696 0.849468 0.585459 0.119971
O103  O     O_R   0.388025 0.910165 0.640313 -0.251640
O104  O     O_R   0.403052 0.757974 0.568021 -0.204961
N27   N     N_R   0.195410 0.239135 0.449521 0.121471
O105  O     O_R   0.140088 0.212698 0.411890 -0.187040
O106  O     O_R   0.246043 0.165700 0.457535 -0.414751
N28   N     N_R   0.813810 0.223081 0.552133 0.119111
O107  O     O_R   0.871036 0.228324 0.590316 -0.176550
O108  O     O_R   0.776153 0.132049 0.551493 -0.341018
N29   N     N_R   0.855432 0.023750 0.446017 0.128203
O109  O     O_R   0.812933 0.085677 0.407138 -0.204034
O110  O     O_R   0.912704 0.070212 0.470244 -0.256853
N30   N     N_R   0.135511 0.043602 0.559564 0.109095
O111  O     O_R   0.137517 0.086544 0.623533 -0.170770
O112  O     O_R   0.087234 0.083490 0.516492 -0.246002
N31   N     N_R   0.308888 0.607076 0.400568 0.096564
O113  O     O_R   0.281234 0.651566 0.343031 -0.262282
O114  O     O_R   0.376563 0.603191 0.408143 -0.217125
N32   N     N_R   0.593926 0.444596 0.533887 0.112113
O115  O     O_R   0.567939 0.428876 0.596451 -0.266649
O116  O     O_R   0.555784 0.504006 0.488992 -0.226588
N33   N     N_R   0.468257 0.972399 0.925985 0.112434
O117  O     O_R   0.422934 0.991795 0.874718 -0.282987
O118  O     O_R   0.504623 0.878100 0.925407 -0.134323
N34   N     N_R   0.530761 0.971067 0.072556 0.112765
O119  O     O_R   0.576025 0.989562 0.123938 -0.275530
O120  O     O_R   0.494485 0.877471 0.072738 -0.135612
N35   N     N_R   0.968211 0.472410 0.925935 0.112215
O121  O     O_R   0.922903 0.491803 0.874652 -0.283328
O122  O     O_R   0.004599 0.378133 0.925354 -0.134771
N36   N     N_R   0.030711 0.471056 0.072501 0.113620
O123  O     O_R   0.075995 0.489548 0.123864 -0.285988
O124  O     O_R   0.994468 0.377427 0.072669 -0.134991
Br1   Br    Br    0.488601 0.417809 0.087245 -0.127259
Br2   Br    Br    0.513602 0.418222 0.915340 -0.124257
Br3   Br    Br    0.988636 0.917797 0.087252 -0.130342
Br4   Br    Br    0.013628 0.918239 0.915344 -0.128628

loop_
_geom_bond_atom_site_label_1
_geom_bond_atom_site_label_2
_geom_bond_distance
_ccdc_geom_bond_type
C37   H3    1.104775 S    
Cr11  O51   2.082343 S    
N27   O106  1.295118 A    
C18   O42   1.330479 A    
C29   C30   1.374835 A    
O39   C19   1.315819 A    
O20   Cr12  2.063530 S    
C82   N10   1.441527 S    
N9    O69   1.307685 A    
N28   O108  1.285573 A    
C31   C32   1.391724 A    
C46   N26   1.439346 S    
N18   O88   1.304086 A    
O8    Cr4   2.003034 S    
C79   C99   1.389355 A    
C32   C40   1.474818 S    
O4    C12   1.287864 A    
C33   C34   1.402985 A    
C18   C69   1.473651 S    
O1    C9    1.280468 A    
C77   N5    1.424129 S    
N13   O77   1.296087 A    
O29   Cr1   1.999617 S    
O7    C3    1.312410 A    
N25   O101  1.300459 A    
C37   C38   1.516130 S    
C55   N31   1.424251 S    
O36   Cr8   2.081090 S    
C85   C89   1.424244 A    
C73   C74   1.403707 A    
O24   C12   1.283422 A    
C42   N22   1.439932 S    
C13   C88   1.476641 S    
N14   O80   1.300417 A    
C78   C82   1.398986 A    
N17   O86   1.304316 A    
C59   H11   1.081558 S    
N3    O58   1.297944 A    
O30   C14   1.299838 A    
N29   O109  1.299810 A    
C44   C48   1.400971 A    
C96   N20   1.408670 S    
O48   C24   1.320214 A    
O47   C23   1.322180 A    
O46   Cr10  1.949289 S    
C94   N18   1.408658 S    
C54   C58   1.384189 A    
C37   H5    1.108647 S    
N23   O97   1.299330 A    
C23   C99   1.495721 S    
C77   C97   1.389311 A    
C28   C32   1.394360 A    
C1    C52   1.515238 S    
O23   Cr11  1.966843 S    
N36   O124  1.296030 A    
C39   H7    1.108769 S    
C46   C50   1.407420 A    
C81   C85   1.422409 A    
C91   N15   1.460045 S    
O32   Cr4   2.006577 S    
C1    O9    1.298249 A    
O44   Cr12  2.089545 S    
O38   Cr6   1.974884 S    
O15   Cr7   1.958392 S    
C66   N34   1.416360 S    
C11   C63   1.462378 S    
C86   C90   1.423815 A    
C15   C86   1.476636 S    
C3    O11   1.268144 A    
O11   Cr7   2.111487 S    
C4    C49   1.523549 S    
C4    O12   1.319456 A    
O21   C9    1.316467 A    
C9    C61   1.503625 S    
N30   O111  1.296738 A    
N23   O98   1.302598 A    
N35   O121  1.303486 A    
C21   C97   1.495571 S    
C38   H4    1.111597 S    
N8    O67   1.296280 A    
C20   C71   1.473657 S    
O27   Cr3   2.123307 S    
C27   C36   1.420159 A    
O46   C22   1.320283 A    
O3    Cr3   2.119430 S    
Cr4   O52   1.991091 S    
C26   C33   1.423085 A    
C35   N3    1.434383 S    
N32   O115  1.292708 A    
O2    Cr2   2.128203 S    
C67   C68   1.379531 A    
O14   Cr6   1.955560 S    
C52   C56   1.452430 A    
C19   C72   1.474755 S    
O2    C10   1.299272 A    
N35   O122  1.296220 A    
O42   Cr10  2.089545 S    
C75   C76   1.403707 A    
Cr5   O49   2.068926 S    
O18   Cr10  2.063530 S    
C70   C74   1.409251 A    
N21   O93   1.299880 A    
C25   C29   1.403683 A    
N10   O71   1.307835 A    
N9    O70   1.295132 A    
C66   C69   1.385972 A    
C58   H10   1.080107 S    
N20   O92   1.304082 A    
C68   C71   1.385990 A    
C42   C62   1.431570 A    
C56   C60   1.406457 A    
Cr7   O51   2.068926 S    
N18   O87   1.301620 A    
C31   C39   1.479952 S    
Cr9   O49   2.082343 S    
C26   C30   1.382721 A    
O9    Cr5   2.111487 S    
C5    C26   1.455210 S    
N13   O78   1.300217 A    
C89   C93   1.402687 A    
C67   C72   1.388099 A    
O24   Cr12  1.974454 S    
N24   O100  1.302600 A    
N25   O102  1.294209 A    
O30   Cr2   2.006577 S    
O22   C10   1.268259 A    
C79   C83   1.398071 A    
N11   O73   1.307670 A    
O48   Cr12  1.949289 S    
C72   C76   1.409275 A    
C80   C84   1.398837 A    
C59   C63   1.395656 A    
N14   O79   1.296642 A    
C39   H1    1.103204 S    
C2    C51   1.474016 S    
C2    O10   1.290324 A    
C29   C37   1.491558 S    
N15   O81   1.296122 A    
N29   O110  1.300234 A    
O16   Cr8   1.955560 S    
O15   C7    1.331415 A    
C15   O35   1.295108 A    
C16   C85   1.477014 S    
N1    O54   1.294793 A    
O27   C23   1.315289 A    
Cr10  O50   2.070890 S    
O6    Cr2   2.003034 S    
C95   C99   1.398658 A    
C10   C62   1.472714 S    
O13   C5    1.328440 A    
O40   C20   1.311858 A    
O43   Cr11  2.083546 S    
C40   H8    1.110841 S    
O12   Cr8   2.100716 S    
N6    O64   1.300576 A    
O22   Cr10  1.974454 S    
C71   C75   1.408977 A    
N3    O57   1.301076 A    
C49   C53   1.414710 A    
C56   N32   1.458377 S    
N15   O82   1.300229 A    
O39   Cr7   1.984363 S    
O25   C21   1.315233 A    
C74   Br2   1.906914 S    
C33   N1    1.409436 S    
C35   C36   1.415011 A    
C13   O33   1.295049 A    
C87   C91   1.424218 A    
C60   H12   1.082841 S    
O3    C11   1.312204 A    
C67   N35   1.417009 S    
N22   O96   1.298909 A    
N36   O123  1.303499 A    
C54   N30   1.458535 S    
C83   N11   1.441264 S    
N19   O90   1.304308 A    
O7    Cr3   2.007728 S    
O47   Cr11  1.946781 S    
Cr2   O50   1.991091 S    
N16   O84   1.300404 A    
O32   C16   1.299846 A    
C22   C98   1.496658 S    
Cr1   O49   1.991345 S    
C42   C46   1.407382 A    
C75   Br3   1.909845 S    
C65   C70   1.388111 A    
C65   N33   1.417010 S    
C41   C45   1.427336 A    
C88   C92   1.423861 A    
Cr3   O51   1.991345 S    
O26   C22   1.311827 A    
N19   O89   1.301744 A    
N10   O72   1.294803 A    
O21   Cr9   1.966843 S    
C90   C94   1.402533 A    
C7    O19   1.316466 A    
C14   C87   1.477011 S    
N21   O94   1.301652 A    
C53   C57   1.399550 A    
C68   N36   1.416358 S    
O37   Cr5   1.984363 S    
C92   C96   1.402524 A    
C83   C87   1.422355 A    
C19   O43   1.330559 A    
C38   H6    1.112332 S    
C3    C50   1.468145 S    
C81   N9    1.441298 S    
N20   O91   1.301620 A    
C34   N2    1.440776 S    
N27   O105  1.301027 A    
C58   C62   1.387082 A    
C8    C27   1.465948 S    
C84   C88   1.419784 A    
C51   C55   1.414112 A    
O34   Cr6   2.081090 S    
C92   N16   1.459270 S    
N2    O55   1.301547 A    
O31   Cr3   1.999617 S    
N26   O104  1.301523 A    
O38   C18   1.311845 A    
O25   Cr1   2.123307 S    
C89   N13   1.460025 S    
C7    C28   1.474464 S    
O45   C21   1.322132 A    
C95   N19   1.408216 S    
C5    O17   1.306028 A    
N24   O99   1.294560 A    
C80   C100  1.391511 A    
C78   N6    1.423600 S    
O37   C17   1.315832 A    
C57   H9    1.082909 S    
O28   C24   1.311804 A    
N17   O85   1.301743 A    
O14   C6    1.298522 A    
C73   Br1   1.909831 S    
N1    O53   1.299895 A    
O5    Cr1   2.007728 S    
C80   N8    1.423614 S    
C8    O20   1.307559 A    
N34   O120  1.296044 A    
O31   C15   1.292698 A    
C44   C64   1.399715 A    
O17   Cr9   2.061533 S    
C47   N27   1.418062 S    
O5    C1    1.352867 A    
O6    C2    1.303207 A    
C91   C95   1.402682 A    
N31   O113  1.300932 A    
C76   Br4   1.906952 S    
C17   O41   1.330538 A    
C40   H2    1.105941 S    
C94   C98   1.398703 A    
C47   C51   1.404974 A    
C60   C64   1.394489 A    
C84   N12   1.441483 S    
C14   O34   1.299001 A    
C43   C47   1.380137 A    
O40   Cr8   1.974884 S    
O29   C13   1.292746 A    
C36   N4    1.446317 S    
C20   O44   1.330463 A    
C41   C61   1.396224 A    
C17   C70   1.474778 S    
N6    O63   1.296280 A    
N12   O76   1.294790 A    
C55   C59   1.396698 A    
O19   Cr11  2.061533 S    
N28   O107  1.300429 A    
O1    Cr1   2.119430 S    
Cr8   O52   2.080496 S    
C93   N17   1.408282 S    
O41   Cr9   2.083546 S    
C65   C66   1.379555 A    
C45   N25   1.399354 S    
N2    O56   1.301755 A    
O13   Cr5   1.958392 S    
N31   O114  1.300361 A    
Cr6   O50   2.080496 S    
C43   N23   1.418931 S    
Cr12  O52   2.070890 S    
C25   C34   1.385050 A    
C48   N28   1.402488 S    
O23   C11   1.319121 A    
C41   N21   1.442552 S    
N22   O95   1.298286 A    
N33   O118  1.296203 A    
C6    C25   1.435895 S    
O26   Cr2   2.119918 S    
C50   C54   1.429327 A    
C44   N24   1.445073 S    
N32   O116  1.302718 A    
O33   Cr5   2.083621 S    
O10   Cr6   2.100716 S    
C77   C81   1.398038 A    
N5    O61   1.296313 A    
C24   C100  1.496487 S    
O35   Cr7   2.083621 S    
O4    Cr4   2.128203 S    
C79   N7    1.424119 S    
C48   C52   1.417784 A    
C82   C86   1.419671 A    
C27   C31   1.388460 A    
N7    O65   1.296312 A    
C96   C100  1.398681 A    
C16   O36   1.298975 A    
C78   C98   1.391627 A    
C57   C61   1.404100 A    
N34   O119  1.303521 A    
C30   C38   1.488599 S    
N30   O112  1.301621 A    
N12   O75   1.307722 A    
C6    O18   1.325565 A    
O28   Cr4   2.119918 S    
C53   N29   1.428785 S    
C39   C40   1.508699 S    
N11   O74   1.295130 A    
C93   C97   1.398609 A    
O45   Cr9   1.946781 S    
N8    O68   1.300577 A    
C45   C49   1.420216 A    
C12   C64   1.471745 S    
N5    O62   1.300543 A    
N4    O59   1.302217 A    
C43   C63   1.396817 A    
N4    O60   1.297434 A    
N16   O83   1.296629 A    
O16   C8    1.332777 A    
C69   C73   1.408985 A    
O8    C4    1.338400 A    
C28   C35   1.404838 A    
C90   N14   1.459247 S    
N26   O103  1.301534 A    
N7    O66   1.300543 A    
N33   O117  1.303485 A    
