data_mof_unit_15921.cif
_audit_creation_date              2012-12-10T17:31:09-0500
_audit_creation_method            fapswitch 2.2
_symmetry_space_group_name_H-M    P1
_symmetry_Int_Tables_number       1
_space_group_crystal_system       triclinic
_cell_length_a                    11.986295
_cell_length_b                    12.920411
_cell_length_c                    15.459254
_cell_angle_alpha                 87.179376
_cell_angle_beta                  115.375446
_cell_angle_gamma                 93.441618
_cell_volume                      2158.51911637

loop_
_atom_site_label
_atom_site_type_symbol
_atom_type_description
_atom_site_fract_x
_atom_site_fract_y
_atom_site_fract_z
_atom_type_partial_charge
C1    C     C_R   0.477573 0.299480 0.499188 0.903512
C2    C     C_R   0.522441 0.700515 0.500843 0.900847
C3    C     C_R   0.657423 0.586289 0.109610 -0.224277
C4    C     C_R   0.363135 0.593249 0.888673 -0.227758
C5    C     C_R   0.743921 0.580274 0.072491 -0.232074
C6    C     C_R   0.276226 0.596224 0.925674 -0.233787
C7    C     C_R   0.535936 0.811692 0.501541 -0.080120
C8    C     C_R   0.464124 0.188284 0.498603 -0.083225
C9    C     C_R   0.339089 0.030921 0.479320 0.007988
C10   C     C_R   0.661022 0.969034 0.520957 0.007861
C11   C     C_R   0.350977 0.138095 0.482839 -0.238913
C12   C     C_R   0.649104 0.861866 0.517365 -0.239218
C13   C     C_R   0.566660 0.132539 0.512373 -0.265253
C14   C     C_R   0.433429 0.867430 0.487845 -0.265368
C15   C     C_R   0.557680 0.025701 0.508585 0.112327
C16   C     C_R   0.442429 0.974261 0.491685 0.111928
C17   C     C_R   0.002218 0.597043 0.408678 -0.321433
C18   C     C_R   0.997650 0.402813 0.591094 -0.318199
C19   C     C_R   0.123337 0.588093 0.418039 0.023729
C20   C     C_R   0.876595 0.411792 0.581820 0.022891
C21   C     C_R   0.161429 0.458484 0.540094 -0.051451
C22   C     C_R   0.838511 0.541515 0.459848 -0.049034
C23   C     C_R   0.576369 0.497194 0.680511 0.875882
C24   C     C_R   0.424346 0.507674 0.319583 0.878928
C25   C     C_R   0.040252 0.464825 0.533265 0.087937
C26   C     C_R   0.959659 0.535145 0.466607 0.091038
C27   C     C_R   0.624389 0.512874 0.783380 -0.061628
C28   C     C_R   0.381304 0.529173 0.216964 -0.060263
C29   C     C_R   0.791283 0.544715 0.939458 -0.199267
C30   C     C_R   0.222154 0.569502 0.059537 -0.200038
C31   C     C_R   0.751233 0.521260 0.843239 -0.195912
C32   C     C_R   0.256948 0.545075 0.156323 -0.198462
C33   C     C_R   0.538996 0.529586 0.819734 -0.256934
C34   C     C_R   0.470223 0.541098 0.181161 -0.260936
C35   C     C_R   0.576729 0.558864 0.913898 0.092607
C36   C     C_R   0.438440 0.569116 0.085676 0.092496
C37   C     C_R   0.704733 0.562047 0.975543 0.177775
C38   C     C_R   0.311737 0.579304 0.023391 0.177905
C39   C     C_R   0.489179 0.577497 0.949478 0.067421
C40   C     C_R   0.528935 0.578489 0.049481 0.070426
H1    H     H_    0.841527 0.585466 0.120495 0.144013
H2    H     H_    0.180209 0.606881 0.877140 0.148931
H3    H     H_    0.844505 0.363946 0.626738 0.129725
H4    H     H_    0.155398 0.635839 0.373045 0.127621
H5    H     H_    0.942437 0.651786 0.356504 0.146603
H6    H     H_    0.057344 0.347912 0.643105 0.151947
H7    H     H_    0.564390 0.524207 0.228223 0.160793
H8    H     H_    0.442078 0.516653 0.773942 0.158974
H9    H     H_    0.187025 0.537830 0.183366 0.152535
H10   H     H_    0.818880 0.509842 0.815859 0.154347
H11   H     H_    0.889490 0.548704 0.985686 0.129426
H12   H     H_    0.125312 0.578941 0.012709 0.129759
H13   H     H_    0.693389 0.599240 0.185456 0.141544
H14   H     H_    0.329848 0.605425 0.812218 0.154023
H15   H     H_    0.346056 0.827021 0.474592 0.174922
H16   H     H_    0.654025 0.172952 0.525605 0.175313
H17   H     H_    0.728214 0.817671 0.527700 0.169038
H18   H     H_    0.271856 0.182286 0.472480 0.169957
H19   H     H_    0.775677 0.595495 0.409064 0.121768
H20   H     H_    0.224238 0.404492 0.590867 0.126930
N1    N     N_R   0.799120 0.480200 0.517090 -0.098447
N2    N     N_R   0.200880 0.519800 0.482910 -0.098566
O1    O     O_R   0.580150 0.341050 0.504560 -0.623358
O2    O     O_R   0.419850 0.658950 0.495440 -0.625435
O3    O     O_R   0.388090 0.353760 0.493600 -0.622009
O4    O     O_R   0.611910 0.646240 0.506400 -0.624331
O5    O     O_R   0.650890 0.490020 0.640860 -0.621133
O6    O     O_R   0.349110 0.509980 0.359140 -0.620593
O7    O     O_R   0.458830 0.502730 0.629890 -0.621243
O8    O     O_R   0.541170 0.497270 0.370110 -0.619919
Zn1   Zn    Zn3+2 0.628240 0.491510 0.507320 0.943472
Zn2   Zn    Zn3+2 0.371760 0.508490 0.492680 0.942915
C41   C     C_1   0.220095 0.981861 0.462662 0.137861
N3    N     N_1   0.124939 0.942651 0.449367 -0.197929
C42   C     C_1   0.780039 0.018076 0.537669 0.137852
N4    N     N_1   0.875220 0.057265 0.551010 -0.197254

loop_
_geom_bond_atom_site_label_1
_geom_bond_atom_site_label_2
_ccdc_geom_bond_type
C8    C13   A    
C5    C37   A    
C1    C8    S    
C41   N3    T    
C23   O7    A    
C2    C7    S    
C24   O8    A    
C27   C33   A    
C17   C26   A    
C35   C37   A    
C9    C16   A    
C17   H5    S    
C10   C15   A    
C19   N2    A    
C15   C16   A    
C18   H6    S    
C30   C38   A    
C23   O5    A    
C20   N1    A    
C21   C25   A    
C33   C35   A    
C7    C14   A    
C1    O3    A    
C6    C38   A    
O8    Zn1   S    
C23   C27   S    
C11   H18   S    
O5    Zn1   S    
C13   H16   S    
N1    Zn1   S    
C14   H15   S    
C28   C34   A    
C18   C25   A    
C9    C41   S    
C1    O1    A    
C2    O2    A    
C7    C12   A    
C27   C31   A    
C36   C40   A    
C21   H20   S    
C4    C6    A    
C22   H19   S    
C3    C5    A    
C25   C26   A    
O7    Zn2   S    
C35   C39   A    
C42   N4    T    
C10   C42   S    
O4    Zn1   S    
C4    C39   A    
C28   C32   A    
O6    Zn2   S    
N2    Zn2   S    
C9    C11   A    
C21   N2    A    
C10   C12   A    
C12   H17   S    
O1    Zn1   S    
C3    C40   A    
C13   C15   A    
C6    H2    S    
C14   C16   A    
C31   H10   S    
C39   C40   A    
C20   H3    S    
C19   H4    S    
C29   H11   S    
C5    H1    S    
C4    H14   S    
C24   C28   S    
C2    O4    A    
O3    Zn2   S    
C36   C38   A    
C29   C31   A    
C22   N1    A    
C30   C32   A    
C3    H13   S    
C30   H12   S    
C8    C11   A    
C17   C19   A    
C34   C36   A    
C18   C20   A    
O2    Zn2   S    
C32   H9    S    
C24   O6    A    
C22   C26   A    
C29   C37   A    
C33   H8    S    
C34   H7    S    
