data_mof_unit_28758.cif
_audit_creation_date              2012-12-10T19:44:27-0500
_audit_creation_method            fapswitch 2.2
_symmetry_space_group_name_H-M    P1
_symmetry_Int_Tables_number       1
_space_group_crystal_system       triclinic
_cell_length_a                    10.906299
_cell_length_b                    12.600279
_cell_length_c                    13.139269
_cell_angle_alpha                 117.360184
_cell_angle_beta                  73.309369
_cell_angle_gamma                 99.823602
_cell_volume                      1534.49705001

loop_
_atom_site_label
_atom_site_type_symbol
_atom_type_description
_atom_site_fract_x
_atom_site_fract_y
_atom_site_fract_z
_atom_type_partial_charge
C1    C     C_R   0.518683 0.854897 0.284150 0.828272
C2    C     C_R   0.623723 0.760311 0.733369 0.186767
C3    C     C_R   0.033111 0.967210 0.577260 0.361120
C4    C     C_R   0.128254 0.007252 0.503296 -0.159316
C5    C     C_R   0.092429 0.047586 0.431426 -0.107673
C6    C     C_R   0.966382 0.024681 0.417535 0.344076
C7    C     C_R   0.870997 0.991046 0.495462 -0.159552
C8    C     C_R   0.904923 0.954727 0.570624 -0.120384
C9    C     C_R   0.122173 0.257213 0.452015 0.068013
C10   C     C_R   0.173779 0.338583 0.402296 0.324453
C11   C     C_R   0.282649 0.309018 0.307194 0.366211
C12   C     C_R   0.736823 0.997734 0.498791 0.834629
C13   C     C_R   0.331822 0.195227 0.253428 0.317091
C14   C     C_R   0.269176 0.107423 0.291030 0.224603
C15   C     C_R   0.168392 0.139642 0.394464 -0.057038
C16   C     C_R   0.268157 0.315756 0.020700 0.511259
C17   C     C_R   0.443441 0.231540 0.845351 -0.068341
C18   C     C_R   0.642648 0.788211 0.070160 -0.075609
C19   C     C_R   0.672732 0.698095 0.953495 0.441451
C20   C     C_R   0.596400 0.593889 0.919000 0.446690
C21   C     C_R   0.501400 0.566462 0.003687 -0.165155
C22   C     C_R   0.457711 0.661635 0.116645 -0.139174
C23   C     C_R   0.478247 0.145390 0.716223 0.816878
C24   C     C_R   0.446770 0.447653 0.977227 -0.093957
C25   C     C_R   0.326600 0.432206 0.048660 -0.036398
C26   C     C_R   0.269169 0.532565 0.150054 0.436937
C27   C     C_R   0.335110 0.645430 0.185298 0.308923
C28   C     C_R   0.511116 0.343111 0.885265 0.131107
C29   C     C_R   0.329856 0.215360 0.922932 -0.018156
C30   C     C_R   0.535616 0.770608 0.154722 -0.115373
C31   C     C_R   0.692322 0.331158 0.308049 0.072356
C32   C     C_R   0.325242 0.769486 0.654216 0.481835
C33   C     C_R   0.276898 0.676035 0.687123 0.147130
C34   C     C_R   0.262813 0.002718 0.501716 0.894965
C35   C     C_R   0.326137 0.562154 0.616721 0.519731
C36   C     C_R   0.438274 0.545162 0.524470 -0.105599
C37   C     C_R   0.483178 0.641848 0.489547 0.040470
C38   C     C_R   0.508549 0.435312 0.463767 -0.059106
C39   C     C_R   0.597906 0.415715 0.356393 -0.011023
C40   C     C_R   0.594916 0.485161 0.301515 0.164988
C41   C     C_R   0.573464 0.606571 0.372930 0.227556
C42   C     C_R   0.499969 0.345412 0.504106 0.506539
C43   C     C_R   0.674087 0.243034 0.346231 0.512214
C44   C     C_R   0.633509 0.886885 0.792303 0.319482
C45   C     C_R   0.726628 0.950629 0.741273 0.369139
C46   C     C_R   0.811718 0.888893 0.631191 -0.131372
C47   C     C_R   0.811905 0.762773 0.579218 0.065806
C48   C     C_R   0.718749 0.698631 0.630755 0.450254
Cu1   Cu    Cu3+1 0.529370 0.098270 0.475420 0.962471
Cu2   Cu    Cu3+1 0.470630 0.901730 0.524580 1.014421
N1    N     N_R   0.573890 0.246290 0.438210 -0.304194
N2    N     N_R   0.426890 0.754320 0.561170 -0.224335
O1    O     O_R   0.536940 0.972510 0.318130 -0.590398
O2    O     O_R   0.487330 0.806530 0.359650 -0.548512
O3    O     O_R   0.705160 0.082990 0.479250 -0.554198
O4    O     O_R   0.655550 0.917010 0.520760 -0.613186
O5    O     O_R   0.512670 0.193470 0.640350 -0.577458
O6    O     O_R   0.463060 0.027490 0.681870 -0.522052
O7    O     O_R   0.344450 0.082990 0.479240 -0.618805
O8    O     O_R   0.294840 0.917010 0.520750 -0.447464
O9    O     O_3   0.523971 0.695001 0.773634 -0.737097
H1    H     H_    0.451645 0.747135 0.826248 0.325440
O10   O     O_3   0.340867 0.388254 0.260674 -0.686929
H2    H     H_    0.310656 0.469562 0.315960 0.361262
O11   O     O_3   0.437007 0.170664 0.158715 -0.669906
H3    H     H_    0.471244 0.093752 0.138548 0.377642
O12   O     O_3   0.303635 0.990609 0.221485 -0.745076
H4    H     H_    0.225371 0.938313 0.225199 0.318578
C49   C     C_3   0.281306 0.093041 0.913494 -0.710714
H5    H     H_    0.198786 0.064608 0.872102 0.231156
H6    H     H_    0.358086 0.028301 0.866523 0.304471
H7    H     H_    0.248961 0.094676 0.002464 0.242432
O13   O     O_3   0.147535 0.518428 0.214310 -0.667907
H8    H     H_    0.128585 0.587547 0.292576 0.366202
O14   O     O_3   0.152075 0.300962 0.092090 -0.667376
H9    H     H_    0.102330 0.231888 0.044107 0.313429
C50   C     C_3   0.655991 0.339972 0.848742 -0.742645
H10   H     H_    0.684595 0.273282 0.868599 0.253232
H11   H     H_    0.692719 0.315748 0.753137 0.260407
H12   H     H_    0.704867 0.423906 0.900958 0.226209
C51   C     C_3   0.722103 0.903767 0.101511 -0.758165
H13   H     H_    0.793968 0.911267 0.025859 0.241722
H14   H     H_    0.658632 0.978643 0.135330 0.270431
H15   H     H_    0.774104 0.912419 0.166279 0.242664
O15   O     O_3   0.617105 0.520502 0.799972 -0.669640
H16   H     H_    0.534324 0.479383 0.783706 0.378475
O16   O     O_3   0.777223 0.708925 0.869395 -0.685060
H17   H     H_    0.852593 0.732830 0.904335 0.327636
O17   O     O_3   0.556419 0.951441 0.901934 -0.686487
H18   H     H_    0.534013 0.902350 0.946329 0.332775
O18   O     O_3   0.270638 0.739722 0.281440 -0.743968
H19   H     H_    0.291937 0.810632 0.265542 0.325078
O19   O     O_3   0.761777 0.155906 0.290294 -0.719243
H20   H     H_    0.724522 0.090492 0.310760 0.391519
C52   C     C_3   0.621826 0.431368 0.167406 -0.748013
H21   H     H_    0.549355 0.461213 0.143492 0.253550
H22   H     H_    0.718136 0.459360 0.127481 0.201538
H23   H     H_    0.613642 0.332205 0.127290 0.294637
C53   C     C_3   0.818479 0.338603 0.223813 -0.681640
H24   H     H_    0.840162 0.429126 0.227066 0.222885
H25   H     H_    0.899107 0.321891 0.249734 0.283113
H26   H     H_    0.817486 0.270826 0.132451 0.236075
O20   O     O_3   0.430403 0.363762 0.614901 -0.691599
H27   H     H_    0.375497 0.290670 0.606101 0.365277
O21   O     O_3   0.262870 0.873931 0.706451 -0.682476
H28   H     H_    0.173606 0.861227 0.746286 0.340122
O22   O     O_3   0.256292 0.464481 0.627983 -0.704691
H29   H     H_    0.191175 0.489403 0.703863 0.374678
O23   O     O_3   0.178616 0.693033 0.786176 -0.750061
H30   H     H_    0.190097 0.774735 0.848219 0.322325
C54   C     C_3   0.674268 0.674624 0.315405 -0.753211
H31   H     H_    0.770499 0.641902 0.295880 0.192621
H32   H     H_    0.657846 0.657881 0.229781 0.203911
H33   H     H_    0.687710 0.767781 0.358514 0.253124
O24   O     O_3   0.734235 0.073163 0.804638 -0.709268
H34   H     H_    0.813331 0.106943 0.768325 0.304980
C55   C     C_3   0.914597 0.696781 0.470464 -0.680242
H35   H     H_    0.925441 0.729534 0.402994 0.204975
H36   H     H_    0.007308 0.712257 0.495374 0.264026
H37   H     H_    0.893643 0.598863 0.428192 0.261815
O25   O     O_3   0.724039 0.575660 0.578475 -0.717097
H38   H     H_    0.653179 0.541620 0.622070 0.405467
O26   O     O_3   0.068078 0.944963 0.658518 -0.716184
H39   H     H_    0.993015 0.947540 0.723250 0.324248
O27   O     O_3   0.932547 0.041763 0.332553 -0.720267
H40   H     H_    0.009659 0.039623 0.269525 0.331768
C56   C     C_3   0.015323 0.294118 0.563942 -0.729549
H41   H     H_    0.016020 0.392167 0.618728 0.255688
H42   H     H_    0.025959 0.254309 0.620630 0.213086
H43   H     H_    0.920891 0.265020 0.541232 0.253880
O28   O     O_3   0.120104 0.446981 0.443696 -0.714413
H44   H     H_    0.026455 0.438269 0.473495 0.360370

loop_
_geom_bond_atom_site_label_1
_geom_bond_atom_site_label_2
_ccdc_geom_bond_type
C23   O6    A    
O16   H17   S    
O19   H20   S    
C16   O14   S    
C17   C29   A    
O13   H8    S    
C52   H21   S    
C1    O2    A    
C42   O20   S    
C18   C51   S    
C51   H13   S    
C52   H23   S    
C7    C8    A    
C13   O11   S    
C50   H10   S    
C26   C27   A    
C17   C23   S    
C31   C43   A    
C37   C41   A    
C36   C37   A    
C38   C42   A    
C19   O16   S    
C55   H36   S    
C5    C6    A    
O24   H34   S    
C26   O13   S    
Cu1   O5    S    
C18   C19   A    
C49   H6    S    
C1    O1    A    
C10   O28   S    
C32   N2    A    
C43   O19   S    
C53   H24   S    
C2    C44   A    
Cu1   N1    S    
Cu2   N2    S    
O22   H29   S    
C27   O18   S    
C18   C30   A    
C31   C53   S    
C9    C10   A    
C2    O9    S    
C42   N1    A    
C21   C22   A    
C34   O8    A    
O9    H1    S    
C51   H14   S    
C3    O26   S    
C29   C49   S    
C50   H11   S    
C7    C12   S    
C4    C34   S    
O12   H4    S    
Cu2   O6    S    
O26   H39   S    
C38   C39   A    
C24   C25   A    
C3    C8    A    
C55   H37   S    
O18   H19   S    
C37   N2    A    
C2    C48   A    
C25   C26   A    
O15   H16   S    
Cu2   O4    S    
C3    C4    A    
C35   C36   A    
C49   H7    S    
O14   H9    S    
C56   H42   S    
C45   O24   S    
C47   C48   A    
C14   O12   S    
C20   O15   S    
C54   H32   S    
Cu2   O2    S    
C28   C50   S    
O25   H38   S    
C12   O4    A    
C40   C41   A    
C53   H25   S    
O11   H3    S    
C32   O21   S    
C34   O7    A    
C33   O23   S    
C40   C52   S    
C56   H41   S    
C48   O25   S    
C51   H15   S    
C44   C45   A    
C50   H12   S    
C16   C25   A    
C23   O5    A    
C46   C47   A    
C22   C30   A    
C54   H31   S    
C17   C28   A    
C24   C28   A    
C6    O27   S    
C4    C5    A    
C52   H22   S    
C9    C56   S    
C6    C7    A    
O21   H28   S    
C11   O10   S    
Cu1   O7    S    
C22   C27   A    
Cu2   O8    S    
C32   C33   A    
C19   C20   A    
C36   C38   A    
C16   C29   A    
C56   H43   S    
Cu1   O3    S    
C55   H35   S    
C11   C13   A    
C43   N1    A    
O27   H40   S    
Cu1   O1    S    
C1    C30   S    
C33   C35   A    
C31   C39   A    
C54   H33   S    
C9    C15   A    
C49   H5    S    
C8    C46   S    
C5    C15   S    
C12   O3    A    
C35   O22   S    
C10   C11   A    
O10   H2    S    
C39   C40   A    
C45   C46   A    
C47   C55   S    
C53   H26   S    
C20   C21   A    
Cu1   Cu2   S    
C41   C54   S    
C21   C24   A    
O23   H30   S    
O20   H27   S    
C14   C15   A    
O17   H18   S    
C13   C14   A    
C44   O17   S    
O28   H44   S    
