data_mof_unit_61586.cif
_audit_creation_date              2012-12-10T20:47:26-0500
_audit_creation_method            fapswitch 2.2
_symmetry_space_group_name_H-M    P1
_symmetry_Int_Tables_number       1
_space_group_crystal_system       triclinic
_cell_length_a                    17.916963
_cell_length_b                    19.214072
_cell_length_c                    19.217536
_cell_angle_alpha                 94.78445
_cell_angle_beta                  99.148777
_cell_angle_gamma                 103.460904
_cell_volume                      6302.04023948

loop_
_atom_site_label
_atom_site_type_symbol
_atom_type_description
_atom_site_fract_x
_atom_site_fract_y
_atom_site_fract_z
_atom_type_partial_charge
C1    C     C_R   0.492087 0.506629 0.688209 0.797015
C2    C     C_R   0.920284 0.429132 0.444011 -0.190124
C3    C     C_R   0.960556 0.391338 0.405644 -0.236447
C4    C     C_R   0.507620 0.493855 0.311973 0.787381
C5    C     C_R   0.041617 0.409376 0.418781 0.168277
C6    C     C_R   0.084072 0.466085 0.472857 0.133037
C7    C     C_R   0.080699 0.370484 0.378451 -0.196687
C8    C     C_R   0.161781 0.387066 0.391055 -0.203358
C9    C     C_R   0.166238 0.482492 0.483469 -0.248161
C10   C     C_R   0.507427 0.489421 0.235202 0.002277
C11   C     C_R   0.473386 0.535168 0.194519 -0.223164
C12   C     C_R   0.839757 0.606973 0.615522 -0.217306
C13   C     C_R   0.470919 0.529963 0.121480 -0.167406
C14   C     C_R   0.502363 0.478457 0.087640 0.321282
C15   C     C_R   0.535307 0.432225 0.128133 -0.194992
C16   C     C_R   0.491664 0.309062 0.490852 0.784118
C17   C     C_R   0.538659 0.438038 0.201515 -0.214826
C18   C     C_R   0.460667 0.453179 0.867813 -0.164458
C19   C     C_R   0.458887 0.449115 0.794704 -0.223284
C20   C     C_R   0.493169 0.519510 0.911474 0.320947
C21   C     C_R   0.490267 0.510845 0.764505 0.001341
C22   C     C_R   0.521454 0.576999 0.808037 -0.207825
C23   C     C_R   0.837406 0.517419 0.518506 -0.215759
C24   C     C_R   0.521851 0.581298 0.880784 -0.189533
C25   C     C_R   0.508474 0.768214 0.514987 -0.002629
C26   C     C_R   0.471935 0.795439 0.457011 -0.220940
C27   C     C_R   0.469451 0.867469 0.462095 -0.165934
C28   C     C_R   0.508053 0.691316 0.509548 0.798202
C29   C     C_R   0.503536 0.913926 0.525652 0.321370
C30   C     C_R   0.539061 0.886491 0.583773 -0.190049
C31   C     C_R   0.542295 0.814316 0.578416 -0.211106
C32   C     C_R   0.463682 0.118447 0.536367 -0.165226
C33   C     C_R   0.461730 0.190856 0.538884 -0.225089
C34   C     C_R   0.918875 0.527638 0.535852 0.010711
C35   C     C_R   0.492095 0.086093 0.480962 0.320701
C36   C     C_R   0.489003 0.231860 0.486810 0.006659
C37   C     C_R   0.516084 0.199044 0.431187 -0.212044
C38   C     C_R   0.516550 0.126522 0.427929 -0.194849
C39   C     C_R   0.288493 0.459175 0.459126 0.791522
C40   C     C_R   0.712269 0.540054 0.540076 0.803612
C41   C     C_R   0.797778 0.555616 0.558354 -0.022068
C42   C     C_R   0.204103 0.443037 0.443437 0.014002
C43   C     C_R   0.920612 0.619958 0.632454 -0.136232
C44   C     C_R   0.960630 0.581011 0.593109 0.024586
C45   C     C_R   0.959831 0.487070 0.497420 0.068445
C46   C     C_R   0.042978 0.504141 0.513833 -0.019728
C47   C     C_R   0.082128 0.557843 0.571277 -0.310675
C48   C     C_R   0.041724 0.595013 0.610391 0.599630
F1    F     F_    0.082694 0.645572 0.665305 -0.669502
H1    H     H_    0.434301 0.397600 0.762042 0.163240
H2    H     H_    0.203045 0.525579 0.522120 0.125814
H3    H     H_    0.442672 0.087809 0.577213 0.152464
H4    H     H_    0.564904 0.921357 0.633133 0.144329
H5    H     H_    0.570116 0.794370 0.624127 0.163992
H6    H     H_    0.536670 0.229424 0.389985 0.161046
H7    H     H_    0.440152 0.886519 0.416548 0.152184
H8    H     H_    0.537405 0.101938 0.384548 0.143250
H9    H     H_    0.445005 0.760994 0.407599 0.167569
H10   H     H_    0.927744 0.347406 0.365215 0.145824
H11   H     H_    0.951707 0.660486 0.676591 0.195983
H12   H     H_    0.436373 0.404837 0.890068 0.151196
H13   H     H_    0.810195 0.637237 0.647069 0.168957
H14   H     H_    0.144426 0.571901 0.588703 0.180021
H15   H     H_    0.857748 0.409951 0.431159 0.143635
H16   H     H_    0.048459 0.326944 0.337441 0.141035
H17   H     H_    0.191514 0.356234 0.360253 0.133449
H18   H     H_    0.803013 0.480818 0.473342 0.157363
H19   H     H_    0.559040 0.391976 0.102747 0.143472
H20   H     H_    0.564522 0.401621 0.231650 0.163448
H21   H     H_    0.545249 0.625521 0.785779 0.163020
H22   H     H_    0.443644 0.565617 0.091491 0.153351
H23   H     H_    0.545950 0.632741 0.913676 0.144591
H24   H     H_    0.448552 0.575032 0.219115 0.167578
H25   H     H_    0.440455 0.215111 0.582165 0.162498
N1    N     N_2   0.500357 0.470770 0.013219 -0.201514
N2    N     N_2   0.496141 0.526694 0.985886 -0.202329
N3    N     N_2   0.501965 0.987727 0.533053 -0.199784
N4    N     N_2   0.494687 0.012751 0.475212 -0.203932
O1    O     O_3   0.500000 0.500000 0.500000 -0.476238
O2    O     O_R   0.321500 0.427480 0.506110 -0.633839
O3    O     O_R   0.674970 0.575130 0.575140 -0.646381
O4    O     O_R   0.328550 0.507430 0.428780 -0.636614
O5    O     O_R   0.674980 0.489960 0.489960 -0.645750
O6    O     O_R   0.540930 0.349770 0.460420 -0.645237
O7    O     O_R   0.550820 0.667300 0.556650 -0.647620
O8    O     O_R   0.445640 0.455160 0.644460 -0.640367
O9    O     O_R   0.462610 0.527770 0.338470 -0.646977
O10   O     O_R   0.540910 0.554790 0.665460 -0.648142
O11   O     O_R   0.550840 0.462270 0.351610 -0.646190
O12   O     O_R   0.445650 0.335310 0.524600 -0.644291
O13   O     O_R   0.462600 0.647620 0.458330 -0.643032
Zn1   Zn    Zn3+2 0.565550 0.451340 0.451340 0.963581
Zn2   Zn    Zn3+2 0.429430 0.430690 0.543050 0.975557
Zn3   Zn    Zn3+2 0.439490 0.544930 0.432570 0.972701
Zn4   Zn    Zn3+2 0.565540 0.573040 0.573050 0.971377

loop_
_geom_bond_atom_site_label_1
_geom_bond_atom_site_label_2
_ccdc_geom_bond_type
C25   C31   A    
C1    C21   S    
O4    Zn3   S    
C27   C29   A    
C11   C13   A    
C9    H2    S    
N1    N2    D    
C6    C9    A    
C7    C8    A    
C4    O9    A    
N3    N4    D    
C25   C28   S    
C17   H20   S    
O5    Zn1   S    
C26   C27   A    
C29   C30   A    
C16   O12   A    
C36   C37   A    
C19   C21   A    
C37   C38   A    
C8    C42   A    
O1    Zn2   S    
C12   C43   A    
C47   H14   S    
C5    C6    A    
O3    Zn4   S    
C10   C17   A    
O9    Zn3   S    
C16   O6    A    
C33   C36   A    
C20   N2    S    
C18   C19   A    
C23   H18   S    
C32   H3    S    
C20   C24   A    
C8    H17   S    
C1    O10   A    
O10   Zn4   S    
C13   C14   A    
C40   O5    A    
C2    H15   S    
C39   C42   S    
C2    C45   A    
C30   H4    S    
C32   C35   A    
C35   C38   A    
C34   C44   A    
O1    Zn3   S    
C11   H24   S    
C5    C7    A    
C27   H7    S    
C13   H22   S    
C25   C26   A    
C45   C46   A    
C43   C44   A    
O1    Zn4   S    
C12   C41   A    
O8    Zn2   S    
C7    H16   S    
C38   H8    S    
C12   H13   S    
C47   C48   A    
C23   C34   A    
C9    C42   A    
C34   C45   A    
O11   Zn1   S    
C26   H9    S    
O1    Zn1   S    
C43   H11   S    
C48   F1    S    
C22   C24   A    
C4    C10   S    
C24   H23   S    
O12   Zn2   S    
C4    O11   A    
C1    O8    A    
C15   C17   A    
C46   C47   A    
C40   C41   S    
C6    C46   A    
C40   O3    A    
C39   O4    A    
C3    C5    A    
C18   H12   S    
C35   N4    S    
C23   C41   A    
C39   O2    A    
C2    C3    A    
C32   C33   A    
O13   Zn3   S    
O7    Zn4   S    
C19   H1    S    
C30   C31   A    
C15   H19   S    
C28   O13   A    
C18   C20   A    
C31   H5    S    
C10   C11   A    
C37   H6    S    
C33   H25   S    
C29   N3    S    
C28   O7    A    
C14   C15   A    
O6    Zn1   S    
O2    Zn2   S    
C21   C22   A    
C22   H21   S    
C16   C36   S    
C44   C48   A    
C14   N1    S    
C3    H10   S    
