data_mof_unit_13454.cif
_audit_creation_date              2012-12-10T19:44:59-0500
_audit_creation_method            fapswitch 2.2
_symmetry_space_group_name_H-M    P1
_symmetry_Int_Tables_number       1
_space_group_crystal_system       triclinic
_cell_length_a                    14.971602
_cell_length_b                    10.86926
_cell_length_c                    13.84472
_cell_angle_alpha                 90.195277
_cell_angle_beta                  87.311649
_cell_angle_gamma                 88.83885
_cell_volume                      2249.99144987

loop_
_atom_site_label
_atom_site_type_symbol
_atom_type_description
_atom_site_fract_x
_atom_site_fract_y
_atom_site_fract_z
_atom_type_partial_charge
C1    C     C_R   0.497635 0.262452 0.499559 0.795298
C2    C     C_R   0.502371 0.737550 0.500431 0.795182
C3    C     C_R   0.052543 0.277489 0.484479 -0.193919
C4    C     C_R   0.947446 0.722540 0.515642 -0.196679
C5    C     C_R   0.329415 0.244285 0.247240 0.421908
C6    C     C_R   0.670080 0.755766 0.753259 0.421567
C7    C     C_R   0.359687 0.187456 0.330314 -0.142326
C8    C     C_R   0.640053 0.812453 0.670016 -0.141147
C9    C     C_R   0.439678 0.118072 0.326499 0.043923
C10   C     C_R   0.560133 0.881984 0.673538 0.043340
C11   C     C_R   0.487124 0.101319 0.237258 -0.117117
C12   C     C_R   0.512501 0.898999 0.762628 -0.118483
C13   C     C_R   0.456902 0.157567 0.153065 -0.065455
C14   C     C_R   0.542487 0.842956 0.846993 -0.065194
C15   C     C_R   0.377892 0.229870 0.159103 -0.219468
C16   C     C_R   0.621438 0.770509 0.841276 -0.220753
C17   C     C_R   0.478039 0.933214 0.418533 -0.219981
C18   C     C_R   0.522062 0.066797 0.581376 -0.218993
C19   C     C_R   0.504166 0.871599 0.501583 -0.074260
C20   C     C_R   0.495895 0.128407 0.498355 -0.074280
C21   C     C_R   0.527235 0.939301 0.584251 0.049832
C22   C     C_R   0.472822 0.060717 0.415674 0.049789
C23   C     C_R   0.329014 0.500289 0.502035 0.795333
C24   C     C_R   0.670985 0.499731 0.497968 0.795049
C25   C     C_R   0.568648 0.446430 0.789950 0.053639
C26   C     C_R   0.431319 0.553448 0.210034 0.052104
C27   C     C_R   0.429295 0.555358 0.797754 0.097628
C28   C     C_R   0.570832 0.444861 0.202262 0.099884
C29   C     C_R   0.426334 0.556716 0.901944 -0.140739
C30   C     C_R   0.573950 0.443784 0.098059 -0.139680
C31   C     C_R   0.499056 0.501121 0.948360 0.112603
C32   C     C_R   0.501088 0.499055 0.051640 0.111552
C33   C     C_R   0.570070 0.447244 0.891561 0.011511
C34   C     C_R   0.429963 0.552727 0.108424 0.009319
C35   C     C_R   0.354622 0.610098 0.962671 -0.017417
C36   C     C_R   0.645930 0.391063 0.037316 -0.021695
C37   C     C_R   0.357835 0.606027 0.063466 -0.178700
C38   C     C_R   0.642300 0.394223 0.936492 -0.183646
C39   C     C_R   0.811364 0.610313 0.501105 -0.135485
C40   C     C_R   0.188620 0.389717 0.499050 -0.134549
C41   C     C_R   0.767475 0.499487 0.493519 -0.014077
C42   C     C_R   0.232520 0.500549 0.506509 -0.014897
C43   C     C_R   0.815051 0.388093 0.485991 -0.179093
C44   C     C_R   0.184948 0.611953 0.513978 -0.179926
C45   C     C_R   0.908670 0.385431 0.489577 0.045124
C46   C     C_R   0.091323 0.614603 0.510462 0.044529
C47   C     C_R   0.953200 0.499025 0.498740 0.059445
C48   C     C_R   0.046789 0.501006 0.501352 0.059010
C49   C     C_R   0.903975 0.611037 0.505074 0.119714
C50   C     C_R   0.096011 0.388992 0.495059 0.119404
C51   C     C_R   0.959347 0.273714 0.482757 -0.015953
C52   C     C_R   0.040646 0.726318 0.517290 -0.017938
Cu1   Cu    Cu3+1 0.500010 0.499980 0.597420 0.990477
Cu2   Cu    Cu3+1 0.499990 0.500020 0.402580 0.990065
H1    H     H_    0.773250 0.695875 0.504007 0.115988
H2    H     H_    0.226727 0.304151 0.496218 0.116504
H3    H     H_    0.458663 0.881760 0.355853 0.172071
H4    H     H_    0.541426 0.118252 0.644061 0.172049
H5    H     H_    0.622971 0.402733 0.747448 0.157119
H6    H     H_    0.376945 0.597050 0.252520 0.157419
H7    H     H_    0.303177 0.646812 0.107842 0.161848
H8    H     H_    0.696964 0.353519 0.892084 0.161581
H9    H     H_    0.777736 0.305003 0.477492 0.151999
H10   H     H_    0.222266 0.695058 0.522388 0.152898
H11   H     H_    0.091625 0.192399 0.478910 0.178183
H12   H     H_    0.908367 0.807632 0.521224 0.178110
H13   H     H_    0.353618 0.274961 0.095501 0.211589
H14   H     H_    0.645522 0.725546 0.905021 0.210004
H15   H     H_    0.321781 0.197713 0.398127 0.127766
H16   H     H_    0.678090 0.801957 0.602303 0.127556
H17   H     H_    0.548291 0.046156 0.234198 0.209882
H18   H     H_    0.451389 0.954273 0.765441 0.211209
N1    N     N_R   0.499960 0.499900 0.743810 -0.230209
N2    N     N_R   0.500040 0.500100 0.256190 -0.230422
O1    O     O_R   0.500000 0.319630 0.582270 -0.590624
O2    O     O_R   0.500000 0.680370 0.417730 -0.590994
O3    O     O_R   0.499990 0.319660 0.417730 -0.550415
O4    O     O_R   0.500010 0.680340 0.582270 -0.550949
O5    O     O_R   0.370260 0.499960 0.582280 -0.566696
O6    O     O_R   0.629740 0.500040 0.417720 -0.566553
O7    O     O_R   0.370250 0.499990 0.417740 -0.577812
O8    O     O_R   0.629750 0.500010 0.582260 -0.577811
C53   C     C_2   0.354557 0.611262 0.747433 0.916051
O9    O     O_2   0.283962 0.556722 0.744770 -0.572813
O10   O     O_R   0.362652 0.727941 0.706538 -0.737388
H19   H     H_    0.306162 0.756833 0.675147 0.331678
C54   C     C_2   0.645320 0.388388 0.252666 0.914195
O11   O     O_2   0.715992 0.442653 0.255829 -0.571329
O12   O     O_R   0.636748 0.271770 0.293547 -0.738614
H20   H     H_    0.693001 0.242627 0.325278 0.326192
C55   C     C_2   0.273287 0.671828 0.928437 0.870477
O13   O     O_2   0.277096 0.775325 0.894523 -0.547063
O14   O     O_R   0.191155 0.613578 0.940099 -0.686117
H21   H     H_    0.139956 0.665096 0.915277 0.363524
C56   C     C_2   0.728029 0.331294 0.071648 0.873300
O15   O     O_2   0.799498 0.383216 0.060763 -0.508599
O16   O     O_R   0.724782 0.213539 0.111570 -0.723545
H22   H     H_    0.785527 0.182252 0.131183 0.357030
C57   C     C_2   0.918802 0.151034 0.473795 0.855852
O17   O     O_2   0.855106 0.122254 0.526865 -0.594512
O18   O     O_R   0.956597 0.066042 0.406921 -0.719464
H23   H     H_    0.923657 0.985487 0.407197 0.333754
C58   C     C_2   0.081197 0.848999 0.526182 0.859484
O19   O     O_2   0.144818 0.877786 0.472991 -0.593776
O20   O     O_R   0.043481 0.933986 0.593122 -0.716622
H24   H     H_    0.076383 0.014566 0.592752 0.335662
Cl1   Cl    Cl    0.230737 0.334313 0.253360 -0.584071
Cl2   Cl    Cl    0.768650 0.665500 0.747476 -0.590569
C59   C     C_2   0.507897 0.141193 0.059371 0.886073
O21   O     O_2   0.481953 0.191284 0.986518 -0.592035
O22   O     O_R   0.585599 0.067542 0.053735 -0.702367
H25   H     H_    0.614828 0.064683 0.986168 0.342240
C60   C     C_2   0.491275 0.859721 0.940510 0.878564
O23   O     O_2   0.517086 0.810054 0.013595 -0.593177
O24   O     O_R   0.413479 0.933218 0.945690 -0.701343
H26   H     H_    0.384153 0.936496 0.013203 0.342660

loop_
_geom_bond_atom_site_label_1
_geom_bond_atom_site_label_2
_ccdc_geom_bond_type
C4    H12   S    
C54   O11   D    
C52   C58   S    
O18   H23   S    
C27   C29   A    
C34   C37   A    
C1    O3    A    
O22   H25   S    
C28   N2    A    
O16   H22   S    
C43   H9    S    
C39   C41   A    
Cu1   O1    S    
Cu1   Cu2   S    
C44   H10   S    
O14   H21   S    
C23   C42   S    
C4    C52   A    
C53   O9    D    
C19   C21   A    
C59   O22   S    
C11   H17   S    
C9    C22   S    
C45   C51   A    
O24   H26   S    
C18   C21   A    
C46   C52   A    
Cu1   O5    S    
C24   O8    A    
C13   C59   S    
C24   O6    A    
Cu2   N2    S    
C26   C34   A    
C39   H1    S    
C31   C32   A    
C40   H2    S    
C31   C33   A    
C16   H14   S    
C25   N1    A    
C53   O10   S    
Cu2   O3    S    
C40   C42   A    
C12   H18   S    
C24   C41   S    
C41   C43   A    
C3    H11   S    
C42   C44   A    
C3    C50   A    
C44   C46   A    
Cu2   O6    S    
C45   C47   A    
C10   C21   S    
C51   C57   S    
C46   C48   A    
C1    O1    A    
C47   C49   A    
C55   O13   D    
C5    C7    A    
C3    C51   A    
C17   C19   A    
C6    C8    A    
O10   H19   S    
C38   H8    S    
Cu1   O8    S    
C32   C34   A    
C2    O4    A    
C55   O14   S    
C9    C11   A    
C47   C48   A    
C15   H13   S    
C28   C54   S    
C56   O16   S    
C58   O20   S    
C43   C45   A    
C10   C12   A    
Cu2   O2    S    
C57   O18   S    
C12   C14   A    
C13   C15   A    
C14   C16   A    
C58   O19   D    
C2    O2    A    
C60   O23   D    
C5    Cl1   S    
C7    C9    A    
C1    C20   S    
C23   O7    A    
C35   C37   A    
C2    C19   S    
Cu1   N1    S    
C33   C38   A    
C20   C22   A    
C7    H15   S    
C37   H7    S    
C39   C49   A    
C14   C60   S    
O20   H24   S    
C29   C35   A    
C8    H16   S    
C17   C22   A    
C57   O17   D    
C30   C36   A    
C4    C49   A    
C36   C38   A    
Cu1   O4    S    
C28   C30   A    
C29   C31   A    
C59   O21   D    
C30   C32   A    
C11   C13   A    
C36   C56   S    
C40   C50   A    
C48   C50   A    
C26   N2    A    
C18   H4    S    
C18   C20   A    
C5    C15   A    
C6    C16   A    
C27   C53   S    
C8    C10   A    
C25   C33   A    
C56   O15   D    
C54   O12   S    
C6    Cl2   S    
C25   H5    S    
C23   O5    A    
O12   H20   S    
C27   N1    A    
C26   H6    S    
Cu2   O7    S    
C17   H3    S    
C60   O24   S    
C35   C55   S    
