data_mof_unit_14733.cif
_audit_creation_date              2012-12-11T17:47:27-0500
_audit_creation_method            fapswitch 2.2
_symmetry_space_group_name_H-M    P1
_symmetry_Int_Tables_number       1
_space_group_crystal_system       triclinic
_cell_length_a                    14.895763
_cell_length_b                    15.047046
_cell_length_c                    15.070157
_cell_angle_alpha                 109.801467
_cell_angle_beta                  109.083406
_cell_angle_gamma                 108.954389
_cell_volume                      2618.364001

loop_
_atom_site_label
_atom_site_type_symbol
_atom_type_description
_atom_site_fract_x
_atom_site_fract_y
_atom_site_fract_z
_atom_type_partial_charge
C1    C     C_R   0.905597 0.194588 0.991309 -0.160989
C2    C     C_R   0.831500 0.960422 0.920133 -0.267941
C3    C     C_3   0.193423 0.258396 0.694264 -0.945644
C4    C     C_3   0.594687 0.878075 0.160880 -0.423148
C5    C     C_3   0.602975 0.837974 0.241909 -0.912578
C6    C     C_R   0.045622 0.039249 0.669408 -0.165719
C7    C     C_R   0.766532 0.891004 0.156066 -0.168285
C8    C     C_R   0.981142 0.986591 0.704272 -0.259559
C9    C     C_R   0.824926 0.887954 0.100061 -0.275425
C10   C     C_R   0.724726 0.234224 0.218836 -0.119137
C11   C     C_R   0.365812 0.876074 0.847094 -0.127950
C12   C     C_R   0.824738 0.315375 0.310096 -0.164307
C13   C     C_R   0.321673 0.767905 0.770802 -0.196821
C14   C     C_R   0.917543 0.302299 0.332428 0.021035
C15   C     C_R   0.022066 0.746763 0.934055 -0.126289
C16   C     C_R   0.208932 0.703683 0.699967 0.041050
C17   C     C_R   0.908915 0.204693 0.263958 0.200425
C18   C     C_R   0.139332 0.748972 0.703276 0.217713
C19   C     C_R   0.296989 0.803535 0.207943 -0.143268
C20   C     C_R   0.685214 0.246009 0.776652 -0.134385
C21   C     C_R   0.807900 0.125615 0.170733 -0.180286
C22   C     C_R   0.185660 0.857605 0.780792 -0.197224
C23   C     C_R   0.716632 0.139891 0.148545 -0.168573
C24   C     C_R   0.297834 0.920909 0.852099 -0.130311
C25   C     C_R   0.048949 0.398631 0.523213 -0.262762
C26   C     C_R   0.298491 0.865830 0.301810 0.057793
C27   C     C_R   0.160382 0.583161 0.519111 -0.225761
C28   C     C_R   0.105426 0.498710 0.618314 0.056042
C29   C     C_R   0.079668 0.488785 0.421871 0.075146
C30   C     C_R   0.165470 0.592542 0.616054 0.033095
C31   C     C_R   0.022784 0.394875 0.424613 0.034821
C32   C     C_R   0.026868 0.008788 0.811041 0.124414
C33   C     C_R   0.771156 0.840381 0.986818 0.134330
C34   C     C_R   0.205485 0.117684 0.841274 -0.235617
C35   C     C_R   0.598976 0.798514 0.986648 -0.248303
C36   C     C_R   0.086934 0.958639 0.409933 -0.213088
C37   C     C_R   0.676389 0.221011 0.675055 0.049035
C38   C     C_R   0.793396 0.007015 0.501247 -0.157462
C39   C     C_R   0.188579 0.013611 0.418545 0.248010
C40   C     C_R   0.707293 0.018584 0.512114 0.262405
C41   C     C_R   0.279628 0.012304 0.486151 0.057660
C42   C     C_R   0.671441 0.081807 0.474093 0.029136
C43   C     C_R   0.225385 0.409143 0.973640 -0.139496
C44   C     C_R   0.788809 0.590173 0.094934 -0.147481
C45   C     C_R   0.270043 0.965864 0.551515 -0.243432
C46   C     C_R   0.722160 0.130834 0.427012 -0.203369
C47   C     C_R   0.168893 0.912290 0.542476 -0.142764
C48   C     C_R   0.326554 0.500704 0.045927 0.059258
C49   C     C_R   0.810187 0.121199 0.421732 -0.106143
C50   C     C_R   0.076829 0.905833 0.469435 -0.167554
C51   C     C_R   0.846159 0.059930 0.458638 -0.187304
C52   C     C_R   0.476076 0.131471 0.567254 -0.257289
C53   C     C_R   0.479365 0.016203 0.381483 -0.227348
C54   C     C_R   0.575954 0.151478 0.570354 0.055566
C55   C     C_R   0.382788 0.978974 0.385120 0.045425
C56   C     C_R   0.576446 0.091177 0.475490 0.036257
C57   C     C_R   0.379441 0.042458 0.477183 0.065353
C58   C     C_R   0.157869 0.108771 0.739057 0.344857
C59   C     C_R   0.697880 0.499561 0.063978 0.084975
C60   C     C_R   0.653547 0.850726 0.100164 0.341059
C61   C     C_R   0.832877 0.873265 0.933664 0.048115
C62   C     C_R   0.955549 0.964433 0.850079 0.051556
C63   C     C_R   0.139814 0.072522 0.879371 -0.218538
C64   C     C_R   0.657248 0.793482 0.930538 -0.195472
C65   C     C_R   0.898820 0.832106 0.904805 0.059864
C66   C     C_R   0.904690 0.016380 0.894332 0.054197
C67   C     C_R   0.059488 0.588848 0.313917 -0.136743
C68   C     C_R   0.010726 0.410798 0.704384 -0.135901
C69   C     C_3   0.508112 0.472803 0.970854 0.301280
C70   C     C_R   0.043947 0.495570 0.322306 0.051572
C71   C     C_3   0.525248 0.528916 0.165309 0.296831
C72   C     C_3   0.504354 0.572238 0.037784 -0.215274
C73   C     C_3   0.529693 0.428346 0.097800 -0.221253
C74   C     C_3   0.428473 0.501341 0.063776 0.058789
C75   C     C_3   0.604990 0.499815 0.071907 0.112356
C76   C     C_3   0.431593 0.401612 0.995518 -0.301110
C77   C     C_3   0.603102 0.600499 0.140509 -0.224826
C78   C     C_R   0.315076 0.591563 0.063433 -0.155253
C79   C     C_R   0.698471 0.409141 0.002762 -0.147719
C80   C     C_R   0.976910 0.407834 0.218772 -0.117444
C81   C     C_R   0.075344 0.501158 0.703669 0.063264
C82   C     C_R   0.101707 0.590336 0.795847 -0.168432
C83   C     C_R   0.206979 0.800130 0.299830 -0.148985
C84   C     C_R   0.780813 0.257999 0.689169 -0.137579
C85   C     C_R   0.998004 0.197635 0.902313 -0.136443
C86   C     C_R   0.926606 0.742054 0.021724 -0.158326
C87   C     C_R   0.936415 0.131734 0.928890 0.065244
C88   C     C_R   0.942038 0.770837 0.947535 0.063161
C89   C     C_3   0.004651 0.183779 0.288751 -0.402626
C90   C     C_3   0.043971 0.179525 0.206522 -0.905410
C91   C     C_3   0.015752 0.681576 0.632618 -0.373639
C92   C     C_R   0.943473 0.868397 0.847314 -0.240424
C93   C     C_3   0.970778 0.714870 0.550882 -0.957114
C94   C     C_3   0.198580 0.072188 0.355589 -0.401923
C95   C     C_3   0.262542 0.194810 0.431724 -0.883079
C96   C     C_3   0.655523 0.961209 0.562167 -0.392674
C97   C     C_3   0.586653 0.839158 0.485237 -0.923051
C98   C     C_3   0.491891 0.438132 0.856120 -0.394965
C99   C     C_3   0.583364 0.518335 0.852842 -0.879634
C100  C     C_3   0.529693 0.560824 0.274689 -0.380190
C101  C     C_3   0.641208 0.594839 0.362611 -0.932816
C102  C     C_3   0.224578 0.173541 0.704164 -0.412490
H1    H     H_    0.845335 0.166497 0.014364 0.112698
H2    H     H_    0.452748 0.925194 0.902064 0.109103
H3    H     H_    0.830702 0.389690 0.362608 0.127747
H4    H     H_    0.375168 0.734101 0.766395 0.124137
H5    H     H_    0.799799 0.053404 0.113759 0.153257
H6    H     H_    0.133817 0.892241 0.785931 0.153275
H7    H     H_    0.005337 0.324524 0.521051 0.126408
H8    H     H_    0.205592 0.655531 0.518409 0.129653
H9    H     H_    0.895092 0.931162 0.650746 0.135494
H10   H     H_    0.913048 0.929447 0.145446 0.136257
H11   H     H_    0.358870 0.323876 0.933701 0.142666
H12   H     H_    0.055720 0.756606 0.882551 0.094227
H13   H     H_    0.676783 0.680748 0.200388 0.134356
H14   H     H_    0.345916 0.830962 0.173601 0.093792
H15   H     H_    0.620388 0.229336 0.796461 0.093424
H16   H     H_    0.176674 0.085239 0.960702 0.135000
H17   H     H_    0.614465 0.760481 0.843716 0.133568
H18   H     H_    0.997903 0.862403 0.460796 0.132241
H19   H     H_    0.911957 0.049878 0.449736 0.109833
H20   H     H_    0.015392 0.956235 0.356976 0.108217
H21   H     H_    0.815803 0.952269 0.520246 0.115109
H22   H     H_    0.339319 0.965044 0.604161 0.142980
H23   H     H_    0.008520 0.026665 0.588597 0.126972
H24   H     H_    0.694226 0.177436 0.395661 0.136682
H25   H     H_    0.162488 0.874810 0.591315 0.163123
H26   H     H_    0.849020 0.158691 0.386479 0.132294
H27   H     H_    0.473557 0.178322 0.638200 0.127392
H28   H     H_    0.484088 0.973911 0.310896 0.126750
H29   H     H_    0.982160 0.830856 0.811330 0.119683
H30   H     H_    0.781707 0.991781 0.942265 0.127802
H31   H     H_    0.489990 0.628407 0.010413 0.148843
H32   H     H_    0.542482 0.369771 0.122262 0.121386
H33   H     H_    0.206162 0.325408 0.940740 0.121147
H34   H     H_    0.811281 0.934088 0.243517 0.122584
H35   H     H_    0.816142 0.673245 0.150904 0.101387
H36   H     H_    0.107589 0.672071 0.378605 0.104568
H37   H     H_    0.988814 0.327672 0.655858 0.104670
H38   H     H_    0.377000 0.675265 0.111106 0.112830
H39   H     H_    0.642438 0.325800 0.973711 0.092131
H40   H     H_    0.955324 0.325174 0.191140 0.136446
H41   H     H_    0.166154 0.672043 0.834836 0.119952
H42   H     H_    0.173125 0.819294 0.351042 0.135330
H43   H     H_    0.807000 0.262827 0.631835 0.125781
H44   H     H_    0.018882 0.174861 0.839719 0.134086
H45   H     H_    0.292696 0.159508 0.892163 0.112145
H46   H     H_    0.866316 0.739754 0.045513 0.129903
H47   H     H_    0.977897 0.113715 0.124748 0.268194
H48   H     H_    0.072987 0.258080 0.208012 0.263152
H49   H     H_    0.112611 0.162539 0.225024 0.257553
H50   H     H_    0.074530 0.246807 0.370383 0.209902
H51   H     H_    0.980034 0.106163 0.289294 0.184420
H52   H     H_    0.880624 0.664839 0.503741 0.265301
H53   H     H_    0.992121 0.801036 0.592738 0.268756
H54   H     H_    0.002968 0.700966 0.493605 0.265410
H55   H     H_    0.987178 0.594011 0.586339 0.206582
H56   H     H_    0.512115 0.767541 0.941768 0.120132
H57   H     H_    0.977703 0.689369 0.684871 0.184657
H58   H     H_    0.219056 0.219943 0.473907 0.256467
H59   H     H_    0.345306 0.220367 0.493170 0.263919
H60   H     H_    0.271795 0.237329 0.385212 0.253723
H61   H     H_    0.238961 0.047881 0.309106 0.195741
H62   H     H_    0.116539 0.049543 0.295396 0.190376
H63   H     H_    0.517774 0.820683 0.411057 0.265060
H64   H     H_    0.637064 0.805590 0.462702 0.268130
H65   H     H_    0.552797 0.799422 0.525591 0.260021
H66   H     H_    0.720801 0.978069 0.638202 0.192610
H67   H     H_    0.639557 0.077610 0.076549 0.114630
H68   H     H_    0.602925 0.990567 0.584933 0.204870
H69   H     H_    0.616190 0.602150 0.916555 0.273372
H70   H     H_    0.650501 0.498779 0.864778 0.266777
H71   H     H_    0.552091 0.513395 0.772609 0.248985
H72   H     H_    0.485579 0.357121 0.820304 0.183725
H73   H     H_    0.414208 0.432216 0.806519 0.206207
H74   H     H_    0.660384 0.527655 0.341326 0.261201
H75   H     H_    0.705311 0.667180 0.372903 0.254558
H76   H     H_    0.641204 0.615658 0.440682 0.261776
H77   H     H_    0.512012 0.628918 0.296657 0.196039
H78   H     H_    0.332025 0.004693 0.911573 0.116442
H79   H     H_    0.466060 0.490893 0.268000 0.194429
H80   H     H_    0.104821 0.220267 0.638537 0.260047
H81   H     H_    0.214985 0.320459 0.774632 0.267653
H82   H     H_    0.237882 0.298936 0.660767 0.254698
H83   H     H_    0.312859 0.213306 0.761054 0.175164
H84   H     H_    0.210676 0.119644 0.624636 0.233202
H85   H     H_    0.551790 0.750141 0.200894 0.252649
H86   H     H_    0.687362 0.858267 0.292288 0.268789
H87   H     H_    0.572751 0.873782 0.294222 0.264997
H88   H     H_    0.630676 0.967459 0.204947 0.214971
H89   H     H_    0.653933 0.245292 0.201681 0.108988
H90   H     H_    0.507045 0.844024 0.104175 0.176380
N1    N     N_R   0.947560 0.293820 0.002910 -0.041334
N2    N     N_R   0.789450 0.443190 0.997090 -0.040099
N3    N     N_R   0.945970 0.443180 0.152110 -0.042431
N4    N     N_R   0.054030 0.556820 0.847890 -0.039154
N5    N     N_R   0.151530 0.706170 0.208880 -0.040148
N6    N     N_R   0.848470 0.293830 0.791120 -0.043053
N7    N     N_R   0.004980 0.293810 0.946140 -0.042408
N8    N     N_R   0.995020 0.706190 0.053860 -0.040019
N9    N     N_R   0.052440 0.706180 0.997090 -0.040283
N10   N     N_R   0.208960 0.706170 0.152110 -0.037457
N11   N     N_R   0.791040 0.293830 0.847890 -0.038629
N12   N     N_R   0.154330 0.443160 0.946140 -0.039025
N13   N     N_R   0.845670 0.556840 0.053860 -0.043158
N14   N     N_R   0.002190 0.556820 0.208880 -0.038536
N15   N     N_R   0.997810 0.443180 0.791120 -0.040836
N16   N     N_R   0.210550 0.556810 0.002910 -0.036186
Ni1   Ni    Ni4+2 0.869690 0.369690 0.000000 0.212328
Ni2   Ni    Ni4+2 0.130310 0.630310 0.000000 0.208313
Ni3   Ni    Ni4+2 0.001390 0.369680 0.869810 0.212529
Ni4   Ni    Ni4+2 0.998610 0.630320 0.130190 0.212862

loop_
_geom_bond_atom_site_label_1
_geom_bond_atom_site_label_2
_ccdc_geom_bond_type
C25   C31   A    
C65   C92   A    
N15   Ni3   S    
C1    C87   A    
C44   H35   S    
C98   H73   S    
N16   Ni2   S    
C59   C75   S    
C27   C29   A    
C6    C58   A    
C1    N1    A    
C14   C31   S    
C90   H48   S    
C80   N3    A    
C26   C55   S    
C81   C82   A    
C39   C41   A    
C84   H43   S    
C25   C28   A    
C46   C49   A    
C102  H84   S    
C64   H17   S    
C74   C76   S    
C26   C83   A    
C50   H18   S    
C52   H27   S    
C93   H52   S    
C40   C96   S    
N3    Ni1   S    
C82   H41   S    
C95   H59   S    
C83   H42   S    
C98   H72   S    
C86   C88   A    
C99   H69   S    
C44   C59   A    
C16   C30   S    
C97   H64   S    
C97   H63   S    
C11   C24   A    
C69   C76   S    
C93   H54   S    
C42   C46   A    
C45   C47   A    
C48   C78   A    
C67   H36   S    
C19   C26   A    
C4    H90   S    
C34   C63   A    
C101  H76   S    
C42   C56   S    
N6    N11   A    
C89   H51   S    
C85   N7    A    
C89   H50   S    
N12   N16   A    
C27   H8    S    
N8    N9    A    
C49   C51   A    
C62   C92   A    
C24   H78   S    
C2    H30   S    
C96   H66   S    
C37   C84   A    
C11   H2    S    
C58   C102  S    
C83   N5    A    
C43   C48   A    
C1    H1    S    
C91   H57   S    
C38   H21   S    
N2    N13   A    
C2    C61   A    
C25   H7    S    
N4    Ni2   S    
C69   C98   S    
C9    H10   S    
C40   C42   A    
C96   H68   S    
C27   C30   A    
C9    C33   A    
C73   C75   S    
C14   C17   A    
N10   Ni2   S    
C90   H47   S    
C20   H15   S    
C15   N9    A    
C52   C54   A    
C47   C50   A    
C53   C55   A    
C45   H22   S    
C54   C56   A    
C102  H83   S    
C91   H55   S    
C62   C66   A    
C85   C87   A    
C70   C80   A    
C95   H58   S    
C8    C32   A    
C48   C74   S    
C93   H53   S    
C92   H29   S    
C17   C89   S    
C85   H44   S    
C20   N11   A    
C72   C74   S    
C95   H60   S    
C59   C79   A    
C66   C87   S    
C71   C73   S    
C63   H16   S    
C90   H49   S    
C6    C8    A    
C38   C51   A    
C101  H74   S    
N13   Ni4   S    
C84   N6    A    
C97   H65   S    
C19   N10   A    
C17   C21   A    
C78   H38   S    
C35   C60   A    
C69   C72   S    
C36   H20   S    
C39   C94   S    
C72   C77   S    
C100  H79   S    
C4    H88   S    
C91   C93   S    
C75   C77   S    
C34   H45   S    
N1    Ni1   S    
C23   H67   S    
C99   H71   S    
C96   C97   S    
C4    C60   S    
C68   N15   A    
C76   H11   S    
C15   H12   S    
N5    N10   A    
N8    Ni4   S    
C43   H33   S    
N6    Ni3   S    
C79   N2    A    
C35   C64   A    
C67   N14   A    
C10   C12   A    
C37   C54   S    
C3    C102  S    
C33   C61   S    
C21   H5    S    
C12   C14   A    
C80   H40   S    
C55   C57   A    
C51   H19   S    
C73   C76   S    
C22   C24   A    
C8    H9    S    
C68   C81   A    
C12   H3    S    
C94   H62   S    
C7    C60   A    
C71   C77   S    
C36   C50   A    
C65   C88   S    
C29   C70   S    
C3    H82   S    
C53   C56   A    
C7    C9    A    
C49   H26   S    
C41   C45   A    
C28   C81   S    
C18   C22   A    
C82   N4    A    
C46   H24   S    
C36   C39   A    
C32   C63   A    
C13   H4    S    
C2    C66   A    
C86   H46   S    
C71   C74   S    
C61   C65   A    
C47   H25   S    
C99   H70   S    
C10   C23   A    
C71   C100  S    
C10   H89   S    
C67   C70   A    
N4    N15   A    
C21   C23   A    
N9    Ni2   S    
C41   C57   S    
C7    H34   S    
C29   C31   A    
N5    Ni4   S    
N1    N7    A    
N2    Ni1   S    
C38   C40   A    
C20   C37   A    
C11   C13   A    
C72   H31   S    
C79   H39   S    
N3    N14   A    
C19   H14   S    
C33   C64   A    
C22   H6    S    
N12   Ni3   S    
C28   C30   A    
C44   N13   A    
C69   C75   S    
N7    Ni3   S    
N14   Ni4   S    
C94   C95   S    
C3    H80   S    
C78   N16   A    
C35   H56   S    
C101  H75   S    
C52   C57   A    
C5    H87   S    
C18   C91   S    
C4    C5    S    
C73   H32   S    
C16   C18   A    
C98   C99   S    
C13   C16   A    
C43   N12   A    
C34   C58   A    
C5    H85   S    
N11   Ni1   S    
C68   H37   S    
C100  C101  S    
C53   H28   S    
C32   C62   S    
C5    H86   S    
C89   C90   S    
C77   H13   S    
C100  H77   S    
C3    H81   S    
C94   H61   S    
C6    H23   S    
C86   N8    A    
C15   C88   A    
