data_mof_unit_10267.cif
_audit_creation_date              2012-10-26T20:42:32-0400
_audit_creation_method            fapswitch 2.2
_symmetry_space_group_name_H-M    P1
_symmetry_Int_Tables_number       1
_space_group_crystal_system       triclinic
_cell_length_a                    10.829345
_cell_length_b                    9.5619
_cell_length_c                    10.914745
_cell_angle_alpha                 90.032099
_cell_angle_beta                  90.237476
_cell_angle_gamma                 90.002647
_cell_volume                      1130.20228725

loop_
_atom_site_label
_atom_site_type_symbol
_atom_type_description
_atom_site_fract_x
_atom_site_fract_y
_atom_site_fract_z
_atom_type_partial_charge
Br1   Br    Br    0.311020 0.158421 0.309978 -0.563989
Br2   Br    Br    0.688867 0.158592 0.690156 -0.565935
C1    C     C_R   0.262192 0.499988 0.500470 0.545882
C2    C     C_R   0.936163 0.373067 0.500592 -0.126357
C3    C     C_R   0.871717 0.500073 0.498681 0.007350
C4    C     C_R   0.128290 0.500099 0.500884 0.007256
C5    C     C_R   0.936121 0.627178 0.497458 -0.154616
C6    C     C_R   0.063888 0.627194 0.498729 -0.154459
C7    C     C_R   0.423353 0.072447 0.423050 0.248837
C8    C     C_R   0.576628 0.072539 0.576964 0.248853
C9    C     C_R   0.423871 0.924539 0.423684 0.039486
C10   C     C_R   0.576118 0.924639 0.576318 0.039504
C11   C     C_3   0.713005 0.629832 0.869221 0.009753
C12   C     C_R   0.737810 0.499985 0.499403 0.545976
C13   C     C_3   0.801662 0.512586 0.908524 -0.290757
C14   C     C_3   0.929744 0.534158 0.853992 -0.471386
C15   C     C_3   0.285507 0.625858 0.130793 0.010164
C16   C     C_3   0.198329 0.508571 0.088341 -0.289347
C17   C     C_3   0.070328 0.525331 0.144348 -0.470792
C18   C     C_R   0.493328 0.499920 0.265596 0.543497
C19   C     C_R   0.506933 0.500017 0.734401 0.543519
C20   C     C_2   0.493343 0.392151 0.933513 -0.097628
C21   C     C_2   0.507976 0.392259 0.066417 -0.097766
C22   C     C_2   0.531842 0.500534 0.865619 0.304947
C23   C     C_2   0.468409 0.500134 0.134427 0.305469
C24   C     C_R   0.063854 0.373083 0.502017 -0.126558
Cu1   Cu    Cu3+1 0.500000 0.640660 0.500000 0.957043
Cu2   Cu    Cu3+1 0.500000 0.359340 0.500000 1.034350
H1    H     H_    0.452959 0.299883 0.891240 0.124877
H2    H     H_    0.710743 0.639562 0.767788 0.139150
H3    H     H_    0.808526 0.510385 0.010099 0.169539
H4    H     H_    0.766076 0.409754 0.876847 0.195453
H5    H     H_    0.924103 0.537451 0.752630 0.172848
H6    H     H_    0.990645 0.445791 0.880493 0.161318
H7    H     H_    0.970850 0.633390 0.887834 0.151696
H8    H     H_    0.247412 0.727088 0.098062 0.169263
H9    H     H_    0.287020 0.632910 0.232444 0.138162
H10   H     H_    0.190835 0.510431 0.986806 0.168742
H11   H     H_    0.235627 0.405184 0.116361 0.195728
H12   H     H_    0.549343 0.300564 0.108622 0.124098
H13   H     H_    0.076472 0.522331 0.245698 0.174312
H14   H     H_    0.010021 0.438063 0.113855 0.161415
H15   H     H_    0.028213 0.626032 0.115557 0.150947
H16   H     H_    0.111771 0.273709 0.503845 0.172136
H17   H     H_    0.888263 0.273676 0.501279 0.173313
H18   H     H_    0.888086 0.726525 0.496029 0.144766
H19   H     H_    0.111925 0.726544 0.497527 0.144452
H20   H     H_    0.362984 0.867541 0.362678 0.142319
H21   H     H_    0.636995 0.867732 0.637328 0.141588
H22   H     H_    0.750314 0.730646 0.903892 0.170174
N1    N     N_R   0.500000 0.852070 0.500000 -0.273516
N2    N     N_R   0.500000 0.147940 0.500000 -0.203688
O1    O     O_R   0.319640 0.618740 0.499990 -0.525273
O2    O     O_3   0.405097 0.610867 0.079884 -0.521030
O3    O     O_R   0.680360 0.618740 0.500010 -0.525659
O4    O     O_R   0.319620 0.381170 0.499990 -0.466750
O5    O     O_R   0.680380 0.381170 0.500010 -0.466923
O6    O     O_R   0.500000 0.618750 0.321940 -0.491876
O7    O     O_R   0.500000 0.618750 0.678060 -0.492210
O8    O     O_R   0.499970 0.381180 0.321940 -0.490291
O9    O     O_R   0.500030 0.381180 0.678060 -0.490271
O10   O     O_3   0.593857 0.612111 0.920464 -0.521109

loop_
_geom_bond_atom_site_label_1
_geom_bond_atom_site_label_2
_ccdc_geom_bond_type
C2    C24   A    
C16   H11   S    
Cu1   O1    S    
C13   H3    S    
Cu2   N2    S    
C15   H8    S    
C14   H5    S    
C18   O8    A    
C1    O1    A    
C1    O4    A    
C19   O9    A    
C17   H14   S    
C1    C4    S    
C8    N2    A    
Cu2   O9    S    
Cu2   O8    S    
C12   O3    A    
Cu2   O4    S    
C6    H19   S    
C24   H16   S    
C5    C6    A    
C19   O7    A    
Cu1   O7    S    
Cu2   O5    S    
C22   O10   S    
C7    C9    A    
C9    H20   S    
C4    C24   A    
C7    N2    A    
C8    C10   A    
C11   H22   S    
C20   H1    S    
Cu1   N1    S    
C10   H21   S    
Cu1   O3    S    
C2    H17   S    
C11   C13   S    
C14   H7    S    
C16   H10   S    
C20   C22   D    
C9    N1    A    
C18   C23   S    
C15   H9    S    
C18   O6    A    
C21   H12   S    
Br2   C8    S    
C5    H18   S    
C17   H13   S    
C11   H2    S    
C13   H4    S    
C10   N1    A    
Br1   C7    S    
C23   O2    S    
C15   C16   S    
C21   C23   D    
C19   C22   S    
Cu1   Cu2   S    
C3    C5    A    
C12   O5    A    
C20   C21   S    
C16   C17   S    
C4    C6    A    
C14   H6    S    
C3    C12   S    
C15   O2    S    
C11   O10   S    
C13   C14   S    
C17   H15   S    
C2    C3    A    
Cu1   O6    S    
