data_mof_unit_8317.cif
_audit_creation_date              2012-12-10T17:50:37-0500
_audit_creation_method            fapswitch 2.2
_symmetry_space_group_name_H-M    P1
_symmetry_Int_Tables_number       1
_space_group_crystal_system       triclinic
_cell_length_a                    15.701682
_cell_length_b                    10.612834
_cell_length_c                    10.02862
_cell_angle_alpha                 89.920076
_cell_angle_beta                  87.851365
_cell_angle_gamma                 94.10986
_cell_volume                      1665.67931634

loop_
_atom_site_label
_atom_site_type_symbol
_atom_type_description
_atom_site_fract_x
_atom_site_fract_y
_atom_site_fract_z
_atom_type_partial_charge
C1    C     C_R   0.507768 0.260373 0.499416 0.849930
C2    C     C_3   0.082805 0.495905 0.504207 -0.011900
C3    C     C_3   0.975657 0.607861 0.542917 0.379862
C4    C     C_3   0.916649 0.497962 0.491908 0.044729
C5    C     C_3   0.035690 0.589343 0.421408 0.415638
C6    C     C_3   0.976487 0.479244 0.368972 -0.367804
C7    C     C_1   0.173834 0.498334 0.507313 0.078487
C8    C     C_1   0.825933 0.499248 0.489999 0.026307
C9    C     C_R   0.560256 0.108243 0.730472 -0.126511
C10   C     C_R   0.557576 0.040353 0.849753 -0.343018
C11   C     C_R   0.503724 0.930492 0.865738 -0.058990
C12   C     C_R   0.338302 0.500498 0.502041 0.844403
C13   C     C_R   0.458495 0.883262 0.756234 0.535761
C14   C     C_R   0.478605 0.936093 0.628022 -0.059563
C15   C     C_R   0.516650 0.058571 0.619621 -0.016231
C16   C     C_R   0.513149 0.124344 0.498449 -0.274713
C17   C     C_R   0.494116 0.058384 0.379760 0.495092
C18   C     C_R   0.458457 0.934596 0.389022 -0.123152
C19   C     C_R   0.465617 0.868981 0.508273 -0.316103
C20   C     C_R   0.395362 0.323708 0.152671 -0.088930
C21   C     C_R   0.357134 0.217828 0.095357 -0.069695
C22   C     C_R   0.362506 0.203495 0.959641 -0.192629
C23   C     C_R   0.486714 0.737144 0.501728 0.918205
C24   C     C_R   0.395477 0.303968 0.878046 -0.022745
C25   C     C_R   0.446574 0.409587 0.933064 0.098498
C26   C     C_R   0.446641 0.413537 0.077407 0.087984
C27   C     C_R   0.558195 0.573681 0.064987 0.066687
C28   C     C_R   0.555759 0.575229 0.923347 -0.114490
C29   C     C_R   0.661703 0.500645 0.497709 0.909292
C30   C     C_3   0.961617 0.401942 0.574700 -0.230954
C31   C     C_3   0.023703 0.386128 0.453402 0.019563
C32   C     C_1   0.249260 0.499941 0.506378 -0.097887
C33   C     C_1   0.750625 0.500058 0.492301 -0.175103
C34   C     C_3   0.021383 0.512768 0.625296 -0.126998
H1    H     H_    0.385985 0.328449 0.257632 0.215487
H2    H     H_    0.319453 0.149275 0.156655 0.209223
H3    H     H_    0.327146 0.121882 0.918117 0.142633
H4    H     H_    0.600651 0.637460 0.865278 0.124387
H5    H     H_    0.928889 0.324274 0.635834 0.172093
H6    H     H_    0.955462 0.464540 0.265359 0.170639
H7    H     H_    0.600642 0.195202 0.723189 0.173833
H8    H     H_    0.596327 0.074379 0.930232 0.168328
N1    N     N_R   0.499210 0.498800 0.142780 -0.127242
N2    N     N_R   0.499180 0.498720 0.857170 -0.103095
O1    O     O_R   0.500000 0.316780 0.614690 -0.658766
O2    O     O_R   0.499990 0.316750 0.385360 -0.611225
O3    O     O_R   0.376780 0.500000 0.614650 -0.587856
O4    O     O_R   0.376770 0.499980 0.385310 -0.649994
O5    O     O_R   0.500010 0.683250 0.614640 -0.569767
O6    O     O_R   0.500000 0.683220 0.385310 -0.565049
O7    O     O_R   0.623230 0.500020 0.614690 -0.626487
O8    O     O_R   0.623220 0.500000 0.385350 -0.587139
Zn1   Zn    Zn3+2 0.500010 0.500020 0.653130 0.975851
Zn2   Zn    Zn3+2 0.499990 0.499980 0.346870 0.979430
C35   C     C_2   0.049145 0.260531 0.404233 0.428889
H9    H     H_    0.000394 0.189944 0.373808 0.042855
O9    O     O_2   0.124066 0.236757 0.398253 -0.576620
C36   C     C_2   0.498213 0.864548 0.995514 0.493835
H10   H     H_    0.541488 0.893781 0.072761 0.060807
O10   O     O_2   0.445256 0.776683 0.018528 -0.548790
O11   O     O_3   0.398004 0.782648 0.774456 -0.564374
C37   C     C_3   0.315221 0.820285 0.750349 0.123621
H11   H     H_    0.292617 0.774255 0.657345 0.124703
H12   H     H_    0.311664 0.924436 0.737552 0.067036
C38   C     C_3   0.254356 0.777982 0.867178 -0.404970
H13   H     H_    0.273352 0.830476 0.958467 0.260306
H14   H     H_    0.188551 0.801230 0.844288 0.151034
C39   C     C_3   0.254671 0.636262 0.893820 -0.615238
H15   H     H_    0.239509 0.583122 0.801630 0.258304
H16   H     H_    0.206028 0.607430 0.973210 0.216617
H17   H     H_    0.318018 0.611712 0.927285 0.305162
C40   C     C_2   0.402952 0.879114 0.284812 0.490195
H18   H     H_    0.379646 0.780457 0.289148 0.101760
O12   O     O_2   0.376871 0.945055 0.197853 -0.577095
C41   C     C_2   0.630713 0.651108 0.120134 0.372548
H19   H     H_    0.688144 0.671697 0.057909 0.021323
O13   O     O_2   0.627382 0.698615 0.230036 -0.532696
C42   C     C_2   0.344036 0.305110 0.760095 0.521746
H20   H     H_    0.358140 0.247327 0.674339 0.052558
O14   O     O_2   0.275530 0.352868 0.767170 -0.593156
O15   O     O_3   0.080288 0.685028 0.343006 -0.657799
C43   C     C_3   0.023390 0.747296 0.263671 0.087141
H21   H     H_    0.036716 0.850701 0.276628 0.161466
H22   H     H_    0.954387 0.726174 0.292224 0.149619
C44   C     C_3   0.039766 0.715429 0.116718 -0.327971
H23   H     H_    0.106595 0.747597 0.086505 0.230036
H24   H     H_    0.031390 0.611567 0.102504 0.247770
C45   C     C_3   0.978926 0.779420 0.027634 -0.954591
H25   H     H_    0.911562 0.748043 0.055341 0.270723
H26   H     H_    0.991969 0.753459 0.922210 0.269453
H27   H     H_    0.988133 0.883758 0.036884 0.266235
O16   O     O_3   0.941540 0.720788 0.587553 -0.640440
C46   C     C_3   0.008065 0.812480 0.615379 0.067844
H28   H     H_    0.047183 0.838741 0.523845 0.174234
H29   H     H_    0.050278 0.777792 0.691431 0.110404
C47   C     C_3   0.969310 0.931398 0.668594 -0.351505
H30   H     H_    0.929917 0.970547 0.590789 0.221124
H31   H     H_    0.927177 0.906962 0.757787 0.239443
C48   C     C_3   0.038580 0.031810 0.706800 -0.916299
H32   H     H_    0.076808 0.996178 0.787994 0.261819
H33   H     H_    0.008493 0.117779 0.742414 0.281000
H34   H     H_    0.081615 0.057708 0.619124 0.285258
C49   C     C_2   0.046366 0.525805 0.767464 0.464948
H35   H     H_    0.089594 0.603693 0.796704 0.021854
O17   O     O_2   0.018202 0.448661 0.851144 -0.562300
O18   O     O_3   0.510687 0.113983 0.255265 -0.603096
C50   C     C_3   0.600588 0.129160 0.229505 0.111997
H36   H     H_    0.621745 0.043826 0.177975 0.135356
H37   H     H_    0.638553 0.141742 0.321109 0.109165
C51   C     C_3   0.622951 0.245528 0.141209 -0.338889
H38   H     H_    0.580308 0.245357 0.055577 0.224954
H39   H     H_    0.613240 0.331855 0.199736 0.256674
C52   C     C_3   0.715937 0.252047 0.090071 -0.980800
H40   H     H_    0.759368 0.257826 0.175144 0.269824
H41   H     H_    0.729522 0.337592 0.026749 0.272687
H42   H     H_    0.728565 0.167518 0.029343 0.263994

loop_
_geom_bond_atom_site_label_1
_geom_bond_atom_site_label_2
_ccdc_geom_bond_type
C35   H9    S    
C46   H28   S    
C10   H8    S    
C2    C7    S    
C4    C8    S    
O15   C43   S    
C21   H2    S    
C44   H23   S    
O4    Zn2   S    
O6    Zn2   S    
C5    C6    S    
C42   O14   D    
C1    O2    A    
C23   O5    A    
O18   C50   S    
C36   O10   D    
C15   C16   A    
C47   C48   S    
C29   C33   S    
C18   C19   A    
C51   H38   S    
C37   H12   S    
C20   H1    S    
N2    Zn1   S    
C16   C17   A    
C38   H14   S    
C47   H31   S    
C50   H36   S    
C11   C36   S    
C9    C10   A    
C12   O4    A    
O3    Zn1   S    
C52   H42   S    
C2    C34   S    
C6    C31   S    
O1    Zn1   S    
C46   H29   S    
C21   C22   A    
C12   C32   S    
C50   H37   S    
C12   O3    A    
C27   C41   S    
C25   N2    A    
O8    Zn2   S    
C26   N1    A    
C44   H24   S    
C18   C40   S    
C30   C34   S    
C24   C25   A    
C4    C6    S    
C42   H20   S    
C39   H15   S    
C23   O6    A    
C3    C34   S    
C36   H10   S    
C22   H3    S    
C28   N2    A    
C3    O16   S    
O7    Zn1   S    
C19   C23   S    
C41   H19   S    
C37   H11   S    
C5    O15   S    
N1    Zn2   S    
C48   H32   S    
C45   H27   S    
C28   H4    S    
C38   C39   S    
C47   H30   S    
O2    Zn2   S    
C17   C18   A    
C49   O17   D    
C1    C16   S    
C20   C21   A    
C41   O13   D    
C51   C52   S    
C40   O12   D    
C48   H33   S    
C45   H26   S    
C38   H13   S    
C46   C47   S    
C43   H22   S    
C35   O9    D    
C50   C51   S    
C22   C24   A    
C2    C5    S    
C3    C4    S    
C49   H35   S    
C52   H40   S    
C29   O7    A    
C44   C45   S    
C24   C42   S    
C7    C32   T    
C37   C38   S    
C14   C19   A    
C40   H18   S    
C3    C5    S    
C43   C44   S    
C9    H7    S    
C34   C49   S    
C25   C26   A    
C17   O18   S    
C11   C13   A    
C1    O1    A    
C30   C31   S    
C20   C26   A    
C39   H17   S    
O5    Zn1   S    
O16   C46   S    
C30   H5    S    
C6    H6    S    
C8    C33   T    
C9    C15   A    
O11   C37   S    
C51   H39   S    
C10   C11   A    
C27   N1    A    
C48   H34   S    
C13   O11   S    
C45   H25   S    
C39   H16   S    
C43   H21   S    
C27   C28   A    
C14   C15   A    
C2    C31   S    
C31   C35   S    
C13   C14   A    
C4    C30   S    
C52   H41   S    
C29   O8    A    
