data_mof_unit_48665.cif
_audit_creation_date              2012-12-10T16:56:28-0500
_audit_creation_method            fapswitch 2.2
_symmetry_space_group_name_H-M    P1
_symmetry_Int_Tables_number       1
_space_group_crystal_system       triclinic
_cell_length_a                    7.852085
_cell_length_b                    8.558667
_cell_length_c                    15.699882
_cell_angle_alpha                 92.109503
_cell_angle_beta                  85.041339
_cell_angle_gamma                 93.399113
_cell_volume                      1048.75442154

loop_
_atom_site_label
_atom_site_type_symbol
_atom_type_description
_atom_site_fract_x
_atom_site_fract_y
_atom_site_fract_z
_atom_type_partial_charge
Br1   Br    Br    0.040058 0.307484 0.398531 -0.345903
Br2   Br    Br    0.959942 0.692516 0.601469 -0.345903
C1    C     C_R   0.545257 0.794336 0.497913 0.951143
C2    C     C_3   0.401541 0.377893 0.028103 0.055471
C3    C     C_1   0.502606 0.500685 0.750591 -0.102628
C4    C     C_1   0.497394 0.499315 0.249409 -0.102629
C5    C     C_3   0.339198 0.511499 0.977632 -0.244131
C6    C     C_3   0.660802 0.488501 0.022368 -0.244132
C7    C     C_3   0.502590 0.501515 0.916809 0.172242
C8    C     C_3   0.497410 0.498485 0.083192 0.172242
C9    C     C_1   0.503165 0.501085 0.825893 0.021519
C10   C     C_1   0.496835 0.498914 0.174107 0.021519
C11   C     C_2   0.710274 0.760751 0.942175 0.381025
C12   C     C_R   0.454743 0.205664 0.502087 0.951143
C13   C     C_2   0.289726 0.239249 0.057825 0.381025
C14   C     C_R   0.500869 0.500371 0.661764 0.890733
C15   C     C_R   0.499131 0.499629 0.338236 0.890733
C16   C     C_2   0.569095 0.957820 0.496693 -0.342056
C17   C     C_2   0.430905 0.042180 0.503307 -0.342056
C18   C     C_3   0.436382 0.633719 0.034070 -0.247006
C19   C     C_3   0.563618 0.366281 0.965929 -0.247006
C20   C     C_3   0.598458 0.622107 0.971897 0.055470
H1    H     H_    0.385258 0.743227 0.063448 0.161543
H2    H     H_    0.614742 0.256773 0.936551 0.161543
H3    H     H_    0.792203 0.479954 0.042221 0.154891
H4    H     H_    0.207797 0.520046 0.957778 0.154891
H5    H     H_    0.699898 0.008206 0.490352 0.210015
H6    H     H_    0.300102 0.991794 0.509648 0.210015
H7    H     H_    0.770619 0.837389 0.988707 0.061279
H8    H     H_    0.229382 0.162610 0.011292 0.061279
N1    N     N_2   0.950320 0.457950 0.477300 0.075027
N2    N     N_2   0.049680 0.542050 0.522700 0.075027
O1    O     O_R   0.389250 0.738570 0.505570 -0.606462
O2    O     O_2   0.265864 0.211674 0.133744 -0.538821
O3    O     O_R   0.610750 0.261430 0.494430 -0.606462
O4    O     O_R   0.678390 0.711630 0.491020 -0.594122
O5    O     O_R   0.321610 0.288370 0.508980 -0.594122
O6    O     O_R   0.355460 0.513480 0.630490 -0.602620
O7    O     O_R   0.644540 0.486520 0.369510 -0.602619
O8    O     O_R   0.644600 0.486540 0.615950 -0.584614
O9    O     O_R   0.355400 0.513460 0.384050 -0.584614
O10   O     O_2   0.734135 0.788327 0.866255 -0.538821
Zn1   Zn    Zn3+2 0.306940 0.517990 0.509710 1.073477
Zn2   Zn    Zn3+2 0.693060 0.482010 0.490290 1.073477

loop_
_geom_bond_atom_site_label_1
_geom_bond_atom_site_label_2
_ccdc_geom_bond_type
O5    Zn1   S    
C6    C20   S    
O7    Zn2   S    
C2    C19   S    
C7    C9    S    
C13   O2    D    
N1    N2    D    
C18   H1    S    
O8    Zn2   S    
C2    C13   S    
C6    C19   S    
O6    Zn1   S    
C12   O5    A    
C4    C10   T    
O3    Zn2   S    
O9    Zn1   S    
C7    C19   S    
C5    H4    S    
C8    C10   S    
C1    O4    A    
C14   O8    A    
C2    C5    S    
Br2   N2    S    
C11   H7    S    
C11   O10   D    
N2    Zn1   S    
C18   C20   S    
C11   C20   S    
C3    C9    T    
C17   H6    S    
C15   O9    A    
C7    C20   S    
O4    Zn2   S    
N1    Zn2   S    
C1    O1    A    
C6    H3    S    
O1    Zn1   S    
Br1   N1    S    
C1    C16   S    
C6    C8    S    
C16   C17   D    
C13   H8    S    
C19   H2    S    
C14   O6    A    
C12   O3    A    
C5    C7    S    
C4    C15   S    
C15   O7    A    
C3    C14   S    
C2    C8    S    
C12   C17   S    
C5    C18   S    
C16   H5    S    
C8    C18   S    
