data_mof_unit_9933.cif
_audit_creation_date              2012-12-10T17:50:43-0500
_audit_creation_method            fapswitch 2.2
_symmetry_space_group_name_H-M    P1
_symmetry_Int_Tables_number       1
_space_group_crystal_system       triclinic
_cell_length_a                    14.762271
_cell_length_b                    14.724276
_cell_length_c                    15.887349
_cell_angle_alpha                 76.672643
_cell_angle_beta                  103.083475
_cell_angle_gamma                 114.865815
_cell_volume                      3015.86597744

loop_
_atom_site_label
_atom_site_type_symbol
_atom_type_description
_atom_site_fract_x
_atom_site_fract_y
_atom_site_fract_z
_atom_type_partial_charge
C1    C     C_R   0.880401 0.312328 0.514185 0.809852
C2    C     C_R   0.119543 0.687604 0.486200 0.809423
C3    C     C_R   0.782105 0.028303 0.530385 -0.173738
C4    C     C_R   0.219087 0.967428 0.493465 -0.173528
C5    C     C_R   0.848982 0.129076 0.528245 -0.124035
C6    C     C_R   0.151425 0.868367 0.486234 -0.129942
C7    C     C_R   0.709257 0.178329 0.517879 -0.236611
C8    C     C_R   0.290637 0.821568 0.487975 -0.232336
C9    C     C_R   0.640028 0.077111 0.520553 0.091709
C10   C     C_R   0.361047 0.919721 0.499556 0.091386
C11   C     C_R   0.678176 0.001964 0.525475 0.152791
C12   C     C_R   0.323311 0.993391 0.500946 0.153125
C13   C     C_R   0.534147 0.048995 0.515925 0.072462
C14   C     C_R   0.467338 0.946493 0.509966 0.071622
C15   C     C_R   0.509140 0.873894 0.516488 -0.203923
C16   C     C_R   0.492938 0.119589 0.518017 -0.202672
C17   C     C_R   0.612409 0.901333 0.524567 -0.203951
C18   C     C_R   0.389733 0.091983 0.510842 -0.201693
C19   C     C_R   0.712931 0.669294 0.353690 -0.162855
C20   C     C_R   0.287317 0.331136 0.646786 -0.163474
C21   C     C_R   0.794313 0.637693 0.375432 0.103253
C22   C     C_R   0.205977 0.362788 0.624983 0.103688
C23   C     C_R   0.999952 0.500111 0.659927 0.818726
C24   C     C_R   0.000068 0.499925 0.340070 0.818649
C25   C     C_R   0.715372 0.510672 0.488502 -0.000855
C26   C     C_R   0.284644 0.489244 0.511493 -0.002093
C27   C     C_R   0.628841 0.536401 0.467600 -0.023426
C28   C     C_R   0.371445 0.463933 0.532871 -0.022519
C29   C     C_R   0.631086 0.619989 0.401432 0.070823
C30   C     C_R   0.369253 0.380478 0.599170 0.072351
C31   C     C_R   0.540999 0.483132 0.510665 0.098368
C32   C     C_R   0.459461 0.517432 0.490074 0.095820
C33   C     C_R   0.469559 0.605459 0.428796 -0.236902
C34   C     C_R   0.531182 0.395501 0.572402 -0.234336
C35   C     C_R   0.552576 0.654708 0.385248 -0.141506
C36   C     C_R   0.448062 0.346140 0.615796 -0.148996
C37   C     C_3   0.000302 0.411392 0.048026 -0.295341
C38   C     C_3   0.999856 0.588970 0.951929 -0.295297
C39   C     C_3   0.918006 0.423836 0.971432 -0.031295
C40   C     C_3   0.082148 0.576526 0.028528 -0.030962
C41   C     C_1   0.999941 0.500304 0.749406 -0.091796
C42   C     C_1   0.000147 0.499857 0.250578 -0.090912
C43   C     C_3   0.082367 0.488246 0.992316 -0.049379
C44   C     C_3   0.917793 0.512120 0.007646 -0.049312
C45   C     C_3   0.000108 0.499598 0.916613 0.091917
C46   C     C_3   0.000052 0.500762 0.083345 0.091815
C47   C     C_1   0.000082 0.500192 0.824874 0.094611
C48   C     C_1   0.000053 0.500081 0.175097 0.095414
C49   C     C_R   0.812694 0.204710 0.521258 -0.047969
C50   C     C_R   0.187187 0.794739 0.484476 -0.043559
Cu1   Cu    Cu3+1 0.081740 0.475690 0.522610 0.984357
Cu2   Cu    Cu3+1 0.918260 0.524310 0.477390 0.984200
H1    H     H_    0.278142 0.547464 0.458292 0.136368
H2    H     H_    0.721777 0.452119 0.541370 0.136158
H3    H     H_    0.414694 0.639410 0.413334 0.133114
H4    H     H_    0.586469 0.362068 0.588575 0.130434
H5    H     H_    0.000462 0.338658 0.087572 0.173413
H6    H     H_    0.999698 0.661703 0.912381 0.172884
H7    H     H_    0.640908 0.843168 0.529104 0.153224
H8    H     H_    0.361722 0.148535 0.513181 0.152547
H9    H     H_    0.313955 0.763780 0.481532 0.144979
H10   H     H_    0.684474 0.239009 0.510621 0.150880
H11   H     H_    0.071667 0.849025 0.484013 0.187398
H12   H     H_    0.928516 0.147891 0.529909 0.191724
H13   H     H_    0.811493 0.970972 0.534464 0.150168
H14   H     H_    0.190074 0.023407 0.495073 0.152481
H15   H     H_    0.464602 0.794178 0.517428 0.144885
H16   H     H_    0.538222 0.196875 0.527282 0.138488
H17   H     H_    0.554912 0.722158 0.339217 0.172272
H18   H     H_    0.445940 0.278930 0.662095 0.171240
N1    N     N_R   0.795440 0.560790 0.443380 -0.224208
N2    N     N_R   0.204560 0.439210 0.556620 -0.223939
O1    O     O_R   0.977900 0.338120 0.529810 -0.570600
O2    O     O_R   0.022100 0.661880 0.470190 -0.570982
O3    O     O_R   0.839850 0.379180 0.491620 -0.594300
O4    O     O_R   0.160150 0.620820 0.508380 -0.593986
O5    O     O_R   0.069010 0.479460 0.640020 -0.550746
O6    O     O_R   0.930990 0.520540 0.359980 -0.549911
O7    O     O_R   0.930960 0.520530 0.601820 -0.590846
O8    O     O_R   0.069040 0.479470 0.398180 -0.590385
C51   C     C_2   0.825136 0.337183 0.941418 0.845100
O9    O     O_2   0.766741 0.282311 0.992880 -0.555512
O10   O     O_R   0.805666 0.319517 0.855161 -0.772405
H19   H     H_    0.740682 0.259032 0.842989 0.343446
C52   C     C_2   0.175010 0.663184 0.058541 0.845218
O11   O     O_2   0.233404 0.718061 0.007078 -0.555577
O12   O     O_R   0.194473 0.680848 0.144796 -0.772528
H20   H     H_    0.259452 0.741339 0.156966 0.343497
C53   C     C_2   0.125879 0.315698 0.681189 0.927176
O13   O     O_2   0.053698 0.238036 0.665460 -0.589189
O14   O     O_R   0.139661 0.353270 0.758303 -0.702686
H21   H     H_    0.081795 0.312896 0.793314 0.345136
C54   C     C_2   0.875231 0.685928 0.320047 0.927070
O15   O     O_2   0.946727 0.763789 0.336575 -0.584720
O16   O     O_R   0.863002 0.649248 0.242808 -0.703585
H22   H     H_    0.921329 0.690358 0.208439 0.344294
C55   C     C_2   0.712437 0.751496 0.278822 0.836577
O17   O     O_2   0.781046 0.835234 0.278422 -0.560718
O18   O     O_R   0.633426 0.732361 0.208912 -0.727330
H23   H     H_    0.641334 0.793896 0.162078 0.351490
C56   C     C_2   0.287649 0.248873 0.721632 0.834844
O19   O     O_2   0.219030 0.165151 0.721868 -0.563902
O20   O     O_R   0.366425 0.267944 0.791735 -0.726724
H24   H     H_    0.358389 0.206358 0.838532 0.351503
C57   C     C_2   0.824481 0.525915 0.013127 0.435522
H25   H     H_    0.772935 0.533768 0.953964 0.072307
O21   O     O_2   0.805855 0.528218 0.083410 -0.480037
C58   C     C_2   0.175727 0.474518 0.986876 0.435287
H26   H     H_    0.227108 0.466392 0.046087 0.072972
O22   O     O_2   0.194598 0.472617 0.916574 -0.480428

loop_
_geom_bond_atom_site_label_1
_geom_bond_atom_site_label_2
_ccdc_geom_bond_type
C33   H3    S    
C4    H14   S    
O12   H20   S    
C34   H4    S    
C54   O15   D    
C27   C29   A    
C26   N2    A    
O16   H22   S    
Cu2   O3    S    
C51   O9    D    
C19   C55   S    
C20   C30   A    
C44   C57   S    
C40   C46   S    
C57   O21   D    
C56   O19   D    
C21   N1    A    
C19   C21   A    
Cu2   O2    S    
C24   C42   S    
C58   H26   S    
C15   C17   A    
C9    C13   A    
Cu1   O8    S    
C38   C45   S    
C2    C50   S    
C51   O10   S    
C38   H6    S    
C24   O8    A    
C40   C43   S    
O10   H19   S    
C36   H18   S    
C25   N1    A    
C4    C12   A    
Cu2   O7    S    
C2    O2    A    
C8    H9    S    
C39   C45   S    
C52   O12   S    
C54   O16   S    
C13   C14   A    
C5    C49   A    
C3    H13   S    
Cu2   O6    S    
C22   N2    A    
C55   O18   S    
C44   C46   S    
C55   O17   D    
C45   C47   S    
C46   C48   S    
C27   C31   A    
Cu1   Cu2   S    
C1    O3    A    
C28   C32   A    
C25   H2    S    
C7    C49   A    
C4    C6    A    
C10   C14   A    
O14   H21   S    
C20   C56   S    
C52   O11   D    
C6    C50   A    
C5    H12   S    
C40   C52   S    
C37   C43   S    
Cu1   O5    S    
C7    H10   S    
C38   C44   S    
C6    H11   S    
C9    C11   A    
C31   C32   A    
C15   H15   S    
C41   C47   T    
C31   C34   A    
C42   C48   T    
C23   O5    A    
C43   C45   S    
C39   C51   S    
C10   C12   A    
C17   H7    S    
C16   H16   S    
C18   H8    S    
C20   C22   A    
C53   O14   S    
Cu1   N2    S    
C19   C29   A    
C26   H1    S    
C8    C50   A    
C2    O4    A    
C56   O20   S    
C24   O6    A    
C7    C9    A    
C11   C17   A    
C8    C10   A    
Cu1   O1    S    
C3    C5    A    
C39   C44   S    
C25   C27   A    
C57   H25   S    
C29   C35   A    
C26   C28   A    
C23   C41   S    
O18   H23   S    
C30   C36   A    
C1    O1    A    
C32   C33   A    
C28   C30   A    
C53   O13   D    
C37   C39   S    
Cu2   N1    S    
C38   C40   S    
C21   C54   S    
C33   C35   A    
C22   C53   S    
C58   O22   D    
C34   C36   A    
C43   C58   S    
C3    C11   A    
Cu1   O4    S    
C35   H17   S    
C16   C18   A    
C13   C16   A    
C12   C18   A    
O20   H24   S    
C14   C15   A    
C23   O7    A    
C37   C46   S    
C1    C49   S    
C37   H5    S    
