data_mof_unit_35140.cif
_audit_creation_date              2013-03-05T15:42:41-0500
_audit_creation_method            fapswitch 2.2
_symmetry_space_group_name_H-M    P1
_symmetry_Int_Tables_number       1
_space_group_crystal_system       triclinic
_cell_length_a                    18.924031
_cell_length_b                    11.14682
_cell_length_c                    18.674004
_cell_angle_alpha                 89.699315
_cell_angle_beta                  90.595033
_cell_angle_gamma                 90.257995
_cell_volume                      3938.84043723

loop_
_atom_site_label
_atom_site_type_symbol
_atom_site_description
_atom_site_fract_x
_atom_site_fract_y
_atom_site_fract_z
_atom_type_partial_charge
O1    O     O_R   0.788190 0.043000 0.172520 -0.458767
O2    O     O_R   0.211810 0.043000 0.827480 -0.472678
O3    O     O_R   0.288190 0.543000 0.172520 -0.466951
O4    O     O_R   0.711810 0.543000 0.827480 -0.471220
O5    O     O_R   0.766240 0.292300 0.176860 -0.522501
O6    O     O_R   0.233760 0.292300 0.823140 -0.522774
O7    O     O_R   0.266240 0.792300 0.176860 -0.522917
O8    O     O_R   0.733760 0.792300 0.823140 -0.513471
C1    C     C_R   0.714304 0.334410 0.138337 0.621104
C2    C     C_R   0.285519 0.334236 0.861932 0.620817
C3    C     C_R   0.214304 0.834409 0.138336 0.621038
C4    C     C_R   0.785523 0.834229 0.861932 0.627917
O9    O     O_R   0.670310 0.409160 0.168720 -0.410683
O10   O     O_R   0.329690 0.409160 0.831280 -0.412417
O11   O     O_R   0.170310 0.909160 0.168720 -0.415016
O12   O     O_R   0.829690 0.909160 0.831280 -0.401735
O13   O     O_R   0.556160 0.251900 0.173380 -0.474139
O14   O     O_R   0.443840 0.251900 0.826620 -0.478990
O15   O     O_R   0.056160 0.751900 0.173380 -0.468983
O16   O     O_R   0.943840 0.751900 0.826620 -0.480555
C5    C     C_R   0.533969 0.154600 0.144153 0.608299
C6    C     C_R   0.465771 0.154416 0.855970 0.602519
C7    C     C_R   0.033948 0.654603 0.144168 0.612476
C8    C     C_R   0.965753 0.654413 0.855983 0.604795
O17   O     O_R   0.545410 0.050140 0.168240 -0.446966
O18   O     O_R   0.454590 0.050140 0.831760 -0.447535
O19   O     O_R   0.045410 0.550140 0.168240 -0.448607
O20   O     O_R   0.954590 0.550140 0.831760 -0.443862
O21   O     O_R   0.681530 0.958350 0.176970 -0.443258
O22   O     O_R   0.318470 0.958350 0.823030 -0.437755
O23   O     O_R   0.181530 0.458350 0.176970 -0.440956
O24   O     O_R   0.818470 0.458350 0.823030 -0.439630
C9    C     C_R   0.744170 0.963459 0.152027 0.644988
C10   C     C_R   0.255679 0.963391 0.847967 0.631601
C11   C     C_R   0.244168 0.463459 0.152027 0.638953
C12   C     C_R   0.755682 0.463401 0.847975 0.628326
O25   O     O_R   0.788610 0.044480 0.334450 -0.480913
O26   O     O_R   0.211390 0.044480 0.665550 -0.415926
O27   O     O_R   0.288610 0.544480 0.334450 -0.461717
O28   O     O_R   0.711390 0.544480 0.665550 -0.450420
O29   O     O_R   0.766630 0.293670 0.326970 -0.520968
O30   O     O_R   0.233370 0.293670 0.673030 -0.459106
O31   O     O_R   0.266630 0.793670 0.326970 -0.513142
O32   O     O_R   0.733370 0.793670 0.673030 -0.496754
C13   C     C_R   0.732003 0.377550 0.353858 0.546402
C14   C     C_R   0.267309 0.386848 0.648983 0.560159
C15   C     C_R   0.233442 0.884284 0.350718 0.544919
C16   C     C_R   0.789519 0.833018 0.638368 0.551011
O33   O     O_R   0.670730 0.410640 0.330640 -0.506824
O34   O     O_R   0.329270 0.410640 0.669360 -0.521710
O35   O     O_R   0.170730 0.910640 0.330640 -0.525640
O36   O     O_R   0.829270 0.910640 0.669360 -0.513124
O37   O     O_R   0.556550 0.253260 0.323480 -0.486101
O38   O     O_R   0.443450 0.253260 0.676520 -0.495790
O39   O     O_R   0.056550 0.753260 0.323480 -0.489777
O40   O     O_R   0.943450 0.753260 0.676520 -0.532334
C17   C     C_R   0.533976 0.156756 0.354427 0.556480
C18   C     C_R   0.470868 0.157970 0.648921 0.534896
C19   C     C_R   0.032899 0.657366 0.352893 0.551819
C20   C     C_R   0.968056 0.654693 0.647095 0.532983
O41   O     O_R   0.545830 0.051610 0.330160 -0.534451
O42   O     O_R   0.454170 0.051610 0.669840 -0.528214
O43   O     O_R   0.045830 0.551610 0.330160 -0.537506
O44   O     O_R   0.954170 0.551610 0.669840 -0.529444
O45   O     O_R   0.681920 0.959720 0.327070 -0.514196
O46   O     O_R   0.318080 0.959720 0.672930 -0.502954
O47   O     O_R   0.181920 0.459720 0.327070 -0.518316
O48   O     O_R   0.818080 0.459720 0.672930 -0.502824
C21   C     C_R   0.744274 0.965502 0.352992 0.598625
C22   C     C_R   0.270950 0.022831 0.635786 0.563995
C23   C     C_R   0.241199 0.473757 0.358098 0.602130
C24   C     C_R   0.756051 0.470924 0.643799 0.563349
Cr1   Cr    Cr6+3 0.772820 0.169820 0.252640 1.085291
Cr2   Cr    Cr6+3 0.227180 0.169820 0.747360 1.126857
Cr3   Cr    Cr6+3 0.272820 0.669820 0.252640 1.089275
Cr4   Cr    Cr6+3 0.727180 0.669820 0.747360 1.103062
Cr5   Cr    Cr6+3 0.615040 0.323610 0.249150 1.125157
Cr6   Cr    Cr6+3 0.384960 0.323610 0.750850 1.111523
Cr7   Cr    Cr6+3 0.115040 0.823610 0.249150 1.114558
Cr8   Cr    Cr6+3 0.884960 0.823610 0.750850 1.095425
Cr9   Cr    Cr6+3 0.616720 0.011130 0.250660 1.113411
Cr10  Cr    Cr6+3 0.383280 0.011130 0.749340 1.115220
Cr11  Cr    Cr6+3 0.116720 0.511130 0.250660 1.104763
Cr12  Cr    Cr6+3 0.883280 0.511130 0.749340 1.116349
O49   O     O_3   0.668190 0.168190 0.250820 -0.324137
O50   O     O_3   0.331810 0.168190 0.749180 -0.342923
O51   O     O_3   0.168190 0.668190 0.250820 -0.323200
O52   O     O_3   0.831810 0.668190 0.749180 -0.341406
C25   C     C_3   0.527891 0.256410 0.969222 -0.116376
C26   C     C_3   0.472036 0.256604 0.030087 -0.113291
C27   C     C_3   0.027853 0.756414 0.969246 -0.117558
C28   C     C_3   0.971999 0.756595 0.030111 -0.111495
C29   C     C_3   0.569642 0.156999 0.009076 0.327865
C30   C     C_3   0.429849 0.156812 0.991065 0.329744
C31   C     C_3   0.069611 0.657012 0.009098 0.327529
C32   C     C_3   0.929817 0.656794 0.991090 0.330119
H1    H     H_    0.544400 0.335679 0.938793 0.255530
H2    H     H_    0.455766 0.336318 0.059551 0.257897
H3    H     H_    0.044363 0.835698 0.938830 0.255194
H4    H     H_    0.955733 0.836292 0.059592 0.259316
C33   C     C_3   0.514050 0.158360 0.068930 -0.048451
C34   C     C_3   0.485471 0.157784 0.931232 -0.048063
C35   C     C_3   0.014020 0.658361 0.068951 -0.047916
C36   C     C_3   0.985440 0.657779 0.931254 -0.049377
C37   C     C_3   0.472271 0.060306 0.030130 0.192820
C38   C     C_3   0.526813 0.060159 0.970846 0.193361
C39   C     C_3   0.972249 0.560298 0.030156 0.192943
C40   C     C_3   0.026789 0.560163 0.970870 0.193062
C41   C     C_R   0.772838 0.849897 0.940082 0.038503
C42   C     C_R   0.226786 0.849932 0.060177 0.041000
C43   C     C_R   0.272831 0.349898 0.940083 0.040643
C44   C     C_R   0.726790 0.349944 0.060183 0.040551
C45   C     C_R   0.714107 0.800250 0.979517 -0.051411
C46   C     C_R   0.285159 0.800133 0.020897 -0.049766
C47   C     C_R   0.214104 0.300243 0.979523 -0.050999
C48   C     C_R   0.785168 0.300155 0.020909 -0.049990
C49   C     C_R   0.712799 0.814947 0.055370 -0.021099
C50   C     C_R   0.286128 0.814412 0.944981 -0.020316
C51   C     C_R   0.212798 0.314937 0.055377 -0.019737
C52   C     C_R   0.786140 0.314437 0.944994 -0.020508
C53   C     C_R   0.822585 0.925158 0.051430 0.356342
C54   C     C_R   0.177133 0.925272 0.948724 0.353208
C55   C     C_R   0.322582 0.425155 0.051427 0.354102
C56   C     C_R   0.677140 0.425287 0.948729 0.354523
C57   C     C_R   0.828396 0.903843 0.979113 0.393543
C58   C     C_R   0.171381 0.903856 0.021080 0.397682
C59   C     C_R   0.328390 0.403842 0.979111 0.395628
C60   C     C_R   0.671385 0.403867 0.021084 0.397090
C61   C     C_R   0.656220 0.737574 0.948132 -0.004881
C62   C     C_R   0.343077 0.737953 0.052406 -0.006408
C63   C     C_R   0.156219 0.237562 0.948141 -0.004970
C64   C     C_R   0.843084 0.237976 0.052424 -0.007233
C65   C     C_R   0.101903 0.190379 0.989947 -0.043022
C66   C     C_R   0.897068 0.191143 0.010655 -0.046195
C67   C     C_R   0.601901 0.690399 0.989934 -0.043263
C68   C     C_R   0.397060 0.691125 0.010633 -0.045623
C69   C     C_R   0.606530 0.692957 0.063789 0.022988
C70   C     C_R   0.391925 0.693085 0.936796 0.022434
C71   C     C_R   0.106533 0.192937 0.063803 0.023330
C72   C     C_R   0.891937 0.193107 0.936819 0.022707
C73   C     C_R   0.662813 0.750800 0.096692 0.424865
C74   C     C_R   0.335571 0.750271 0.903826 0.423928
C75   C     C_R   0.162815 0.250786 0.096705 0.423540
C76   C     C_R   0.835587 0.250300 0.903844 0.425292
C77   C     C_R   0.761674 0.893393 0.087983 0.023401
C78   C     C_R   0.237694 0.893020 0.912147 0.018604
C79   C     C_R   0.261671 0.393392 0.087984 0.021050
C80   C     C_R   0.737702 0.393035 0.912155 0.019824
H5    H     H_    0.648342 0.726233 0.891794 0.221803
H6    H     H_    0.351436 0.727060 0.108765 0.222336
H7    H     H_    0.148341 0.226226 0.891802 0.222094
H8    H     H_    0.851445 0.227082 0.108782 0.222195
H9    H     H_    0.056842 0.147293 0.964712 0.202535
H10   H     H_    0.942263 0.148825 0.035946 0.202505
H11   H     H_    0.556840 0.647318 0.964696 0.202677
H12   H     H_    0.442257 0.648810 0.035922 0.202371
H13   H     H_    0.066772 0.148362 0.095757 0.193586
H14   H     H_    0.931458 0.148897 0.904955 0.195934
H15   H     H_    0.566767 0.648383 0.095740 0.193761
H16   H     H_    0.431445 0.648878 0.904930 0.195747
H17   H     H_    0.537904 0.351828 0.440008 0.158297
H18   H     H_    0.511919 0.358545 0.569870 0.201207
H19   H     H_    0.069758 0.825289 0.448606 0.147758
H20   H     H_    0.046704 0.822209 0.577222 0.145445
C81   C     C_R   0.509391 0.165682 0.580376 -0.000350
C82   C     C_R   0.511624 0.163778 0.429728 0.021182
C83   C     C_R   0.996922 0.648441 0.574420 0.003999
C84   C     C_R   0.007116 0.665529 0.425737 0.016211
C85   C     C_R   0.518886 0.058659 0.542592 0.026489
C86   C     C_R   0.501745 0.057192 0.469445 0.022941
C87   C     C_R   0.981144 0.546368 0.529940 0.027438
C88   C     C_R   0.973507 0.565139 0.456040 0.015544
C89   C     C_R   0.522629 0.271127 0.467857 -0.123885
C90   C     C_R   0.514419 0.273752 0.542312 -0.136986
C91   C     C_R   0.038294 0.752701 0.470512 -0.145307
C92   C     C_R   0.028818 0.748387 0.544074 -0.159465
C93   C     C_R   0.533587 0.950533 0.577761 -0.079079
C94   C     C_R   0.476953 0.948823 0.439655 -0.081956
C95   C     C_R   0.974956 0.425922 0.555063 -0.079143
C96   C     C_R   0.941756 0.475129 0.413193 -0.075941
C97   C     C_R   0.950873 0.334557 0.510360 -0.152393
C98   C     C_R   0.934423 0.359173 0.439323 -0.129722
C99   C     C_R   0.507932 0.845368 0.549354 -0.136118
C100  C     C_R   0.477786 0.844314 0.480662 -0.158413
H21   H     H_    0.556730 0.948939 0.631114 0.154083
H22   H     H_    0.453847 0.945145 0.386463 0.153367
H23   H     H_    0.993362 0.397417 0.607296 0.168278
H24   H     H_    0.927422 0.491862 0.357747 0.153526
H25   H     H_    0.946303 0.243766 0.530656 0.126955
H26   H     H_    0.916517 0.288127 0.404170 0.129511
H27   H     H_    0.510612 0.767124 0.582925 0.132981
H28   H     H_    0.456273 0.762854 0.458208 0.114669
H29   H     H_    0.648922 0.890659 0.445024 0.153852
H30   H     H_    0.346711 0.864328 0.563925 0.162083
H31   H     H_    0.131025 0.430727 0.446086 0.151605
H32   H     H_    0.810539 0.275459 0.578170 0.147624
C101  C     C_R   0.782232 0.858567 0.562611 0.007792
C102  C     C_R   0.261893 0.946753 0.412937 0.007634
C103  C     C_R   0.248256 0.448773 0.581933 0.008647
C104  C     C_R   0.755309 0.412868 0.424480 0.005724
C105  C     C_R   0.840410 0.896280 0.519078 -0.028726
C106  C     C_R   0.227231 0.049816 0.436417 -0.020874
C107  C     C_R   0.304650 0.496729 0.541417 -0.016526
C108  C     C_R   0.725125 0.514423 0.453198 -0.037803
C109  C     C_R   0.830041 0.898416 0.444445 0.028687
C110  C     C_R   0.217590 0.065781 0.510749 0.023039
C111  C     C_R   0.309223 0.462022 0.470048 0.030220
C112  C     C_R   0.702539 0.504458 0.523905 0.041876
C113  C     C_R   0.703125 0.879824 0.463103 -0.171345
C114  C     C_R   0.310993 0.915531 0.530105 -0.150186
C115  C     C_R   0.182109 0.433735 0.472661 -0.169091
C116  C     C_R   0.782262 0.337388 0.543492 -0.151163
C117  C     C_R   0.714542 0.849205 0.533085 -0.145980
C118  C     C_R   0.306422 0.883794 0.459086 -0.156348
C119  C     C_R   0.184530 0.425448 0.547073 -0.139907
C120  C     C_R   0.782771 0.322393 0.470016 -0.145036
C121  C     C_R   0.906395 0.940416 0.545587 -0.120068
C122  C     C_R   0.192893 0.125351 0.386284 -0.078305
C123  C     C_R   0.360999 0.561620 0.572171 -0.101292
C124  C     C_R   0.698209 0.605057 0.408004 -0.089494
C125  C     C_R   0.957526 0.985500 0.499207 -0.224138
C126  C     C_R   0.134636 0.190281 0.406334 -0.172304
C127  C     C_R   0.425935 0.562461 0.539232 -0.208190
C128  C     C_R   0.633375 0.653785 0.423591 -0.159111
C129  C     C_R   0.950133 0.968761 0.426020 -0.086504
C130  C     C_R   0.115839 0.191413 0.477563 -0.121655
C131  C     C_R   0.433225 0.514934 0.471012 -0.112148
C132  C     C_R   0.602696 0.626494 0.488573 -0.125374
C133  C     C_R   0.888886 0.916103 0.399102 0.409202
C134  C     C_R   0.158539 0.138783 0.530146 0.379933
C135  C     C_R   0.375964 0.461472 0.436972 0.408799
C136  C     C_R   0.637004 0.556900 0.540217 0.384129
C137  C     C_R   0.760002 0.901093 0.418009 0.016742
C138  C     C_R   0.264947 0.001428 0.558405 0.001629
C139  C     C_R   0.245552 0.441042 0.433327 0.017642
C140  C     C_R   0.741974 0.429518 0.571453 0.034345
H33   H     H_    0.920798 0.946496 0.601070 0.190264
H34   H     H_    0.206315 0.123579 0.330006 0.188554
H35   H     H_    0.356797 0.601797 0.624673 0.174551
H36   H     H_    0.720094 0.620961 0.355356 0.171928
H37   H     H_    0.668917 0.827872 0.565289 0.158826
H38   H     H_    0.333665 0.804129 0.441607 0.140486
H39   H     H_    0.138017 0.399436 0.576731 0.166341
H40   H     H_    0.803520 0.239389 0.449089 0.144859
H41   H     H_    0.005900 0.023827 0.520601 0.147091
H42   H     H_    0.103872 0.239319 0.366808 0.153460
H43   H     H_    0.470871 0.592447 0.569413 0.169127
H44   H     H_    0.606032 0.709656 0.384716 0.147540
H45   H     H_    0.992872 0.992808 0.390534 0.146754
H46   H     H_    0.070641 0.242119 0.493187 0.137289
H47   H     H_    0.482920 0.519319 0.443852 0.128774
H48   H     H_    0.550988 0.655494 0.497197 0.110859
F1    F     F_    0.641698 0.148417 0.019850 -0.650089
F2    F     F_    0.357755 0.148120 0.980284 -0.649018
F3    F     F_    0.141667 0.648439 0.019873 -0.649630
F4    F     F_    0.857724 0.648088 0.980313 -0.648478
F5    F     F_    0.885650 0.888723 0.328298 -0.610500
F6    F     F_    0.135882 0.158254 0.597240 -0.629788
F7    F     F_    0.386531 0.405516 0.373506 -0.619406
F8    F     F_    0.600402 0.525784 0.599633 -0.652081
N1    N     N_R   0.442730 0.958575 0.068359 0.097421
O53   O     O_R   0.483993 0.869221 0.084195 -0.362787
O54   O     O_R   0.387027 0.975928 0.107120 -0.314524
N2    N     N_R   0.556013 0.958380 0.933461 0.098032
O55   O     O_R   0.514369 0.868980 0.918082 -0.363110
O56   O     O_R   0.611886 0.975795 0.894720 -0.311998
N3    N     N_R   0.942724 0.458570 0.068405 0.097217
O57   O     O_R   0.983997 0.369219 0.084223 -0.363445
O58   O     O_R   0.887050 0.475936 0.107202 -0.313816
N4    N     N_R   0.056004 0.458388 0.933492 0.098509
O59   O     O_R   0.014369 0.368978 0.918109 -0.362330
O60   O     O_R   0.111884 0.475807 0.894767 -0.313753
F9    F     F_    0.876747 0.980155 0.086314 -0.642310
F10   F     F_    0.123364 0.981310 0.913928 -0.651514
F11   F     F_    0.376748 0.480145 0.086308 -0.647029
F12   F     F_    0.623373 0.481330 0.913932 -0.649628
F13   F     F_    0.890333 0.934262 0.947634 -0.629146
F14   F     F_    0.109656 0.934213 0.052508 -0.627419
F15   F     F_    0.390328 0.434256 0.947631 -0.628362
F16   F     F_    0.609659 0.434222 0.052508 -0.627909
F17   F     F_    0.670748 0.736783 0.168626 -0.612848
F18   F     F_    0.327199 0.736224 0.832021 -0.609361
F19   F     F_    0.170744 0.236778 0.168642 -0.621424
F20   F     F_    0.827217 0.236257 0.832040 -0.604995

loop_
_geom_bond_atom_site_label_1
_geom_bond_atom_site_label_2
_geom_bond_distance
_ccdc_geom_bond_type
C84   C91   1.408717 A    
O4    C12   1.272597 A    
C120  H40   1.083144 S    
O25   C21   1.262950 A    
C51   C75   1.415959 A    
C63   H7    1.069124 S    
C52   C76   1.415613 A    
C36   C40   1.526693 S    
Cr7   O51   2.007098 S    
C13   C104  1.442402 S    
C58   F14   1.357658 S    
C86   C94   1.409002 A    
O39   C19   1.280323 A    
C54   F10   1.354814 S    
C125  C129  1.385887 A    
C123  H35   1.083818 S    
C18   C81   1.481534 S    
C1    O9    1.315417 A    
O44   Cr12  2.058194 S    
C3    O11   1.315431 A    
C12   C80   1.470922 S    
C7    C35   1.450985 S    
C4    O12   1.312431 A    
C55   F11   1.354759 S    
C15   C102  1.454949 S    
C112  C140  1.423780 A    
O2    C10   1.272587 A    
O17   Cr9   2.081859 S    
C46   C62   1.420233 A    
C128  C132  1.382497 A    
C96   C98   1.386062 A    
C81   C85   1.402395 A    
O16   Cr8   1.961099 S    
C29   C33   1.543055 S    
C83   C87   1.440604 A    
C17   C82   1.475179 S    
H17   C89   1.076608 S    
C135  F7    1.359214 S    
C113  C117  1.364232 A    
C24   C140  1.451595 S    
O12   Cr8   2.077460 S    
O22   Cr10  1.940111 S    
O15   C7    1.283690 A    
C99   C100  1.398556 A    
O46   Cr10  1.962755 S    
C91   C92   1.387761 A    
O14   Cr6   1.961099 S    
C38   N2    1.449766 S    
C2    C43   1.492734 S    
C112  C136  1.410238 A    
C102  C106  1.400137 A    
C52   C80   1.404914 A    
C32   C36   1.542993 S    
C64   H8    1.069000 S    
N4    O60   1.300568 A    
C122  H34   1.084052 S    
C102  C118  1.388943 A    
O31   Cr3   1.967535 S    
C131  H47   1.073902 S    
C67   C69   1.381475 A    
C75   F19   1.358422 S    
Cr12  O52   2.007233 S    
C17   O41   1.280400 A    
C19   O43   1.280534 A    
C118  H38   1.082387 S    
C20   O44   1.250699 A    
C30   F2    1.380053 S    
Cr8   O52   1.999548 S    
C74   F18   1.358358 S    
C10   C78   1.470959 S    
O46   C22   1.326329 A    
O19   Cr11  2.081859 S    
C115  C139  1.415769 A    
C54   C78   1.389886 A    
C31   C40   1.523129 S    
C94   H22   1.082016 S    
C70   H16   1.082548 S    
C16   O36   1.280549 A    
C71   H13   1.082563 S    
C64   C66   1.396485 A    
O27   C23   1.272660 A    
C124  H36   1.084208 S    
C35   C39   1.527485 S    
C98   H26   1.082280 S    
O31   C15   1.275750 A    
O16   C8    1.283181 A    
O32   C16   1.321927 A    
C131  C135  1.384656 A    
O47   Cr11  1.961627 S    
O21   C9    1.279046 A    
C126  H42   1.082695 S    
C109  C133  1.418369 A    
H19   C91   1.083420 S    
C111  C139  1.399526 A    
C53   C57   1.378018 A    
C103  C119  1.388631 A    
O24   C12   1.282318 A    
N1    O53   1.299365 A    
C127  C131  1.390685 A    
O8    Cr4   1.974103 S    
O32   Cr4   1.956542 S    
C21   C137  1.436463 S    
C72   H14   1.082541 S    
C61   C67   1.396427 A    
C71   C75   1.382777 A    
O11   Cr7   2.065868 S    
N2    O55   1.299163 A    
C62   H6    1.068998 S    
C39   C40   1.521417 S    
O27   Cr3   2.084970 S    
O3    Cr3   2.087203 S    
C42   C46   1.446744 A    
O8    C4    1.299021 A    
C1    C44   1.489956 S    
Cr5   O49   2.007098 S    
C3    C42   1.490013 S    
C87   C95   1.424609 A    
C85   C93   1.397239 A    
C116  C140  1.389058 A    
C31   C35   1.543022 S    
C20   C83   1.470306 S    
O22   C10   1.282324 A    
C108  C112  1.395778 A    
C32   F4    1.380048 S    
C2    O10   1.312435 A    
C27   C28   1.560162 S    
C127  H43   1.068617 S    
C81   C90   1.398871 A    
C130  C134  1.393942 A    
C48   C52   1.426017 A    
H32   C116  1.083360 S    
C61   H5    1.069118 S    
C29   C38   1.523146 S    
H30   C114  1.082729 S    
C55   C59   1.377994 A    
C48   C64   1.420257 A    
O3    C11   1.271548 A    
C104  C108  1.383435 A    
Cr1   O49   1.979965 S    
C42   C58   1.406716 A    
C45   C49   1.427243 A    
Cr3   O51   1.979965 S    
C82   C86   1.410052 A    
C47   C51   1.427267 A    
C136  F8    1.356794 S    
C121  H33   1.070999 S    
C44   C48   1.446707 A    
O26   Cr2   2.093894 S    
C5    O17   1.264823 A    
O29   C13   1.254197 A    
O28   C24   1.252367 A    
O14   C6    1.283165 A    
C8    O20   1.265510 A    
N3    O57   1.299380 A    
O40   Cr8   1.953944 S    
C110  C138  1.446452 A    
C106  C122  1.411249 A    
C40   N4    1.449774 S    
O41   Cr9   2.064251 S    
C43   C59   1.407534 A    
C14   C103  1.469004 S    
C104  C120  1.413074 A    
O33   Cr5   2.083378 S    
O5    Cr1   1.964585 S    
O35   Cr7   2.083378 S    
O29   Cr1   1.967535 S    
C105  C109  1.405510 A    
C27   H3    1.094160 S    
C60   F16   1.357654 S    
Cr9   O49   1.999595 S    
C18   O42   1.285441 A    
Cr11  O51   1.999595 S    
O26   C22   1.286241 A    
C30   C37   1.523569 S    
O20   Cr12  2.082696 S    
C97   C98   1.385753 A    
C56   C80   1.389866 A    
O5    C1    1.299890 A    
C108  C124  1.406818 A    
C29   F1    1.379968 S    
C95   H23   1.079053 S    
C51   C79   1.406254 A    
C93   H21   1.084254 S    
C49   C77   1.406267 A    
O30   C14   1.299243 A    
C96   H24   1.083054 S    
C97   H25   1.082218 S    
C128  H44   1.083029 S    
C100  H28   1.078503 S    
C26   C30   1.547302 S    
C56   C60   1.376193 A    
C88   C96   1.414528 A    
O42   Cr10  2.058194 S    
O18   Cr10  2.082696 S    
C103  C107  1.415814 A    
O34   Cr6   2.080358 S    
O6    Cr2   1.974103 S    
O24   Cr12  1.940111 S    
O30   Cr2   1.956542 S    
C69   H15   1.082557 S    
O48   Cr12  1.962755 S    
C121  C125  1.395493 A    
C70   C74   1.382409 A    
O37   C17   1.291538 A    
C15   O35   1.275936 A    
C63   C65   1.396452 A    
C93   C99   1.373804 A    
C129  C133  1.387608 A    
O40   C20   1.319922 A    
O43   Cr11  2.064251 S    
C49   C73   1.415903 A    
O13   C5    1.283708 A    
O21   Cr9   1.947822 S    
O39   Cr7   1.944072 S    
O45   Cr9   1.961627 S    
C13   O33   1.288521 A    
O13   Cr5   1.963063 S    
O23   Cr11  1.947822 S    
O15   Cr7   1.963063 S    
C73   F17   1.358381 S    
C32   C39   1.523582 S    
O23   C11   1.279018 A    
O38   Cr6   1.953944 S    
C132  C136  1.391786 A    
C101  C117  1.393020 A    
C130  H46   1.071183 S    
C69   C73   1.382786 A    
C82   C89   1.409186 A    
C72   C76   1.382422 A    
O6    C2    1.298995 A    
C37   C38   1.521415 S    
C119  H39   1.082456 S    
O1    Cr1   2.087203 S    
C117  H37   1.082180 S    
Cr10  O50   2.007233 S    
N3    O58   1.300585 A    
C66   H10   1.081656 S    
C57   F13   1.357570 S    
O45   C21   1.272264 A    
H20   C92   1.083223 S    
O47   C23   1.266693 A    
C114  C138  1.406327 A    
C53   F9    1.354770 S    
C44   C60   1.406722 A    
C123  C127  1.379867 A    
O28   Cr4   2.093894 S    
C84   C88   1.404062 A    
N2    O56   1.300602 A    
C6    O18   1.265508 A    
N4    O59   1.299165 A    
C25   C26   1.560160 S    
O36   Cr8   2.080358 S    
C19   C84   1.453348 S    
C132  H48   1.046228 S    
C133  F5    1.359229 S    
C115  C119  1.392457 A    
C87   C88   1.400779 A    
C25   C34   1.531250 S    
C110  C134  1.435909 A    
C85   C86   1.400815 A    
O37   Cr5   1.944072 S    
C28   C32   1.547321 S    
C27   C36   1.531279 S    
O1    C9    1.271538 A    
C47   C63   1.419724 A    
C89   C90   1.401108 A    
O7    C3    1.299904 A    
C45   C61   1.419747 A    
C65   H9    1.081766 S    
C66   C72   1.381290 A    
C68   H12   1.081654 S    
C126  C130  1.380578 A    
C67   H11   1.081769 S    
C22   C138  1.468960 S    
C28   C35   1.531322 S    
C134  F6    1.347434 S    
C76   F20   1.358338 S    
C101  C105  1.435454 A    
C7    O19   1.264822 A    
Cr4   O52   1.980126 S    
O2    Cr2   2.074756 S    
O48   C24   1.294904 A    
C5    C33   1.451055 S    
Cr6   O50   1.999548 S    
C25   C29   1.546952 S    
C4    C41   1.492725 S    
C122  C126  1.377692 A    
C33   C37   1.527515 S    
O9    Cr5   2.065868 S    
C116  C120  1.383231 A    
C50   C78   1.404893 A    
C68   C70   1.381301 A    
N1    O54   1.300643 A    
O7    Cr3   1.964585 S    
C114  C118  1.376128 A    
C107  C111  1.393364 A    
C25   H1    1.094143 S    
C8    C36   1.451036 S    
C54   C58   1.376209 A    
C26   C33   1.531365 S    
H31   C115  1.082522 S    
H29   C113  1.083617 S    
C11   C79   1.473223 S    
Cr2   O50   1.980126 S    
C46   C50   1.426033 A    
C9    C77   1.473215 S    
C41   C57   1.407562 A    
C55   C79   1.389310 A    
C23   C139  1.451147 S    
C39   N3    1.449919 S    
C53   C77   1.389293 A    
C31   F3    1.379960 S    
C124  C128  1.378461 A    
C28   H4    1.094602 S    
O38   C18   1.295890 A    
O25   Cr1   2.084970 S    
C129  H45   1.082787 S    
C62   C68   1.396510 A    
C50   C74   1.415642 A    
C99   H27   1.072495 S    
C65   C71   1.381499 A    
H18   C90   1.080012 S    
C41   C45   1.446026 A    
C14   O34   1.256577 A    
C6    C34   1.450944 S    
C107  C123  1.405291 A    
C16   C101  1.446915 S    
C59   F15   1.357577 S    
C109  C137  1.409934 A    
C105  C121  1.424974 A    
C56   F12   1.354818 S    
C111  C135  1.411746 A    
C125  H41   1.082040 S    
C34   C38   1.526663 S    
O10   Cr6   2.077460 S    
C113  C137  1.392215 A    
O4    Cr4   2.074756 S    
C27   C31   1.546935 S    
C37   N1    1.449879 S    
C106  C110  1.414169 A    
C43   C47   1.446065 A    
C26   H2    1.094616 S    
C94   C100  1.390797 A    
C30   C34   1.542939 S    
C83   C92   1.386019 A    
C95   C97   1.392337 A    
