data_mof_unit_9782.cif
_audit_creation_date              2012-10-26T20:06:13-0400
_audit_creation_method            fapswitch 2.2
_symmetry_space_group_name_H-M    P1
_symmetry_Int_Tables_number       1
_space_group_crystal_system       triclinic
_cell_length_a                    9.596617
_cell_length_b                    10.857921
_cell_length_c                    13.457346
_cell_angle_alpha                 92.268332
_cell_angle_beta                  73.050892
_cell_angle_gamma                 90.379263
_cell_volume                      1340.26950596

loop_
_atom_site_label
_atom_site_type_symbol
_atom_type_description
_atom_site_fract_x
_atom_site_fract_y
_atom_site_fract_z
_atom_type_partial_charge
C1    C     C_R   0.501713 0.737805 0.498566 0.564872
C2    C     C_R   0.380692 0.447199 0.809419 0.019921
C3    C     C_R   0.635765 0.939368 0.484436 0.093330
C4    C     C_R   0.423221 0.481911 0.697971 0.554479
C5    C     C_R   0.630317 0.066585 0.488123 -0.076615
C6    C     C_R   0.499363 0.128912 0.500190 0.003603
C7    C     C_R   0.370581 0.063050 0.510914 -0.142555
C8    C     C_R   0.373241 0.935491 0.510090 -0.144474
C9    C     C_R   0.504972 0.872055 0.497173 0.022119
C10   C     C_R   0.899127 0.575456 0.567406 0.029281
C11   C     C_R   0.047357 0.576001 0.566954 0.006630
C12   C     C_R   0.440260 0.459859 0.975308 0.018946
C13   C     C_R   0.100275 0.421277 0.433165 0.137880
C14   C     C_R   0.952063 0.422630 0.432542 0.246938
C15   C     C_R   0.499351 0.262491 0.500336 0.557680
C16   C     C_R   0.577881 0.506270 0.300446 0.568372
C17   C     C_R   0.796991 0.542622 0.018905 -0.113324
C18   C     C_R   0.621121 0.514349 0.186582 0.018587
C19   C     C_R   0.233865 0.421003 0.864017 -0.018263
C20   C     C_R   0.191271 0.421518 0.972556 -0.095493
C21   C     C_R   0.290462 0.448115 0.027515 -0.105440
C22   C     C_3   0.198936 0.328090 0.359116 -0.326211
C23   C     C_R   0.486091 0.446150 0.865280 0.027245
C24   C     C_3   0.122051 0.387422 0.809272 -0.369110
C25   C     C_R   0.547168 0.484397 0.028038 0.026822
C26   C     C_R   0.693195 0.505127 0.969553 0.009794
C27   C     C_R   0.736442 0.477448 0.863306 -0.118184
C28   C     C_R   0.636635 0.431096 0.815597 0.102658
C29   C     C_R   0.515119 0.485660 0.136353 -0.137319
C30   C     C_R   0.761297 0.550726 0.127044 0.095342
Cu1   Cu    Cu3+1 0.359340 0.499980 0.500000 0.943375
Cu2   Cu    Cu3+1 0.640660 0.500020 0.500000 1.052353
H1    H     H_    0.730381 0.116730 0.480333 0.191191
H2    H     H_    0.078836 0.405004 0.015632 0.150051
H3    H     H_    0.312748 0.326023 0.356224 0.193455
H4    H     H_    0.157967 0.233704 0.379359 0.133659
H5    H     H_    0.199579 0.345119 0.278292 0.114123
H6    H     H_    0.022535 0.348404 0.863267 0.131502
H7    H     H_    0.090536 0.470803 0.776055 0.145733
H8    H     H_    0.166805 0.316198 0.746682 0.167615
H9    H     H_    0.267803 0.109820 0.520706 0.148834
H10   H     H_    0.271541 0.886752 0.519888 0.157978
H11   H     H_    0.822141 0.636147 0.621884 0.135051
H12   H     H_    0.081098 0.637348 0.620832 0.116338
H13   H     H_    0.849823 0.477370 0.819750 0.107398
H14   H     H_    0.906702 0.564544 0.973170 0.127376
H15   H     H_    0.408890 0.459641 0.183154 0.123489
H16   H     H_    0.246123 0.457078 0.110734 0.133726
I1    I     I_    0.923828 0.626224 0.190121 -0.315082
I2    I     I_    0.892151 0.298493 0.322363 -0.339936
I3    I     I_    0.719004 0.284505 0.704656 -0.370220
I4    I     I_    0.851013 0.866897 0.454429 -0.316776
N1    N     N_R   0.147940 0.499970 0.499970 -0.229213
N2    N     N_R   0.852060 0.500060 0.499990 -0.207835
O1    O     O_R   0.381250 0.680340 0.500010 -0.507067
O2    O     O_R   0.618820 0.680370 0.500010 -0.466066
O3    O     O_R   0.323240 0.499950 0.650980 -0.515931
O4    O     O_R   0.560810 0.499980 0.650980 -0.489379
O5    O     O_R   0.381180 0.319630 0.499990 -0.536775
O6    O     O_R   0.618750 0.319660 0.499990 -0.467888
O7    O     O_R   0.439190 0.500020 0.349020 -0.529959
O8    O     O_R   0.676760 0.500050 0.349020 -0.438626

loop_
_geom_bond_atom_site_label_1
_geom_bond_atom_site_label_2
_ccdc_geom_bond_type
C4    O3    A    
C2    C4    S    
C3    I4    S    
C6    C7    A    
C3    C9    A    
C22   H4    S    
C15   O6    A    
Cu1   O7    S    
C24   H6    S    
C19   C20   A    
C11   N1    A    
Cu2   O4    S    
C12   C25   A    
C21   H16   S    
C20   H2    S    
Cu1   O3    S    
C19   C24   S    
C10   H11   S    
Cu2   O8    S    
C11   H12   S    
C18   C29   A    
C13   C14   A    
Cu1   N1    S    
C25   C29   A    
C22   H3    S    
C12   C23   A    
C27   H13   S    
C26   C27   A    
C14   I2    S    
C17   C30   A    
C29   H15   S    
C18   C30   A    
C17   C26   A    
C16   O7    A    
Cu2   N2    S    
C14   N2    A    
C30   I1    S    
C8    H10   S    
C13   C22   S    
C13   N1    A    
C2    C23   A    
C7    H9    S    
C1    O1    A    
C5    C6    A    
C10   N2    A    
C28   I3    S    
C1    O2    A    
Cu1   O1    S    
C10   C11   A    
Cu2   O6    S    
C4    O4    A    
C3    C5    A    
C7    C8    A    
C24   H7    S    
C1    C9    S    
C17   H14   S    
C20   C21   A    
C16   O8    A    
Cu1   O5    S    
C27   C28   A    
C24   H8    S    
C6    C15   S    
C23   C28   A    
C22   H5    S    
C15   O5    A    
C12   C21   A    
Cu2   O2    S    
C16   C18   S    
Cu1   Cu2   S    
C2    C19   A    
C8    C9    A    
C25   C26   A    
C5    H1    S    
