data_mof_unit_62459.cif
_audit_creation_date              2012-12-10T18:09:54-0500
_audit_creation_method            fapswitch 2.2
_symmetry_space_group_name_H-M    P1
_symmetry_Int_Tables_number       1
_space_group_crystal_system       triclinic
_cell_length_a                    21.647629
_cell_length_b                    21.647669
_cell_length_c                    32.111292
_cell_angle_alpha                 89.904318
_cell_angle_beta                  90.097558
_cell_angle_gamma                 89.99949
_cell_volume                      15047.9735694

loop_
_atom_site_label
_atom_site_type_symbol
_atom_type_description
_atom_site_fract_x
_atom_site_fract_y
_atom_site_fract_z
_atom_type_partial_charge
C1    C     C_R   0.313129 0.499946 0.999894 -0.087970
C2    C     C_R   0.478367 0.217483 0.964806 0.165432
C3    C     C_1   0.499078 0.999075 0.661790 -0.112208
C4    C     C_1   0.499080 0.999110 0.838210 -0.112255
C5    C     C_1   0.999195 0.500319 0.838218 -0.110290
C6    C     C_1   0.500303 0.999215 0.161782 -0.110563
C7    C     C_1   0.999030 0.499036 0.161791 -0.112103
C8    C     C_1   0.999560 0.499626 0.124547 -0.174249
C9    C     C_1   0.500138 0.999571 0.124539 -0.177024
C10   C     C_1   0.999564 0.500141 0.875460 -0.177179
C11   C     C_1   0.499638 0.999600 0.875454 -0.174091
C12   C     C_1   0.499581 0.999637 0.624547 -0.174139
C13   C     C_R   0.782680 0.483120 0.963633 0.163482
C14   C     C_1   0.000138 0.499566 0.624539 -0.177020
C15   C     C_1   0.499564 0.000140 0.375460 -0.177079
C16   C     C_1   0.999626 0.499581 0.375454 -0.174066
C17   C     C_2   0.071082 0.408147 0.204386 0.506482
C18   C     C_2   0.578544 0.084267 0.203731 0.485082
C19   C     C_2   0.924068 0.587221 0.203958 0.508507
C20   C     C_2   0.413932 0.922188 0.203803 0.511277
C21   C     C_2   0.083821 0.579014 0.796268 0.485132
C22   C     C_2   0.586893 0.923709 0.796044 0.508419
C23   C     C_2   0.922536 0.413621 0.796194 0.511336
C24   C     C_R   0.516771 0.782847 0.963472 0.162796
C25   C     C_2   0.408736 0.071825 0.795627 0.506554
C26   C     C_2   0.571591 0.908567 0.704380 0.506468
C27   C     C_2   0.078307 0.584479 0.703727 0.485009
C28   C     C_2   0.423804 0.087000 0.703952 0.508397
C29   C     C_2   0.914168 0.421921 0.703806 0.511265
C30   C     C_2   0.584102 0.078716 0.296272 0.485129
C31   C     C_2   0.086543 0.423316 0.296037 0.508443
C32   C     C_2   0.422260 0.913870 0.296192 0.511300
C33   C     C_2   0.908868 0.572017 0.295623 0.506446
C34   C     C_3   0.166498 0.497799 0.900229 -0.738964
C35   C     C_R   0.217514 0.477750 0.035017 0.165723
C36   C     C_3   0.507300 0.167773 0.900798 -0.760362
C37   C     C_3   0.832137 0.519559 0.901192 -0.768327
C38   C     C_3   0.480666 0.832673 0.900949 -0.765030
C39   C     C_3   0.167803 0.505646 0.099228 -0.759739
C40   C     C_3   0.519976 0.832133 0.098778 -0.768415
C41   C     C_3   0.832681 0.481086 0.099083 -0.764924
C42   C     C_3   0.496088 0.166511 0.099762 -0.739856
C43   C     C_3   0.666504 0.996679 0.400233 -0.739507
C44   C     C_3   0.007221 0.667798 0.400803 -0.760291
C45   C     C_3   0.332129 0.019917 0.401219 -0.768384
C46   C     C_R   0.483277 0.782687 0.036400 0.163410
C47   C     C_3   0.980330 0.332654 0.400976 -0.765062
C48   C     C_3   0.667786 0.006746 0.599210 -0.760119
C49   C     C_3   0.020260 0.332124 0.598760 -0.768448
C50   C     C_3   0.332681 0.980751 0.599059 -0.765015
C51   C     C_3   0.996263 0.666524 0.599768 -0.739599
C52   C     C_R   0.782843 0.516928 0.036496 0.162860
C53   C     C_R   0.522051 0.217353 0.035351 0.160703
C54   C     C_R   0.717361 0.022263 0.464709 0.160802
C55   C     C_R   0.978318 0.717486 0.464821 0.165456
C56   C     C_R   0.282685 0.983253 0.463605 0.163421
C57   C     C_R   0.499949 0.313109 0.000102 -0.088409
C58   C     C_R   0.016654 0.282851 0.463448 0.162744
C59   C     C_R   0.717495 0.978156 0.535134 0.165532
C60   C     C_R   0.983388 0.282690 0.536424 0.163359
C61   C     C_R   0.282847 0.016798 0.536523 0.162807
C62   C     C_R   0.022112 0.717356 0.535334 0.160702
C63   C     C_R   0.281394 0.522670 0.965186 -0.240611
C64   C     C_R   0.478046 0.281472 0.965193 -0.241624
C65   C     C_R   0.718694 0.482712 0.964015 -0.240226
C66   C     C_R   0.517073 0.718847 0.963845 -0.240347
C67   C     C_R   0.281503 0.477447 0.034630 -0.241841
C68   C     C_R   0.687014 0.499941 0.000070 -0.091132
C69   C     C_R   0.482865 0.718701 0.036019 -0.240171
C70   C     C_R   0.718843 0.517224 0.036123 -0.240385
C71   C     C_R   0.522076 0.281366 0.034986 -0.240435
C72   C     C_R   0.781375 0.022280 0.465073 -0.240470
C73   C     C_R   0.977994 0.781475 0.465208 -0.241604
C74   C     C_R   0.218699 0.982839 0.463987 -0.240156
C75   C     C_R   0.016963 0.218851 0.463821 -0.240266
C76   C     C_R   0.781484 0.977840 0.534746 -0.241669
C77   C     C_R   0.982973 0.218705 0.536042 -0.240101
C78   C     C_R   0.218848 0.017096 0.536151 -0.240340
C79   C     C_R   0.499942 0.687018 0.999931 -0.091236
C80   C     C_R   0.022134 0.781370 0.534970 -0.240401
C81   C     C_R   0.119979 0.500016 0.999901 0.928485
C82   C     C_R   0.500016 0.119972 0.000099 0.929066
C83   C     C_R   0.880071 0.500003 0.000055 0.934446
C84   C     C_R   0.500003 0.880072 0.999946 0.934589
C85   C     C_R   0.619975 0.000016 0.499901 0.928875
C86   C     C_R   0.000017 0.619973 0.500099 0.929037
C87   C     C_R   0.380072 0.000003 0.500055 0.934562
C88   C     C_R   0.000003 0.380073 0.499946 0.934704
C89   C     C_R   0.999980 0.499929 0.080417 0.921852
C90   C     C_R   0.813116 0.999947 0.499896 -0.088251
C91   C     C_R   0.500043 0.999896 0.080414 0.920790
C92   C     C_R   0.999896 0.500042 0.919586 0.920227
C93   C     C_R   0.499930 0.999984 0.919583 0.922389
C94   C     C_R   0.499980 0.999930 0.580417 0.922218
C95   C     C_R   0.000043 0.499894 0.580414 0.920832
C96   C     C_R   0.499896 0.000042 0.419586 0.920623
C97   C     C_R   0.999928 0.499983 0.419583 0.922471
C98   C     C_R   0.039488 0.459132 0.272058 -0.027267
C99   C     C_R   0.539783 0.040122 0.272005 -0.019416
C100  C     C_R   0.956528 0.536942 0.271865 -0.027172
C101  C     C_R   0.999948 0.813112 0.500103 -0.088373
C102  C     C_R   0.459678 0.959308 0.272003 -0.030364
C103  C     C_R   0.039903 0.539998 0.727995 -0.019434
C104  C     C_R   0.536768 0.956414 0.728137 -0.027203
C105  C     C_R   0.959449 0.459531 0.727996 -0.030322
C106  C     C_R   0.459409 0.039797 0.727941 -0.027357
C107  C     C_R   0.539724 0.959365 0.772059 -0.027321
C108  C     C_R   0.039647 0.540254 0.772003 -0.019370
C109  C     C_R   0.456484 0.036878 0.771865 -0.027242
C110  C     C_R   0.959805 0.459180 0.772004 -0.030408
C111  C     C_R   0.540024 0.039883 0.227996 -0.019473
C112  C     C_R   0.187017 0.999940 0.500070 -0.091209
C113  C     C_R   0.036499 0.456173 0.228138 -0.027165
C114  C     C_R   0.459325 0.959661 0.227994 -0.030347
C115  C     C_R   0.959479 0.539867 0.227943 -0.027359
C116  C     C_R   0.998306 0.498353 0.293499 -0.056717
C117  C     C_R   0.498733 0.000707 0.293490 -0.058400
C118  C     C_R   0.000681 0.498761 0.706509 -0.058374
C119  C     C_R   0.498385 0.998379 0.706502 -0.056694
C120  C     C_R   0.498386 0.998424 0.793499 -0.056694
C121  C     C_R   0.998725 0.500707 0.793489 -0.058407
C122  C     C_R   0.500676 0.998767 0.206510 -0.058379
C123  C     C_R   0.999944 0.187020 0.499931 -0.091300
C124  C     C_R   0.998300 0.498307 0.206502 -0.056731
C125  C     C_R   0.185850 0.500076 0.999881 -0.069366
C126  C     C_R   0.500076 0.185830 0.000117 -0.068903
C127  C     C_R   0.814294 0.500011 0.000068 -0.067146
C128  C     C_R   0.500011 0.814298 0.999933 -0.067071
C129  C     C_R   0.685837 0.000077 0.499882 -0.069063
C130  C     C_R   0.000079 0.685833 0.500118 -0.068959
C131  C     C_R   0.314298 0.000011 0.500067 -0.067076
C132  C     C_R   0.000010 0.314301 0.499933 -0.067028
C133  C     C_R   0.499978 0.620603 0.999972 0.904294
C134  C     C_R   0.217380 0.522666 0.964824 0.161003
C135  C     C_R   0.379448 0.499977 0.999965 0.903196
C136  C     C_R   0.499977 0.379441 0.000034 0.903240
C137  C     C_R   0.620602 0.499978 0.000029 0.904349
C138  C     C_R   0.999979 0.120604 0.499972 0.904356
C139  C     C_R   0.879444 0.999976 0.499966 0.903270
C140  C     C_R   0.999976 0.879442 0.500034 0.903266
C141  C     C_R   0.120603 0.999977 0.500028 0.904359
C142  C     C_1   0.999039 0.499070 0.338210 -0.112250
C143  C     C_1   0.499198 0.000317 0.338218 -0.110467
C144  C     C_1   0.000306 0.499208 0.661782 -0.110499
H1    H     H_    0.306220 0.540297 0.938392 0.167039
H2    H     H_    0.961023 0.806356 0.438190 0.166496
H3    H     H_    0.193905 0.969607 0.436036 0.168406
H4    H     H_    0.030124 0.194169 0.435867 0.168349
H5    H     H_    0.806370 0.960749 0.561729 0.166412
H6    H     H_    0.969842 0.193915 0.564015 0.168465
H7    H     H_    0.194164 0.030364 0.564080 0.168283
H8    H     H_    0.039345 0.806185 0.561890 0.167340
H9    H     H_    0.087504 0.417625 0.173161 0.050068
H10   H     H_    0.598644 0.070436 0.174247 0.060587
H11   H     H_    0.906989 0.576981 0.172963 0.050883
H12   H     H_    0.461113 0.306353 0.938163 0.166520
H13   H     H_    0.426492 0.903175 0.173770 0.049113
H14   H     H_    0.069857 0.599096 0.825729 0.060334
H15   H     H_    0.576573 0.906699 0.827043 0.050884
H16   H     H_    0.903472 0.426094 0.826229 0.049102
H17   H     H_    0.418421 0.088319 0.826809 0.050201
H18   H     H_    0.588030 0.918166 0.673174 0.050171
H19   H     H_    0.098479 0.570682 0.674258 0.060475
H20   H     H_    0.406749 0.076675 0.672964 0.050900
H21   H     H_    0.926782 0.402949 0.673772 0.049098
H22   H     H_    0.570229 0.098812 0.325748 0.060471
H23   H     H_    0.693898 0.469379 0.936087 0.168345
H24   H     H_    0.076187 0.406372 0.327047 0.050849
H25   H     H_    0.403229 0.926409 0.326224 0.049112
H26   H     H_    0.918559 0.588417 0.326826 0.050166
H27   H     H_    0.206931 0.581523 0.914606 0.240910
H28   H     H_    0.207921 0.475125 0.886707 0.247186
H29   H     H_    0.139178 0.518854 0.874605 0.242548
H30   H     H_    0.137358 0.462514 0.915853 0.239007
H31   H     H_    0.422301 0.206958 0.913196 0.237871
H32   H     H_    0.530337 0.209670 0.888151 0.246573
H33   H     H_    0.488116 0.140773 0.874469 0.231687
H34   H     H_    0.530321 0.694163 0.935911 0.168298
H35   H     H_    0.541937 0.138645 0.917144 0.246189
H36   H     H_    0.793369 0.433217 0.909367 0.238174
H37   H     H_    0.790107 0.543867 0.889846 0.246661
H38   H     H_    0.859030 0.503548 0.873894 0.231905
H39   H     H_    0.861280 0.552282 0.919152 0.251214
H40   H     H_    0.566908 0.793743 0.909308 0.237922
H41   H     H_    0.456284 0.790736 0.889615 0.247017
H42   H     H_    0.496874 0.859569 0.873637 0.232624
H43   H     H_    0.447962 0.861865 0.918823 0.251238
H44   H     H_    0.207002 0.420855 0.086216 0.237777
H45   H     H_    0.306397 0.460056 0.061522 0.166214
H46   H     H_    0.209698 0.528445 0.112073 0.246482
H47   H     H_    0.140753 0.486048 0.125391 0.231657
H48   H     H_    0.138722 0.540569 0.083122 0.245480
H49   H     H_    0.433593 0.793387 0.090755 0.238213
H50   H     H_    0.544315 0.790095 0.110082 0.246674
H51   H     H_    0.504083 0.859035 0.126103 0.231903
H52   H     H_    0.552639 0.861263 0.080760 0.251379
H53   H     H_    0.793733 0.567287 0.090568 0.237884
H54   H     H_    0.790749 0.456737 0.110457 0.247012
H55   H     H_    0.859567 0.497411 0.126369 0.232626
H56   H     H_    0.469651 0.693909 0.063973 0.168426
H57   H     H_    0.861885 0.448321 0.081269 0.251077
H58   H     H_    0.580064 0.206893 0.086009 0.241134
H59   H     H_    0.473145 0.207952 0.113054 0.247204
H60   H     H_    0.516718 0.139281 0.125587 0.242591
H61   H     H_    0.461104 0.137298 0.083896 0.239761
H62   H     H_    0.706903 0.080569 0.414203 0.241051
H63   H     H_    0.707938 0.973835 0.386857 0.247218
H64   H     H_    0.639234 0.017455 0.374481 0.242571
H65   H     H_    0.637324 0.961585 0.416017 0.239496
H66   H     H_    0.922216 0.706953 0.413229 0.237882
H67   H     H_    0.694157 0.530590 0.064031 0.168224
H68   H     H_    0.030221 0.709706 0.388142 0.246592
H69   H     H_    0.988035 0.640777 0.374486 0.231652
H70   H     H_    0.041889 0.638697 0.417140 0.246134
H71   H     H_    0.293382 0.933539 0.409261 0.238196
H72   H     H_    0.290092 0.044249 0.389909 0.246685
H73   H     H_    0.359031 0.004008 0.373898 0.231905
H74   H     H_    0.361260 0.052589 0.419230 0.251356
H75   H     H_    0.066613 0.293758 0.409210 0.237946
H76   H     H_    0.955931 0.290705 0.389678 0.247045
H77   H     H_    0.996436 0.359556 0.373639 0.232603
H78   H     H_    0.539242 0.306181 0.061919 0.167357
H79   H     H_    0.947670 0.361832 0.418897 0.251366
H80   H     H_    0.706975 0.921814 0.586607 0.237837
H81   H     H_    0.709683 0.029700 0.611926 0.246556
H82   H     H_    0.640765 0.987425 0.625482 0.231671
H83   H     H_    0.638678 0.041481 0.582943 0.245945
H84   H     H_    0.933847 0.293399 0.590836 0.238228
H85   H     H_    0.044610 0.290079 0.610040 0.246692
H86   H     H_    0.004445 0.359037 0.626100 0.231894
H87   H     H_    0.052888 0.361238 0.580703 0.251494
H88   H     H_    0.293740 0.066981 0.590669 0.237908
H89   H     H_    0.806192 0.039605 0.438187 0.167246
H90   H     H_    0.290748 0.956360 0.610390 0.247033
H91   H     H_    0.359557 0.996987 0.626374 0.232624
H92   H     H_    0.361895 0.948048 0.581201 0.251206
H93   H     H_    0.080221 0.706888 0.585942 0.241106
H94   H     H_    0.973377 0.707969 0.613096 0.247261
H95   H     H_    0.016931 0.639260 0.625561 0.242547
H96   H     H_    0.961225 0.637345 0.583926 0.239653
N1    N     N_2   0.184914 0.545313 0.929332 -0.307262
N2    N     N_2   0.957864 0.685156 0.428758 -0.305931
N3    N     N_2   0.315056 0.967334 0.426569 -0.309328
N4    N     N_2   0.032764 0.315390 0.426445 -0.310520
N5    N     N_2   0.685169 0.957526 0.571151 -0.305771
N6    N     N_2   0.967593 0.315065 0.573482 -0.309448
N7    N     N_2   0.315386 0.033073 0.573496 -0.310378
N8    N     N_2   0.044215 0.684887 0.570980 -0.307758
N9    N     N_2   0.457932 0.185154 0.928738 -0.305959
N10   N     N_2   0.815049 0.467066 0.926623 -0.309198
N11   N     N_2   0.533011 0.815385 0.926494 -0.310403
N12   N     N_2   0.185193 0.456729 0.070933 -0.305385
N13   N     N_2   0.467379 0.815060 0.073439 -0.309343
N14   N     N_2   0.815380 0.533325 0.073444 -0.310262
N15   N     N_2   0.544090 0.184884 0.071015 -0.307759
N16   N     N_2   0.684892 0.044513 0.429104 -0.307598
O1    O     O_R   0.091640 0.551640 0.999920 -0.617023
O2    O     O_R   0.948360 0.591640 0.499920 -0.617081
O3    O     O_R   0.408360 0.948360 0.499920 -0.620198
O4    O     O_R   0.051640 0.408360 0.499920 -0.620844
O5    O     O_R   0.591640 0.948360 0.500080 -0.616970
O6    O     O_R   0.948360 0.408360 0.500080 -0.620284
O7    O     O_R   0.408360 0.051640 0.500080 -0.620758
O8    O     O_R   0.051640 0.591640 0.500080 -0.617414
O9    O     O_R   0.000010 0.551640 0.060910 -0.612495
O10   O     O_R   0.448360 0.000010 0.060910 -0.611117
O11   O     O_R   0.999990 0.448360 0.060910 -0.613219
O12   O     O_R   0.448360 0.091640 0.999920 -0.617111
O13   O     O_R   0.551640 0.999990 0.060910 -0.616041
O14   O     O_R   0.000010 0.448360 0.939090 -0.610961
O15   O     O_R   0.448360 0.999990 0.939090 -0.613249
O16   O     O_R   0.999990 0.551640 0.939090 -0.615993
O17   O     O_R   0.551640 0.000010 0.939090 -0.612642
O18   O     O_R   0.500010 0.051640 0.560910 -0.612590
O19   O     O_R   0.948360 0.500010 0.560910 -0.611113
O20   O     O_R   0.499990 0.948360 0.560910 -0.613255
O21   O     O_R   0.051640 0.499990 0.560910 -0.616047
O22   O     O_R   0.500010 0.948360 0.439090 -0.611066
O23   O     O_R   0.908360 0.448360 0.999920 -0.620111
O24   O     O_R   0.948360 0.499990 0.439090 -0.613271
O25   O     O_R   0.499990 0.051640 0.439090 -0.616030
O26   O     O_R   0.051640 0.500010 0.439090 -0.612646
O27   O     O_R   0.500000 0.591640 0.965510 -0.626712
O28   O     O_R   0.408360 0.500000 0.965510 -0.625485
O29   O     O_R   0.500000 0.408360 0.965510 -0.625434
O30   O     O_R   0.591640 0.500000 0.965510 -0.626414
O31   O     O_R   0.500000 0.408360 0.034490 -0.625636
O32   O     O_R   0.408360 0.500000 0.034490 -0.625327
O33   O     O_R   0.500000 0.591640 0.034490 -0.626428
O34   O     O_R   0.551640 0.908360 0.999920 -0.620771
O35   O     O_R   0.591640 0.500000 0.034490 -0.626653
O36   O     O_R   0.000000 0.091640 0.465510 -0.626697
O37   O     O_R   0.908360 0.000000 0.465510 -0.625560
O38   O     O_R   0.000000 0.908360 0.465510 -0.625421
O39   O     O_R   0.091640 0.000000 0.465510 -0.626416
O40   O     O_R   1.000000 0.908360 0.534490 -0.625594
O41   O     O_R   0.908360 0.000000 0.534490 -0.625386
O42   O     O_R   0.000000 0.091640 0.534490 -0.626441
O43   O     O_R   0.091640 0.000000 0.534490 -0.626676
O44   O     O_2   0.078901 0.356417 0.218666 -0.529980
O45   O     O_R   0.091640 0.448360 0.000080 -0.616711
O46   O     O_2   0.585666 0.137459 0.215379 -0.532569
O47   O     O_2   0.916172 0.639128 0.217788 -0.529214
O48   O     O_2   0.361157 0.914783 0.216208 -0.528841
O49   O     O_2   0.136995 0.586365 0.784646 -0.532570
O50   O     O_2   0.638754 0.915529 0.782210 -0.529228
O51   O     O_2   0.915361 0.360815 0.783787 -0.528827
O52   O     O_2   0.357006 0.079886 0.781408 -0.529953
O53   O     O_2   0.579600 0.856850 0.718632 -0.529981
O54   O     O_2   0.085251 0.637705 0.715356 -0.532583
O55   O     O_2   0.415715 0.138885 0.717769 -0.529264
O56   O     O_R   0.448360 0.908360 0.000080 -0.620213
O57   O     O_2   0.861417 0.414355 0.716214 -0.528879
O58   O     O_2   0.637290 0.085907 0.284634 -0.532543
O59   O     O_2   0.138358 0.414925 0.282185 -0.529253
O60   O     O_2   0.414922 0.861085 0.283788 -0.528852
O61   O     O_2   0.857188 0.580287 0.281376 -0.530013
O62   O     O_R   0.908360 0.551640 0.000080 -0.620681
O63   O     O_R   0.551640 0.091640 0.000080 -0.617437
O64   O     O_R   0.591640 0.051640 0.499920 -0.617297
Zn1   Zn    Zn3+2 0.000000 0.568980 0.000000 0.993912
Zn2   Zn    Zn3+2 0.500000 0.500000 0.046050 0.970748
Zn3   Zn    Zn3+2 0.000000 0.000000 0.453950 0.970789
Zn4   Zn    Zn3+2 0.000000 0.000000 0.546050 0.970783
Zn5   Zn    Zn3+2 0.431020 0.000000 0.000000 0.998016
Zn6   Zn    Zn3+2 0.000000 0.431020 0.000000 0.998228
Zn7   Zn    Zn3+2 0.568980 0.000000 0.000000 0.993687
Zn8   Zn    Zn3+2 0.500000 0.068980 0.500000 0.993737
Zn9   Zn    Zn3+2 0.931020 0.500000 0.500000 0.997969
Zn10  Zn    Zn3+2 0.500000 0.931020 0.500000 0.998058
Zn11  Zn    Zn3+2 0.068980 0.500000 0.500000 0.993636
Zn12  Zn    Zn3+2 0.500000 0.500000 0.953950 0.970749

loop_
_geom_bond_atom_site_label_1
_geom_bond_atom_site_label_2
_ccdc_geom_bond_type
C43   N16   S    
O31   Zn2   S    
C105  C110  A    
C95   O21   A    
C19   H11   S    
C14   C95   S    
C17   H9    S    
C60   C132  A    
C66   C79   A    
C123  C138  S    
C44   H70   S    
C97   O24   A    
C83   O23   A    
C74   C112  A    
O24   Zn9   S    
C22   H15   S    
H44   N12   S    
C85   C129  S    
C28   C106  S    
C58   C75   A    
C45   N3    S    
C49   N6    S    
C11   C93   S    
C73   C101  A    
C43   H64   S    
C17   O44   D    
C36   H35   S    
C54   N16   S    
C33   H26   S    
C86   O8    A    
C52   C127  A    
O18   Zn8   S    
O15   Zn5   S    
C14   C144  T    
C74   H3    S    
C18   C111  S    
H66   N2    S    
C87   O3    A    
C15   C96   S    
C133  O27   A    
H49   N13   S    
C134  N1    S    
C34   H30   S    
C48   H82   S    
C65   C68   A    
C37   H37   S    
C27   O54   D    
C57   C71   A    
C58   N4    S    
C116  C142  S    
C105  C118  A    
O27   Zn12  S    
C53   C71   A    
C107  C120  A    
C48   H83   S    
C23   C110  S    
C47   H79   S    
C59   C129  A    
O62   Zn1   S    
O45   Zn6   S    
O39   Zn3   S    
C24   N11   S    
C135  O28   A    
C81   O45   A    
C77   H6    S    
C75   H4    S    
C22   O50   D    
C113  C124  A    
C41   N14   S    
C35   N12   S    
C28   O55   D    
O64   Zn8   S    
C43   H65   S    
C56   C131  A    
C13   C127  A    
C84   O34   A    
C104  C107  A    
C109  C120  A    
C84   C128  S    
O12   Zn5   S    
C48   H81   S    
C55   N2    S    
C62   C130  A    
C42   H60   S    
C6    C9    T    
O36   Zn3   S    
C17   C113  S    
C7    C8    T    
H75   N4    S    
C20   O48   D    
C62   C80   A    
C29   O57   D    
C110  C121  A    
C47   N4    S    
H84   N6    S    
C32   O60   D    
C22   C107  S    
C37   H39   S    
C26   O53   D    
O30   Zn12  S    
C42   H61   S    
C31   C98   S    
C87   C131  S    
C49   H86   S    
C35   C125  A    
C27   H19   S    
H36   N10   S    
C86   O2    A    
C39   N12   S    
C25   H17   S    
C51   H96   S    
C138  O42   A    
C46   N13   S    
C18   H10   S    
C25   C109  S    
C104  C119  A    
C26   C104  S    
C47   H77   S    
C111  C122  A    
O42   Zn4   S    
C45   H74   S    
C29   C105  S    
C136  O29   A    
C78   H7    S    
H40   N11   S    
C2    N9    S    
C86   C130  S    
C38   H42   S    
O8    Zn11  S    
C112  C141  S    
C93   O17   A    
C75   C123  A    
C99   C117  A    
C72   C90   A    
C62   N8    S    
C93   O15   A    
C35   C67   A    
C55   C130  A    
C99   C111  A    
O25   Zn8   S    
C50   H92   S    
C102  C117  A    
C3    C119  S    
C15   C143  T    
O63   Zn7   S    
H53   N14   S    
C69   C79   A    
C87   O7    A    
O6    Zn9   S    
C81   C125  S    
C83   C127  S    
C78   C112  A    
C47   H76   S    
C73   H2    S    
C96   O25   A    
O21   Zn11  S    
C42   N15   S    
C1    C67   A    
C51   H94   S    
C89   O9    A    
C21   C108  S    
C61   C131  A    
C55   C73   A    
C141  O43   A    
O38   Zn3   S    
C76   C90   A    
C24   C128  A    
C6    C122  S    
C82   O12   A    
C8    C89   S    
C1    C135  S    
C136  O31   A    
C59   C76   A    
C63   H1    S    
C106  C109  A    
C125  C134  A    
C32   H25   S    
C106  C119  A    
C21   H14   S    
C23   O51   D    
C100  C116  A    
C108  C121  A    
C41   H55   S    
C100  C115  A    
C94   O20   A    
C92   O16   A    
H31   N9    S    
C37   N10   S    
C95   O19   A    
C72   H89   S    
C29   H21   S    
C50   H90   S    
O3    Zn10  S    
C52   N14   S    
C82   C126  S    
C138  O36   A    
C58   C132  A    
O43   Zn4   S    
C69   H56   S    
C24   C66   A    
C10   C92   S    
C71   H78   S    
H27   N1    S    
O23   Zn6   S    
C12   C94   S    
C68   C137  S    
C30   O58   D    
C56   C74   A    
C43   H63   S    
C44   H69   S    
C63   C134  A    
O19   Zn9   S    
C33   O61   D    
O7    Zn8   S    
C98   C113  A    
C13   C65   A    
O35   Zn2   S    
C26   H18   S    
C89   O11   A    
C48   N5    S    
C77   C123  A    
H58   N15   S    
C36   N9    S    
C59   N5    S    
C4    C11   T    
C40   N13   S    
C36   H32   S    
C20   H13   S    
C19   O47   D    
C103  C118  A    
O22   Zn10  S    
C41   H57   S    
C50   N7    S    
C34   H28   S    
C31   O59   D    
C115  C124  A    
C94   O18   A    
C82   O63   A    
C65   H23   S    
C83   O62   A    
H71   N3    S    
H88   N7    S    
C51   N8    S    
C34   H29   S    
C20   C114  S    
C39   H48   S    
C18   O46   D    
C37   H38   S    
O37   Zn3   S    
C27   C103  S    
C49   H85   S    
O9    Zn1   S    
C88   O4    A    
O10   Zn5   S    
C31   H24   S    
O56   Zn5   S    
C51   H95   S    
O16   Zn1   S    
C53   N15   S    
C133  O33   A    
C60   N6    S    
C45   H73   S    
C7    C124  S    
H62   N16   S    
C9    C91   S    
C90   C139  S    
O11   Zn6   S    
O29   Zn12  S    
C40   H50   S    
C13   N10   S    
C66   H34   S    
C102  C114  A    
C137  O30   A    
C46   C128  A    
C117  C143  S    
C139  O41   A    
C118  C144  S    
C140  O38   A    
C16   C97   S    
C141  O39   A    
C38   H43   S    
C5    C121  S    
O5    Zn10  S    
C45   H72   S    
C39   H47   S    
C137  O35   A    
O4    Zn11  S    
C3    C12   T    
C46   C69   A    
O1    Zn1   S    
C57   C136  S    
C103  C108  A    
C91   O10   A    
C25   O52   D    
C70   H67   S    
O14   Zn6   S    
C42   H59   S    
C1    C63   A    
C101  C140  S    
C2    C64   A    
O33   Zn2   S    
O41   Zn4   S    
C79   C133  S    
C60   C77   A    
C30   H22   S    
C139  O37   A    
C39   H46   S    
O13   Zn7   S    
C30   C99   S    
H93   N8    S    
C44   H68   S    
C49   H87   S    
C16   C142  T    
C98   C116  A    
C38   N11   S    
C19   C115  S    
C61   C78   A    
C23   H16   S    
C21   O49   D    
O26   Zn11  S    
O20   Zn10  S    
C88   O6    A    
O2    Zn9   S    
C2    C126  A    
C56   N3    S    
O17   Zn7   S    
C32   C102  S    
C88   C132  S    
C84   O56   A    
C28   H20   S    
C57   C64   A    
O32   Zn2   S    
C92   O14   A    
C40   H52   S    
C80   H8    S    
C54   C129  A    
C36   H33   S    
C85   O5    A    
C41   H54   S    
C91   O13   A    
C140  O40   A    
C67   H45   S    
C135  O32   A    
C61   N7    S    
C38   H41   S    
C64   H12   S    
C81   O1    A    
C80   C101  A    
C33   C100  S    
C96   O22   A    
C5    C10   T    
C97   O26   A    
C85   O64   A    
C44   N2    S    
C76   H5    S    
O34   Zn7   S    
C50   H91   S    
C52   C70   A    
C53   C126  A    
C114  C122  A    
H80   N5    S    
C54   C72   A    
C68   C70   A    
O40   Zn4   S    
C4    C120  S    
C40   H51   S    
C34   N1    S    
O28   Zn12  S    
