data_mof_unit_42920.cif
_audit_creation_date              2012-12-10T18:48:40-0500
_audit_creation_method            fapswitch 2.2
_symmetry_space_group_name_H-M    P1
_symmetry_Int_Tables_number       1
_space_group_crystal_system       triclinic
_cell_length_a                    15.790603
_cell_length_b                    14.72069
_cell_length_c                    9.953563
_cell_angle_alpha                 91.850711
_cell_angle_beta                  90.379325
_cell_angle_gamma                 90.397661
_cell_volume                      2312.37468428

loop_
_atom_site_label
_atom_site_type_symbol
_atom_type_description
_atom_site_fract_x
_atom_site_fract_y
_atom_site_fract_z
_atom_type_partial_charge
C1    C     C_R   0.119389 0.379927 0.500046 0.926938
C2    C     C_R   0.000878 0.419995 0.925523 0.378428
C3    C     C_R   0.001499 0.420275 0.067372 0.374567
C4    C     C_R   0.002461 0.579882 0.932581 0.373611
C5    C     C_R   0.508954 0.079469 0.074821 0.395184
C6    C     C_R   0.494859 0.920197 0.925235 0.373466
C7    C     C_R   0.494362 0.920494 0.066958 0.365018
C8    C     C_R   0.507638 0.079559 0.932762 0.368792
C9    C     C_R   0.803396 0.252460 0.388738 0.087309
C10   C     C_R   0.181244 0.760825 0.592917 0.124855
C11   C     C_R   0.246240 0.681239 0.399560 0.128417
C12   C     C_R   0.879127 0.618623 0.501861 0.929857
C13   C     C_R   0.746309 0.325441 0.594424 0.108052
C14   C     C_R   0.234942 0.304589 0.620418 0.131713
C15   C     C_R   0.749562 0.676719 0.402607 0.143005
C16   C     C_R   0.801360 0.743733 0.616205 0.107327
C17   C     C_R   0.197331 0.257160 0.388936 0.119059
C18   C     C_R   0.301592 0.753852 0.386901 0.085532
C19   C     C_R   0.680741 0.261667 0.592494 0.122598
C20   C     C_R   0.746162 0.181311 0.399581 0.134736
C21   C     C_R   0.246694 0.824641 0.594951 0.114233
C22   C     C_R   0.744510 0.814817 0.605722 0.127485
C23   C     C_R   0.878519 0.381799 0.498109 0.939392
C24   C     C_R   0.269309 0.204542 0.381961 0.117117
C25   C     C_R   0.293265 0.234614 0.623814 0.099432
C26   C     C_R   0.685593 0.740471 0.401465 0.109032
C27   C     C_R   0.185527 0.686192 0.501842 -0.161948
C28   C     C_R   0.808467 0.319077 0.493600 -0.167236
C29   C     C_R   0.809384 0.680893 0.506948 -0.191676
C30   C     C_R   0.185257 0.313610 0.502778 -0.173020
C31   C     C_R   0.684938 0.186994 0.501323 -0.164306
C32   C     C_R   0.308080 0.819258 0.493222 -0.165958
C33   C     C_R   0.314189 0.187961 0.502137 -0.183588
C34   C     C_R   0.120068 0.619200 0.501242 0.939928
C35   C     C_R   0.685579 0.812451 0.498814 -0.186677
C36   C     C_3   0.810906 0.303211 0.162180 -0.709823
C37   C     C_3   0.040104 0.820696 0.604704 -0.793634
C38   C     C_3   0.302897 0.533440 0.336931 -0.786360
C39   C     C_3   0.779323 0.385599 0.820247 -0.725188
C40   C     C_3   0.272608 0.444472 0.742440 -0.749135
C41   C     C_3   0.774125 0.623042 0.173086 -0.714639
C42   C     C_3   0.799917 0.675794 0.832136 -0.721359
C43   C     C_3   0.073867 0.176175 0.307656 -0.782539
C44   C     C_3   0.296320 0.814833 0.166846 -0.694627
C45   C     C_R   0.619549 0.879599 0.499020 0.921797
C46   C     C_3   0.537235 0.316089 0.611517 -0.793157
C47   C     C_3   0.790567 0.026788 0.349284 -0.781412
C48   C     C_3   0.276890 0.883434 0.821902 -0.719401
C49   C     C_3   0.809059 0.954750 0.699594 -0.816835
C50   C     C_3   0.337719 0.237208 0.174059 -0.739707
C51   C     C_3   0.283034 0.144146 0.821067 -0.722087
C52   C     C_3   0.543130 0.687041 0.350403 -0.767103
C53   C     C_R   0.380627 0.120872 0.500853 0.913111
C54   C     C_R   0.378310 0.881953 0.498000 0.923920
C55   C     C_R   0.619658 0.119707 0.501188 0.946510
C56   C     C_R   0.001806 0.580062 0.074517 0.376981
H1    H     H_    0.999505 0.655767 0.236445 0.378960
H2    H     H_    0.749603 0.269229 0.136638 0.228512
H3    H     H_    0.850775 0.300602 0.070962 0.265946
H4    H     H_    0.798754 0.375510 0.190589 0.253793
H5    H     H_    0.119444 0.802191 0.768478 0.267142
H6    H     H_    0.987488 0.834116 0.675249 0.245118
H7    H     H_    0.015856 0.777573 0.519062 0.237373
H8    H     H_    0.062369 0.886924 0.567090 0.226709
H9    H     H_    0.249286 0.623622 0.204559 0.239979
H10   H     H_    0.369700 0.557656 0.339171 0.226986
H11   H     H_    0.296283 0.477345 0.260175 0.244063
H12   H     H_    0.000005 0.344305 0.763469 0.383100
H13   H     H_    0.286240 0.506248 0.435819 0.234420
H14   H     H_    0.690073 0.438375 0.688347 0.220050
H15   H     H_    0.816782 0.445984 0.855135 0.235571
H16   H     H_    0.821373 0.325291 0.819846 0.266224
H17   H     H_    0.727328 0.375456 0.892863 0.211355
H18   H     H_    0.220960 0.329659 0.827697 0.239851
H19   H     H_    0.341256 0.428520 0.739214 0.217792
H20   H     H_    0.259166 0.483624 0.837052 0.239286
H21   H     H_    0.255586 0.487581 0.657320 0.241441
H22   H     H_    0.693545 0.563486 0.309116 0.235785
H23   H     H_    0.998974 0.347372 0.223186 0.404907
H24   H     H_    0.787188 0.558939 0.115288 0.215160
H25   H     H_    0.832599 0.665391 0.175628 0.268055
H26   H     H_    0.723194 0.659928 0.120768 0.236836
H27   H     H_    0.868051 0.790593 0.786135 0.250049
H28   H     H_    0.740710 0.709769 0.865401 0.218007
H29   H     H_    0.840041 0.664553 0.921567 0.254337
H30   H     H_    0.783707 0.608613 0.784421 0.254599
H31   H     H_    0.156392 0.248198 0.188981 0.260195
H32   H     H_    0.029022 0.170494 0.221555 0.265944
H33   H     H_    0.037416 0.190795 0.400915 0.235256
H34   H     H_    0.001310 0.653189 0.776575 0.403232
H35   H     H_    0.106768 0.110019 0.315586 0.223215
H36   H     H_    0.370027 0.706260 0.222037 0.243096
H37   H     H_    0.235591 0.779270 0.142333 0.222442
H38   H     H_    0.332733 0.820272 0.072802 0.266248
H39   H     H_    0.282745 0.884526 0.206787 0.245624
H40   H     H_    0.621039 0.302030 0.770823 0.269718
H41   H     H_    0.483195 0.320233 0.682097 0.246426
H42   H     H_    0.516813 0.275169 0.521193 0.231432
H43   H     H_    0.554107 0.385934 0.581519 0.226071
H44   H     H_    0.759511 0.120924 0.206323 0.242822
H45   H     H_    0.501705 0.156330 0.233941 0.379751
H46   H     H_    0.858384 0.043039 0.369560 0.224471
H47   H     H_    0.786215 0.971784 0.270467 0.244807
H48   H     H_    0.760456 0.001820 0.441239 0.249164
H49   H     H_    0.190904 0.938333 0.686786 0.216664
H50   H     H_    0.318296 0.940823 0.856136 0.243416
H51   H     H_    0.314274 0.819718 0.824105 0.271133
H52   H     H_    0.223504 0.878775 0.893432 0.206559
H53   H     H_    0.730270 0.865726 0.802437 0.243153
H54   H     H_    0.848490 0.955443 0.792478 0.232301
H55   H     H_    0.779359 0.022471 0.691334 0.263174
H56   H     H_    0.500886 0.844108 0.764146 0.381733
H57   H     H_    0.851345 0.942517 0.612026 0.236972
H58   H     H_    0.251710 0.131457 0.201386 0.221944
H59   H     H_    0.363962 0.204265 0.082143 0.266345
H60   H     H_    0.390352 0.270688 0.231911 0.259220
H61   H     H_    0.292353 0.290055 0.143386 0.212367
H62   H     H_    0.352067 0.264962 0.809152 0.237203
H63   H     H_    0.227941 0.175855 0.872410 0.219950
H64   H     H_    0.324528 0.113402 0.897156 0.225047
H65   H     H_    0.260007 0.088722 0.751544 0.255238
H66   H     H_    0.616307 0.777575 0.234194 0.277160
H67   H     H_    0.493489 0.848276 0.222456 0.391204
H68   H     H_    0.506142 0.660820 0.262343 0.253425
H69   H     H_    0.505208 0.737693 0.408401 0.231526
H70   H     H_    0.557162 0.628661 0.414860 0.228398
H71   H     H_    0.500176 0.153642 0.778304 0.398339
H72   H     H_    0.881730 0.198353 0.240547 0.233256
N1    N     N_R   0.000000 0.500000 0.857200 -0.263362
N2    N     N_2   0.748426 0.601819 0.307760 -0.276376
N3    N     N_2   0.845561 0.731755 0.739563 -0.267984
N4    N     N_2   0.134299 0.248532 0.286065 -0.263527
N5    N     N_2   0.344960 0.764979 0.263641 -0.272019
N6    N     N_2   0.608654 0.274190 0.676529 -0.268689
N7    N     N_2   0.746741 0.106216 0.304568 -0.265458
N8    N     N_2   0.245478 0.900336 0.688010 -0.298252
N9    N     N_2   0.743144 0.886063 0.706510 -0.269538
N10   N     N_2   0.296442 0.169673 0.254268 -0.282014
N11   N     N_2   0.330587 0.211289 0.748869 -0.277860
N12   N     N_R   0.000000 0.500000 0.142800 -0.260131
N13   N     N_2   0.620591 0.727992 0.303947 -0.293470
N14   N     N_R   0.500000 0.000000 0.857200 -0.263574
N15   N     N_R   0.500000 0.000000 0.142800 -0.257356
N16   N     N_2   0.853635 0.258433 0.271033 -0.280946
N17   N     N_2   0.107950 0.775124 0.673435 -0.273576
N18   N     N_2   0.246624 0.606586 0.304025 -0.269760
N19   N     N_2   0.745249 0.401334 0.687436 -0.295327
N20   N     N_2   0.222571 0.361816 0.737398 -0.261602
O1    O     O_R   0.091610 0.408380 0.614620 -0.615569
O2    O     O_R   0.408390 0.091620 0.385380 -0.625033
O3    O     O_R   0.408390 0.091620 0.614620 -0.608772
O4    O     O_R   0.591610 0.908380 0.385380 -0.643665
O5    O     O_R   0.408390 0.908380 0.385380 -0.624683
O6    O     O_R   0.591610 0.091620 0.614620 -0.611701
O7    O     O_R   0.591610 0.091620 0.385380 -0.604950
O8    O     O_R   0.408390 0.908380 0.614620 -0.613114
O9    O     O_3   0.004285 0.663922 0.139728 -0.730807
O10   O     O_3   0.001956 0.336090 0.860460 -0.731487
O11   O     O_3   0.005099 0.337412 0.126027 -0.728239
O12   O     O_R   0.908390 0.591620 0.385380 -0.630820
O13   O     O_3   0.006607 0.663009 0.874012 -0.716746
O14   O     O_3   0.520740 0.161998 0.141062 -0.725207
O15   O     O_3   0.490335 0.836487 0.859830 -0.728234
O16   O     O_3   0.490287 0.837612 0.125094 -0.737647
O17   O     O_3   0.513508 0.162512 0.874151 -0.722049
O18   O     O_R   0.908390 0.591620 0.614620 -0.615374
O19   O     O_R   0.091610 0.408380 0.385380 -0.609715
O20   O     O_R   0.908390 0.408380 0.385380 -0.620949
O21   O     O_R   0.091610 0.591620 0.614620 -0.620783
O22   O     O_R   0.091610 0.591620 0.385380 -0.617723
O23   O     O_R   0.908390 0.408380 0.614620 -0.627357
O24   O     O_R   0.591610 0.908380 0.614620 -0.622609
Zn1   Zn    Zn3+2 0.000000 0.500000 0.653120 0.942747
Zn2   Zn    Zn3+2 0.000000 0.500000 0.346880 0.944384
Zn3   Zn    Zn3+2 0.500000 0.000000 0.653120 0.945784
Zn4   Zn    Zn3+2 0.500000 0.000000 0.346880 0.938106

loop_
_geom_bond_atom_site_label_1
_geom_bond_atom_site_label_2
_ccdc_geom_bond_type
C10   C27   A    
O7    Zn4   S    
C55   O6    A    
O2    Zn4   S    
C46   H43   S    
C11   C18   A    
C49   N9    S    
C12   C29   S    
C50   H61   S    
C49   H57   S    
H36   N5    S    
C36   H3    S    
C19   C31   A    
C54   O5    A    
C7    N15   A    
C37   H6    S    
O8    Zn3   S    
C19   N6    S    
O20   Zn2   S    
C22   C35   A    
O23   Zn1   S    
O5    Zn4   S    
C43   H33   S    
O6    Zn3   S    
C43   H32   S    
H18   N20   S    
C43   N4    S    
C25   N11   S    
C36   H2    S    
C54   O8    A    
C41   N2    S    
C56   N12   A    
C5    N15   A    
C48   H51   S    
C1    O19   A    
C14   N20   S    
C2    N1    A    
C18   N5    S    
H53   N9    S    
C50   H59   S    
C16   N3    S    
H5    N17   S    
C38   N18   S    
C44   H37   S    
C48   H50   S    
C38   H10   S    
C51   H63   S    
C39   H16   S    
C13   C28   A    
C1    O1    A    
C42   N3    S    
C42   H30   S    
C6    N14   A    
C26   N13   S    
C21   N8    S    
C50   H60   S    
C34   O22   A    
O24   Zn3   S    
C2    O10   S    
C49   H55   S    
H58   N10   S    
C46   H42   S    
C38   H13   S    
H44   N7    S    
C10   C21   A    
C47   H46   S    
C4    C56   A    
C17   N4    S    
C3    O11   S    
C17   C30   A    
N1    Zn1   S    
N15   Zn4   S    
C14   C30   A    
H12   O10   S    
C32   C54   S    
C37   H7    S    
C9    N16   S    
C15   C29   A    
C6    C7    A    
C27   C34   S    
C33   C53   S    
C21   C32   A    
C17   C24   A    
C47   H47   S    
C40   N20   S    
H34   O13   S    
O3    Zn3   S    
C38   H11   S    
C52   H70   S    
C15   C26   A    
H40   N6    S    
C24   N10   S    
C16   C29   A    
C43   H35   S    
C40   H20   S    
H31   N4    S    
C55   O7    A    
H27   N3    S    
C56   O9    S    
C46   N6    S    
C9    C20   A    
C22   N9    S    
C11   C27   A    
H71   O17   S    
C41   H25   S    
C51   H64   S    
C42   H28   S    
C42   H29   S    
C23   C28   S    
C12   O12   A    
H72   N16   S    
N14   Zn3   S    
C34   O21   A    
O19   Zn2   S    
C46   H41   S    
H49   N8    S    
C53   O2    A    
C51   H65   S    
C18   C32   A    
C13   N19   S    
H62   N11   S    
C35   C45   S    
C45   O24   A    
C37   H8    S    
O22   Zn2   S    
C44   N5    S    
H56   O15   S    
H1    O9    S    
H45   O14   S    
O18   Zn1   S    
C16   C22   A    
C47   H48   S    
C47   N7    S    
C40   H21   S    
O12   Zn2   S    
C48   N8    S    
C52   N13   S    
C36   H4    S    
C5    C8    A    
C52   H69   S    
C50   N10   S    
C11   N18   S    
C4    N1    A    
H14   N19   S    
C7    O16   S    
C24   C33   A    
C40   H19   S    
C45   O4    A    
C31   C55   S    
C5    O14   S    
C2    C3    A    
C36   N16   S    
C44   H39   S    
C14   C25   A    
C12   O18   A    
H67   O16   S    
C52   H68   S    
O21   Zn1   S    
C48   H52   S    
C15   N2    S    
C41   H26   S    
H23   O11   S    
C1    C30   S    
O1    Zn1   S    
C39   H17   S    
C20   N7    S    
H22   N2    S    
C44   H38   S    
C8    O17   S    
C10   N17   S    
C23   O20   A    
O4    Zn4   S    
C26   C35   A    
C23   O23   A    
C6    O15   S    
N12   Zn2   S    
C39   N19   S    
C53   O3    A    
C13   C19   A    
C39   H15   S    
C4    O13   S    
C41   H24   S    
C8    N14   A    
C3    N12   A    
H66   N13   S    
C37   N17   S    
H9    N18   S    
C9    C28   A    
C25   C33   A    
C49   H54   S    
C20   C31   A    
C51   N11   S    
