data_mof_unit_45608.cif
_audit_creation_date              2012-12-10T17:34:00-0500
_audit_creation_method            fapswitch 2.2
_symmetry_space_group_name_H-M    P1
_symmetry_Int_Tables_number       1
_space_group_crystal_system       triclinic
_cell_length_a                    10.66512
_cell_length_b                    11.97527
_cell_length_c                    12.928318
_cell_angle_alpha                 94.65053
_cell_angle_beta                  90.375274
_cell_angle_gamma                 86.096147
_cell_volume                      1641.91938671

loop_
_atom_site_label
_atom_site_type_symbol
_atom_type_description
_atom_site_fract_x
_atom_site_fract_y
_atom_site_fract_z
_atom_type_partial_charge
C1    C     C_R   0.494020 0.523561 0.700995 0.918913
C2    C     C_R   0.481457 0.449646 0.974171 0.082677
C3    C     C_R   0.519226 0.549282 0.028266 0.068418
C4    C     C_R   0.741766 0.501097 0.505561 0.906637
C5    C     C_R   0.535319 0.551352 0.134739 -0.286022
C6    C     C_R   0.485027 0.356256 0.133771 0.208227
C7    C     C_R   0.468408 0.353206 0.027225 -0.271400
C8    C     C_R   0.376576 0.955049 0.408701 -0.357252
C9    C     C_R   0.388792 0.838675 0.416133 0.145938
C10   C     C_R   0.556402 0.858297 0.536470 -0.057444
C11   C     C_R   0.546807 0.975842 0.531780 0.097813
C12   C     C_3   0.121198 0.499840 0.500636 0.033400
C13   C     C_R   0.455185 0.024444 0.467179 0.068116
C14   C     C_R   0.445267 0.141690 0.462095 -0.039919
C15   C     C_R   0.612560 0.162174 0.582230 0.027052
C16   C     C_R   0.505317 0.476243 0.299528 0.926653
C17   C     C_R   0.626095 0.045817 0.589700 -0.310956
C18   C     C_R   0.257764 0.500225 0.501444 0.892139
C19   C     C_3   0.936558 0.419026 0.584856 0.016536
C20   C     C_3   0.080190 0.409614 0.571276 -0.465260
C21   C     C_3   0.926531 0.458182 0.390756 0.114235
C22   C     C_3   0.921954 0.623273 0.534958 -0.168443
C23   C     C_3   0.070860 0.476498 0.387393 -0.236855
C24   C     C_3   0.878250 0.501250 0.504883 -0.043659
C25   C     C_3   0.877067 0.482915 0.202858 -0.777229
C26   C     C_3   0.588098 0.191267 0.198869 -0.710797
C27   C     C_1   0.567781 0.750584 0.032303 0.157248
C28   C     C_1   0.533242 0.743268 0.816788 0.259966
C29   C     C_3   0.264457 0.356921 0.830293 -0.793890
C30   C     C_3   0.887179 0.366947 0.760313 -0.814500
C31   C     C_1   0.308973 0.769176 0.352677 0.225647
C32   C     C_1   0.902081 0.336712 0.370138 0.202695
C33   C     C_1   0.145040 0.384514 0.326594 0.171918
C34   C     C_3   0.064917 0.616961 0.545669 -0.467212
C35   C     C_1   0.863159 0.681752 0.629574 0.178526
C36   C     C_R   0.511353 0.458702 0.187937 -0.087907
C37   C     C_R   0.487574 0.540123 0.813963 -0.178583
C38   C     C_R   0.534809 0.646254 0.976140 -0.043174
C39   C     C_R   0.519223 0.641782 0.868519 -0.108582
C40   C     C_R   0.457469 0.448044 0.868129 0.145042
H1    H     H_    0.902970 0.333670 0.565999 0.168725
H2    H     H_    0.627351 0.819306 0.584327 0.156768
H3    H     H_    0.128045 0.419110 0.647641 0.184294
H4    H     H_    0.110006 0.324117 0.535911 0.186164
H5    H     H_    0.896081 0.679069 0.472920 0.138143
H6    H     H_    0.095066 0.631337 0.628184 0.180786
H7    H     H_    0.858817 0.606992 0.322735 0.226916
H8    H     H_    0.820008 0.539442 0.154114 0.239935
H9    H     H_    0.844937 0.397110 0.186045 0.251955
H10   H     H_    0.977215 0.484593 0.180635 0.243720
H11   H     H_    0.402268 0.208429 0.153832 0.229829
H12   H     H_    0.100395 0.685971 0.503559 0.193430
H13   H     H_    0.571151 0.120255 0.245973 0.239628
H14   H     H_    0.658191 0.243285 0.239911 0.260252
H15   H     H_    0.626559 0.156974 0.122203 0.227222
H16   H     H_    0.446037 0.278436 0.818231 0.227402
H17   H     H_    0.242873 0.339126 0.910983 0.240583
H18   H     H_    0.225514 0.291345 0.776061 0.236736
H19   H     H_    0.218576 0.439987 0.814712 0.237697
H20   H     H_    0.953530 0.517517 0.726829 0.251820
H21   H     H_    0.858837 0.404555 0.838743 0.248149
H22   H     H_    0.977250 0.315636 0.766677 0.240799
H23   H     H_    0.084028 0.553002 0.346375 0.161122
H24   H     H_    0.812695 0.312604 0.730799 0.241785
H25   H     H_    0.562699 0.627125 0.177940 0.184903
H26   H     H_    0.445183 0.274452 0.987346 0.147989
H27   H     H_    0.376022 0.180476 0.412237 0.150147
H28   H     H_    0.673709 0.216272 0.626342 0.122821
H29   H     H_    0.306585 0.990998 0.357478 0.156429
H30   H     H_    0.697644 0.011081 0.640077 0.157216
N1    N     N_R   0.523380 0.207800 0.519350 -0.100714
N2    N     N_1   0.883422 0.242749 0.354334 -0.230220
N3    N     N_1   0.202426 0.312733 0.279116 -0.216249
N4    N     N_1   0.817900 0.727595 0.703762 -0.217228
N5    N     N_R   0.476620 0.792180 0.480650 -0.126908
N6    N     N_2   0.859054 0.521002 0.311683 -0.319633
N7    N     N_2   0.471246 0.257211 0.185379 -0.288900
N8    N     N_1   0.593919 0.833532 0.076922 -0.209849
N9    N     N_1   0.543690 0.825403 0.777272 -0.215498
N10   N     N_2   0.398746 0.356079 0.815088 -0.276501
N11   N     N_2   0.901585 0.455257 0.692167 -0.286501
N12   N     N_1   0.244630 0.714026 0.300886 -0.237645
O1    O     O_R   0.506240 0.421700 0.658830 -0.600132
O2    O     O_R   0.491240 0.609310 0.646410 -0.623166
O3    O     O_R   0.692710 0.406190 0.506230 -0.635509
O4    O     O_R   0.677700 0.593810 0.493810 -0.631943
O5    O     O_R   0.508760 0.390690 0.353590 -0.590106
O6    O     O_R   0.493760 0.578300 0.341170 -0.627498
O7    O     O_R   0.322300 0.406190 0.506190 -0.621055
O8    O     O_R   0.307290 0.593810 0.493770 -0.634074
Zn1   Zn    Zn3+2 0.510020 0.374730 0.508290 0.967948
Zn2   Zn    Zn3+2 0.489980 0.625270 0.491710 0.959302

loop_
_geom_bond_atom_site_label_1
_geom_bond_atom_site_label_2
_ccdc_geom_bond_type
C35   N4    T    
C8    C13   A    
O5    Zn1   S    
C10   H2    S    
C14   N1    A    
C19   C20   S    
C27   N8    T    
C26   H15   S    
O3    Zn1   S    
C32   N2    T    
C1    O2    A    
C22   C35   S    
C21   N6    S    
C8    H29   S    
C31   N12   T    
H7    N6    S    
C37   C40   A    
C30   H24   S    
C38   C39   A    
C4    C24   S    
C4    O4    A    
C27   C38   S    
C5    C36   A    
C10   N5    A    
C28   N9    T    
C25   H10   S    
C2    C7    A    
O6    Zn2   S    
C3    C38   A    
C8    C9    A    
C23   C33   S    
C16   O5    A    
C14   H27   S    
C40   N10   S    
C34   H6    S    
C9    N5    A    
O7    Zn1   S    
C1    C37   S    
C23   H23   S    
C17   H30   S    
C13   C14   A    
C26   H14   S    
C20   H4    S    
C22   C34   S    
C21   C32   S    
C26   N7    S    
C18   O8    A    
C29   H19   S    
C5    H25   S    
C6    N7    S    
C4    O3    A    
C28   C39   S    
H11   N7    S    
H20   N11   S    
O8    Zn2   S    
C12   C23   S    
C12   C20   S    
C25   H8    S    
N5    Zn2   S    
C33   N3    T    
C29   H17   S    
C30   H22   S    
C22   C24   S    
C21   C24   S    
C12   C34   S    
C26   H13   S    
C20   H3    S    
O1    Zn1   S    
C15   C17   A    
C11   C17   A    
C18   O7    A    
C3    C5    A    
C6    C7    A    
C1    O1    A    
C15   N1    A    
C34   H12   S    
H16   N10   S    
C25   N6    S    
C30   N11   S    
C21   C23   S    
C2    C3    A    
C37   C39   A    
O4    Zn2   S    
C16   C36   S    
C7    H26   S    
C11   C13   A    
C29   N10   S    
C15   H28   S    
C6    C36   A    
C19   C24   S    
C25   H9    S    
C10   C11   A    
C9    C31   S    
C2    C40   A    
C22   H5    S    
N1    Zn1   S    
C29   H18   S    
C30   H21   S    
C12   C18   S    
C16   O6    A    
O2    Zn2   S    
C19   N11   S    
C19   H1    S    
