data_mof_unit_5166.cif
_audit_creation_date              2012-12-10T17:17:27-0500
_audit_creation_method            fapswitch 2.2
_symmetry_space_group_name_H-M    P1
_symmetry_Int_Tables_number       1
_space_group_crystal_system       triclinic
_cell_length_a                    10.294343
_cell_length_b                    10.627688
_cell_length_c                    12.285393
_cell_angle_alpha                 91.792627
_cell_angle_beta                  109.702855
_cell_angle_gamma                 95.118693
_cell_volume                      1257.64532701

loop_
_atom_site_label
_atom_site_type_symbol
_atom_type_description
_atom_site_fract_x
_atom_site_fract_y
_atom_site_fract_z
_atom_type_partial_charge
C1    C     C_R   0.046755 0.732433 0.486539 0.941464
C2    C     C_R   0.418131 0.490526 0.994230 0.092771
C3    C     C_R   0.323492 0.448431 0.883882 0.091614
C4    C     C_R   0.554017 0.453935 0.025601 0.089678
C5    C     C_R   0.586284 0.362029 0.955236 0.131729
C6    C     C_R   0.483864 0.307097 0.855078 -0.244428
C7    C     C_R   0.353661 0.349535 0.819738 -0.186746
C8    C     C_R   0.659613 0.508840 0.123515 -0.268627
C9    C     C_R   0.824495 0.377623 0.087682 -0.047776
C10   C     C_R   0.202327 0.508968 0.838949 -0.111965
C11   C     C_2   0.061630 0.864439 0.462786 -0.386695
C12   C     C_R   0.132554 0.507050 0.714129 0.853048
C13   C     C_2   0.948525 0.926076 0.418832 0.157307
C14   C     C_2   0.905638 0.131140 0.481860 -0.390621
C15   C     C_2   0.969484 0.062655 0.425993 -0.174796
C16   C     C_2   0.432757 0.514926 0.505857 -0.188797
C17   C     C_2   0.564998 0.496458 0.481227 0.099528
C18   C     C_R   0.946279 0.266290 0.501784 0.933179
C19   C     C_R   0.865948 0.487012 0.285267 0.850141
C20   C     C_R   0.721116 0.327070 0.985075 -0.179267
C21   C     C_R   0.788744 0.463275 0.161188 -0.159264
C22   C     C_R   0.159542 0.586492 0.912112 -0.187414
C23   C     C_R   0.242935 0.612390 0.027137 -0.145530
C24   C     C_R   0.373176 0.568669 0.067411 -0.179414
H1    H     H_    0.825180 0.087859 0.511820 0.164736
H2    H     H_    0.165469 0.914245 0.488758 0.131910
H3    H     H_    0.434317 0.597148 0.561088 0.153640
H4    H     H_    0.688040 0.607922 0.616583 0.149530
H5    H     H_    0.505448 0.233708 0.802264 0.146100
H6    H     H_    0.745506 0.260168 0.928148 0.171731
H7    H     H_    0.642570 0.585186 0.175351 0.145149
H8    H     H_    0.064456 0.631052 0.879308 0.159127
H9    H     H_    0.434871 0.595773 0.156338 0.124557
H10   H     H_    0.209715 0.671938 0.083733 0.147148
H11   H     H_    0.276776 0.304327 0.741506 0.163505
H12   H     H_    0.051411 0.105449 0.397710 0.222584
N1    N     N_2   0.313640 0.446500 0.454900 -0.131991
N2    N     N_2   0.686360 0.553430 0.545150 -0.195451
O1    O     O_R   0.936910 0.692950 0.509080 -0.567723
O2    O     O_R   0.138320 0.658600 0.480130 -0.613528
O3    O     O_R   0.002900 0.525670 0.675280 -0.605179
O4    O     O_R   0.204310 0.491320 0.646330 -0.616363
O5    O     O_R   0.861680 0.341400 0.519870 -0.620678
O6    O     O_R   0.063090 0.307050 0.490920 -0.590131
O7    O     O_R   0.795690 0.508680 0.353670 -0.620145
O8    O     O_R   0.997100 0.474330 0.324720 -0.609726
Zn1   Zn    Zn3+2 0.865520 0.522940 0.519330 0.934206
Zn2   Zn    Zn3+2 0.134480 0.477060 0.480670 0.962979
C25   C     C_2   0.967097 0.341544 0.113130 0.470302
H13   H     H_    0.056328 0.405451 0.164148 0.119793
O9    O     O_2   0.986946 0.241043 0.073609 -0.554100
N3    N     N_3   0.809999 0.861200 0.374016 -0.403908
H14   H     H_    0.737764 0.926566 0.344488 0.185802
H15   H     H_    0.803455 0.804390 0.300905 0.172400
N4    N     N_3   0.550937 0.421607 0.378165 -0.456990
H16   H     H_    0.556710 0.481424 0.314138 0.213436
H17   H     H_    0.624827 0.357234 0.395122 0.235629
C26   C     C_2   0.312518 0.320985 0.410345 0.603244
H18   H     H_    0.401114 0.267503 0.444334 0.007721
O10   O     O_2   0.209052 0.270241 0.334981 -0.588434

loop_
_geom_bond_atom_site_label_1
_geom_bond_atom_site_label_2
_ccdc_geom_bond_type
C2    C4    A    
C23   C24   A    
C19   O7    A    
C6    C7    A    
C18   O6    A    
C13   N3    S    
N1    C26   S    
C14   C18   S    
C9    C20   A    
C24   H9    S    
C1    O2    A    
H4    N2    S    
C16   N1    D    
N4    H16   S    
C23   H10   S    
C16   H3    S    
N4    H17   S    
C2    C3    A    
O3    Zn1   S    
C19   O8    A    
C3    C10   A    
C20   H6    S    
C18   O5    A    
C10   C22   A    
N1    Zn2   S    
C11   C13   D    
C9    C21   A    
N2    Zn1   S    
C12   O3    A    
C12   O4    A    
C22   H8    S    
C17   N4    S    
C10   C12   S    
C7    H11   S    
C19   C21   S    
N3    H15   S    
C8    C21   A    
C3    C7    A    
C17   N2    D    
C13   C15   S    
C14   H1    S    
C2    C24   A    
C5    C6    A    
O8    Zn2   S    
C1    O1    A    
C26   O10   D    
C15   H12   S    
C6    H5    S    
C9    C25   S    
N3    H14   S    
O1    Zn1   S    
C25   H13   S    
O7    Zn1   S    
C4    C8    A    
C5    C20   A    
O2    Zn2   S    
C14   C15   D    
C16   C17   S    
O4    Zn2   S    
C11   H2    S    
C26   H18   S    
C22   C23   A    
C8    H7    S    
O5    Zn1   S    
O6    Zn2   S    
C4    C5    A    
C25   O9    D    
C1    C11   S    
