data_mof_unit_53379.cif
_audit_creation_date              2012-10-26T18:43:48-0400
_audit_creation_method            fapswitch 2.2
_symmetry_space_group_name_H-M    P1
_symmetry_Int_Tables_number       1
_space_group_crystal_system       triclinic
_cell_length_a                    9.598074
_cell_length_b                    10.893828
_cell_length_c                    17.225258
_cell_angle_alpha                 93.122439
_cell_angle_beta                  87.599333
_cell_angle_gamma                 90.869897
_cell_volume                      1796.66652448

loop_
_atom_site_label
_atom_site_type_symbol
_atom_type_description
_atom_site_fract_x
_atom_site_fract_y
_atom_site_fract_z
_atom_type_partial_charge
C1    C     C_R   0.501236 0.737955 0.499645 0.530220
C2    C     C_R   0.524117 0.553611 0.269805 -0.028878
C3    C     C_R   0.377618 0.934582 0.496042 -0.026728
C4    C     C_R   0.483549 0.500662 0.650334 0.554516
C5    C     C_R   0.503580 0.871277 0.492339 -0.042946
C6    C     C_R   0.627756 0.938382 0.473948 0.269956
C7    C     C_R   0.620853 0.063835 0.461092 0.216877
C8    C     C_R   0.498624 0.128981 0.483372 -0.024236
C9    C     C_R   0.376157 0.060946 0.494434 -0.005562
C10   C     C_3   0.261141 0.074003 0.554722 -0.252289
C11   C     C_3   0.260888 0.934524 0.556257 -0.271174
C12   C     C_R   0.345510 0.509331 0.775568 -0.179597
C13   C     C_R   0.927761 0.407541 0.461248 0.037538
C14   C     C_R   0.925942 0.573916 0.551962 0.326108
C15   C     C_R   0.073819 0.576240 0.549519 0.033161
C16   C     C_R   0.499507 0.262517 0.494977 0.566056
C17   C     C_R   0.074343 0.408045 0.461016 0.198883
C18   C     C_3   0.083888 0.367821 0.376567 0.466389
C19   C     C_3   0.925109 0.364846 0.377732 -0.230497
C20   C     C_R   0.517148 0.514644 0.351114 0.562753
C21   C     C_R   0.476836 0.505883 0.736116 0.048020
C22   C     C_R   0.599174 0.510586 0.779365 0.239251
C23   C     C_R   0.399661 0.607538 0.155821 0.235400
C24   C     C_R   0.586816 0.523133 0.860809 -0.106307
C25   C     C_R   0.455315 0.530255 0.899130 -0.006251
C26   C     C_R   0.335048 0.520318 0.856345 -0.130951
C27   C     C_3   0.809530 0.886914 0.547088 0.022839
C28   C     C_3   0.860174 0.013368 0.578846 -0.291777
C29   C     C_3   0.927548 0.004162 0.657048 -0.469655
C30   C     C_3   0.191259 0.219986 0.288214 0.060657
C31   C     C_3   0.069863 0.198847 0.233466 -0.284037
C32   C     C_3   0.120858 0.144895 0.153917 -0.481498
C33   C     C_3   0.804934 0.687591 0.303987 0.032153
C34   C     C_R   0.400166 0.581171 0.234437 -0.174188
C35   C     C_3   0.926825 0.753883 0.263521 -0.289563
C36   C     C_3   0.971906 0.868827 0.311174 -0.443980
C37   C     C_R   0.652054 0.575512 0.228490 0.247820
C38   C     C_R   0.652032 0.597292 0.149422 -0.135950
C39   C     C_R   0.526523 0.606724 0.112084 0.029683
C40   C     C_2   0.441475 0.542343 0.984227 -0.089398
C41   C     C_2   0.531501 0.609634 0.026901 -0.088123
Cu1   Cu    Cu3+1 0.359330 0.500020 0.500000 0.970993
Cu2   Cu    Cu3+1 0.640670 0.499980 0.500000 0.981689
H1    H     H_    0.750646 0.604090 0.116788 0.124746
H2    H     H_    0.618473 0.657346 0.998886 0.104173
H3    H     H_    0.232798 0.523408 0.885498 0.126697
H4    H     H_    0.250127 0.504614 0.744028 0.142294
H5    H     H_    0.356092 0.492524 0.012174 0.171257
H6    H     H_    0.680000 0.525134 0.894217 0.087754
H7    H     H_    0.802343 0.507986 0.780627 0.319017
H8    H     H_    0.901677 0.826824 0.543034 0.181209
H9    H     H_    0.730988 0.850202 0.589500 0.141866
H10   H     H_    0.936997 0.051635 0.536534 0.173213
H11   H     H_    0.770888 0.076617 0.588647 0.152934
H12   H     H_    0.295167 0.121258 0.609715 0.133145
H13   H     H_    0.848818 0.974249 0.701475 0.162749
H14   H     H_    0.970059 0.095557 0.676526 0.154660
H15   H     H_    0.013845 0.937250 0.652327 0.156972
H16   H     H_    0.782926 0.165614 0.471122 0.330128
H17   H     H_    0.763903 0.649750 0.601257 0.379763
H18   H     H_    0.098286 0.537680 0.344228 0.293166
H19   H     H_    0.250184 0.133032 0.288654 0.138588
H20   H     H_    0.266912 0.289521 0.266058 0.187010
H21   H     H_    0.992078 0.134753 0.259314 0.170828
H22   H     H_    0.017946 0.287372 0.225250 0.190393
H23   H     H_    0.166269 0.111494 0.530630 0.164551
H24   H     H_    0.198245 0.208007 0.126716 0.155829
H25   H     H_    0.031232 0.132146 0.115431 0.156335
H26   H     H_    0.169434 0.054094 0.159678 0.155090
H27   H     H_    0.835058 0.668121 0.363646 0.187945
H28   H     H_    0.713221 0.749968 0.310936 0.143216
H29   H     H_    0.016699 0.690882 0.255354 0.163684
H30   H     H_    0.895777 0.780266 0.205336 0.163533
H31   H     H_    0.884699 0.934850 0.318727 0.209788
H32   H     H_    0.061303 0.913765 0.280503 0.142480
H33   H     H_    0.005254 0.844152 0.369270 0.174220
H34   H     H_    0.292910 0.900618 0.612505 0.130302
H35   H     H_    0.198373 0.629021 0.159421 0.320040
H36   H     H_    0.165026 0.890429 0.532916 0.141044
H37   H     H_    0.128702 0.639167 0.588718 0.136731
H38   H     H_    0.303795 0.585838 0.268104 0.173672
H39   H     H_    0.880677 0.432679 0.341295 0.189539
H40   H     H_    0.881806 0.271244 0.367933 0.172743
N1    N     N_R   0.852130 0.499070 0.499500 -0.256848
N2    N     N_R   0.148040 0.499110 0.499500 -0.283760
O1    O     O_R   0.381190 0.680360 0.500000 -0.515463
O2    O     O_3   0.758248 0.886099 0.470912 -0.561170
O3    O     O_3   0.735748 0.120237 0.428280 -0.698703
O4    O     O_3   0.862396 0.643028 0.611857 -0.720450
O5    O     O_3   0.142771 0.457614 0.329152 -0.714314
O6    O     O_3   0.144793 0.249611 0.366061 -0.552994
O7    O     O_3   0.778623 0.573312 0.263368 -0.587916
O8    O     O_3   0.277746 0.635727 0.121140 -0.712665
O9    O     O_R   0.618770 0.680320 0.499990 -0.519610
O10   O     O_R   0.367430 0.500040 0.613600 -0.534429
O11   O     O_R   0.605020 0.500000 0.613590 -0.449281
O12   O     O_R   0.381230 0.319680 0.500010 -0.475256
O13   O     O_R   0.618810 0.319640 0.500000 -0.499041
O14   O     O_R   0.394980 0.500000 0.386410 -0.459511
O15   O     O_R   0.632570 0.499960 0.386400 -0.483172
O16   O     O_3   0.728951 0.502506 0.741691 -0.656098

loop_
_geom_bond_atom_site_label_1
_geom_bond_atom_site_label_2
_ccdc_geom_bond_type
C35   C36   S    
Cu2   O13   S    
C14   N1    A    
C7    C8    A    
C39   C41   S    
H17   O4    S    
C27   H9    S    
C13   N1    A    
C22   O16   S    
C17   N2    A    
C18   O6    S    
C28   C29   S    
C25   C40   S    
C5    C6    A    
C16   O12   A    
H35   O8    S    
C1    O1    A    
Cu2   O9    S    
C40   H5    S    
C18   C19   S    
H16   O3    S    
C36   H33   S    
C4    O11   A    
C31   C32   S    
C8    C9    A    
Cu1   O1    S    
C34   H38   S    
C19   H39   S    
C11   H34   S    
C9    C10   S    
C15   N2    A    
C2    C34   A    
C8    C16   S    
C30   H20   S    
Cu2   N1    S    
C12   H4    S    
C19   H40   S    
C27   H8    S    
Cu2   O11   S    
C10   H23   S    
C38   C39   A    
C13   C19   S    
C2    C20   S    
Cu1   O10   S    
C18   O5    S    
C24   C25   A    
C33   O7    S    
C28   H11   S    
C1    O9    A    
C25   C26   A    
C12   C21   A    
C6    O2    S    
C23   O8    S    
C12   C26   A    
C14   O4    S    
C38   H1    S    
C37   C38   A    
C3    C9    A    
C36   H32   S    
C4    O10   A    
C7    O3    S    
C20   O15   A    
C23   C34   A    
C17   C18   S    
Cu1   N2    S    
Cu2   O15   S    
C27   O2    S    
C10   H12   S    
C6    C7    A    
C11   H36   S    
C33   H27   S    
C32   H24   S    
C40   C41   D    
C29   H14   S    
C35   H29   S    
C30   H19   S    
C1    C5    S    
Cu1   O12   S    
Cu1   Cu2   S    
H18   O5    S    
C24   H6    S    
C31   H22   S    
C35   H30   S    
C37   O7    S    
C31   H21   S    
C30   O6    S    
C3    C5    A    
C28   H10   S    
C32   H26   S    
C29   H13   S    
C13   C17   A    
Cu1   O14   S    
C32   H25   S    
C4    C21   S    
C2    C37   A    
C16   O13   A    
C30   C31   S    
C20   O14   A    
C23   C39   A    
C33   C35   S    
C22   C24   A    
C15   H37   S    
C3    C11   S    
C10   C11   S    
C33   H28   S    
C29   H15   S    
H7    O16   S    
C27   C28   S    
C41   H2    S    
C14   C15   A    
C21   C22   A    
C26   H3    S    
C36   H31   S    
