data_mof_unit_34021.cif
_audit_creation_date              2012-12-10T20:31:56-0500
_audit_creation_method            fapswitch 2.2
_symmetry_space_group_name_H-M    P1
_symmetry_Int_Tables_number       1
_space_group_crystal_system       triclinic
_cell_length_a                    9.900854
_cell_length_b                    10.593
_cell_length_c                    15.319774
_cell_angle_alpha                 89.545942
_cell_angle_beta                  68.470034
_cell_angle_gamma                 91.050625
_cell_volume                      1494.18860452

loop_
_atom_site_label
_atom_site_type_symbol
_atom_type_description
_atom_site_fract_x
_atom_site_fract_y
_atom_site_fract_z
_atom_type_partial_charge
C1    C     C_R   0.501765 0.739326 0.499246 0.933433
C2    C     C_R   0.440129 0.416520 0.901907 -0.049209
C3    C     C_R   0.305863 0.351867 0.949157 0.158127
C4    C     C_R   0.553026 0.407056 0.937533 -0.102003
C5    C     C_R   0.512809 0.376390 0.033252 0.040503
C6    C     C_R   0.380586 0.309407 0.079311 -0.118442
C7    C     C_R   0.280059 0.293747 0.036061 -0.258072
C8    C     C_R   0.703539 0.427191 0.882934 0.424758
C9    C     C_R   0.801503 0.445354 0.928268 -0.232516
C10   C     C_R   0.752519 0.446867 0.026181 0.019509
C11   C     C_R   0.605135 0.417328 0.079627 -0.024652
C12   C     C_R   0.409650 0.499286 0.676321 0.932501
C13   C     C_R   0.847448 0.481303 0.071280 -0.183182
C14   C     C_R   0.795084 0.494753 0.168370 -0.252718
C15   C     C_R   0.549756 0.446495 0.175817 0.408839
C16   C     C_R   0.477651 0.934570 0.580478 -0.057799
C17   C     C_R   0.508121 0.870970 0.497073 -0.137064
C18   C     C_R   0.554798 0.935044 0.410856 -0.244457
C19   C     C_R   0.552369 0.065907 0.409001 0.410848
C20   C     C_R   0.500568 0.128719 0.495963 -0.113105
C21   C     C_R   0.471384 0.063279 0.580092 -0.087979
C22   C     C_3   0.341178 0.065905 0.669860 0.250193
C23   C     C_R   0.498912 0.260576 0.500084 0.875265
C24   C     C_3   0.349969 0.921515 0.671103 0.183449
C25   C     C_R   0.921803 0.608364 0.516298 0.274346
C26   C     C_R   0.928206 0.390658 0.494657 -0.248281
C27   C     C_R   0.072957 0.390038 0.492604 0.486266
C28   C     C_R   0.063742 0.608427 0.516650 0.186141
C29   C     C_3   0.103305 0.727688 0.459461 -0.509874
C30   C     C_3   0.950170 0.727081 0.459090 -0.517020
C31   C     C_R   0.590304 0.497613 0.323379 0.838072
C32   C     C_R   0.356996 0.472887 0.777051 -0.093493
C33   C     C_R   0.645930 0.480681 0.221076 -0.159180
C34   C     C_R   0.199565 0.347370 0.908913 -0.261113
C35   C     C_R   0.227697 0.403587 0.821223 -0.298551
C36   C     C_R   0.453156 0.493285 0.823543 0.373502
H1    H     H_    0.179133 0.242288 0.072750 0.149636
H2    H     H_    0.961510 0.500499 0.031345 0.162213
H3    H     H_    0.587211 0.883514 0.345757 0.155851
H4    H     H_    0.367165 0.114484 0.726250 0.040295
H5    H     H_    0.380176 0.883869 0.729190 0.114876
H6    H     H_    0.875326 0.302498 0.489276 0.181433
H7    H     H_    0.124764 0.807629 0.499160 0.217943
H8    H     H_    0.188508 0.714813 0.389139 0.211056
H9    H     H_    0.884503 0.806303 0.498882 0.218814
H10   H     H_    0.945461 0.712547 0.388471 0.208302
H11   H     H_    0.870635 0.520942 0.201745 0.177749
H12   H     H_    0.914979 0.463823 0.886622 0.174892
H13   H     H_    0.097841 0.295927 0.943233 0.155590
H14   H     H_    0.151327 0.389533 0.786475 0.190840
H15   H     H_    0.355022 0.267469 0.148307 0.183867
N1    N     N_R   0.856900 0.500860 0.500610 -0.127786
N2    N     N_R   0.142540 0.500820 0.500610 -0.151296
O1    O     O_R   0.385310 0.683210 0.499990 -0.604763
O2    O     O_R   0.614650 0.683240 0.500000 -0.617013
O3    O     O_R   0.319830 0.499970 0.632240 -0.600568
O4    O     O_R   0.549170 0.500000 0.632250 -0.555744
O5    O     O_R   0.385350 0.316760 0.500000 -0.536487
O6    O     O_R   0.614690 0.316790 0.500010 -0.643767
O7    O     O_R   0.450830 0.500000 0.367750 -0.579441
O8    O     O_R   0.680170 0.500030 0.367760 -0.620716
Zn1   Zn    Zn3+2 0.346870 0.499980 0.499990 1.009839
Zn2   Zn    Zn3+2 0.653130 0.500020 0.500010 0.964267
O9    O     O_3   0.594395 0.126313 0.322485 -0.774263
H16   H     H_    0.582396 0.218432 0.330733 0.317620
O10   O     O_3   0.218986 0.111929 0.653719 -0.554921
C37   C     C_3   0.098064 0.113236 0.738944 0.106978
H17   H     H_    0.123543 0.163787 0.794431 0.120057
H18   H     H_    0.060490 0.015553 0.764449 0.184240
C38   C     C_3   0.974428 0.179989 0.722842 -0.732557
H19   H     H_    0.878321 0.181226 0.789310 0.200163
H20   H     H_    0.008086 0.278648 0.698449 0.284229
H21   H     H_    0.944367 0.129849 0.668981 0.259285
O11   O     O_3   0.230582 0.855340 0.662810 -0.739498
H22   H     H_    0.212990 0.889360 0.607523 0.367679
O12   O     O_3   0.138756 0.275686 0.489204 -0.565244
C39   C     C_3   0.181121 0.226050 0.397784 0.144639
H23   H     H_    0.293262 0.260105 0.355791 0.205324
H24   H     H_    0.109132 0.252304 0.359248 0.105928
C40   C     C_3   0.180071 0.082597 0.404698 -0.813214
H25   H     H_    0.067204 0.046131 0.441263 0.244003
H26   H     H_    0.224106 0.042258 0.333350 0.210848
H27   H     H_    0.247407 0.051904 0.444750 0.277978
O13   O     O_3   0.400976 0.447841 0.224483 -0.636358
C41   C     C_3   0.346548 0.563801 0.206484 0.133779
H28   H     H_    0.390667 0.591372 0.130649 0.133196
H29   H     H_    0.374006 0.640356 0.246799 0.141146
C42   C     C_3   0.182220 0.551649 0.236904 -0.866041
H30   H     H_    0.133416 0.520955 0.311508 0.250778
H31   H     H_    0.137129 0.644015 0.228206 0.206365
H32   H     H_    0.152936 0.480904 0.193397 0.256035
O14   O     O_3   0.555588 0.590238 0.791598 -0.732629
H33   H     H_    0.578106 0.622293 0.845435 0.339536
O15   O     O_3   0.760158 0.422921 0.786240 -0.747084
H34   H     H_    0.693866 0.370695 0.765438 0.345080

loop_
_geom_bond_atom_site_label_1
_geom_bond_atom_site_label_2
_ccdc_geom_bond_type
O5    Zn1   S    
C23   O5    A    
C16   C21   A    
C31   O8    A    
C30   H9    S    
C19   C20   A    
C4    C8    A    
C14   C33   A    
C39   H23   S    
C25   C28   A    
C23   O6    A    
C26   C27   A    
C32   C36   A    
C28   C29   S    
C5    C11   A    
C3    C7    A    
C5    C6    A    
C41   C42   S    
C8    C9    A    
O7    Zn1   S    
C34   C35   A    
O8    Zn2   S    
C22   O10   S    
C14   H11   S    
C11   C15   A    
C16   C17   A    
O2    Zn2   S    
C42   H32   S    
C38   H19   S    
C6    H15   S    
C9    C10   A    
C36   O14   S    
C41   H29   S    
O10   C37   S    
C16   C24   S    
C21   C22   S    
C12   C32   S    
C24   H5    S    
C35   H14   S    
C40   H27   S    
O4    Zn2   S    
C6    C7    A    
C39   H24   S    
O11   H22   S    
C37   H17   S    
C32   C35   A    
C8    O15   S    
O12   C39   S    
C40   H26   S    
C18   C19   A    
O1    Zn1   S    
C3    C34   A    
C41   H28   S    
N1    Zn2   S    
C37   H18   S    
C31   O7    A    
C2    C4    A    
C18   H3    S    
C29   C30   S    
C26   N1    A    
N2    Zn1   S    
C20   C23   S    
C19   O9    S    
C22   H4    S    
C20   C21   A    
C38   H21   S    
C31   C33   S    
C17   C18   A    
C7    H1    S    
O13   C41   S    
C13   H2    S    
C12   O3    A    
C1    O1    A    
C12   O4    A    
C42   H31   S    
C29   H8    S    
O3    Zn1   S    
C27   O12   S    
C26   H6    S    
C39   C40   S    
C2    C36   A    
C25   C30   S    
C34   H13   S    
O6    Zn2   S    
C30   H10   S    
C40   H25   S    
C10   C13   A    
C28   N2    A    
C27   N2    A    
C15   O13   S    
C1    C17   S    
C37   C38   S    
O9    H16   S    
C2    C3    A    
C1    O2    A    
C25   N1    A    
C24   O11   S    
O14   H33   S    
C22   C24   S    
O15   H34   S    
C10   C11   A    
C4    C5    A    
C42   H30   S    
C9    H12   S    
C38   H20   S    
C13   C14   A    
C15   C33   A    
C29   H7    S    
