data_mof_unit_22258.cif
_audit_creation_date              2012-12-11T19:20:39-0500
_audit_creation_method            fapswitch 2.2
_symmetry_space_group_name_H-M    P1
_symmetry_Int_Tables_number       1
_space_group_crystal_system       triclinic
_cell_length_a                    8.163788
_cell_length_b                    14.964688
_cell_length_c                    18.786202
_cell_angle_alpha                 101.025609
_cell_angle_beta                  91.205859
_cell_angle_gamma                 98.85216
_cell_volume                      2222.8704192

loop_
_atom_site_label
_atom_site_type_symbol
_atom_type_description
_atom_site_fract_x
_atom_site_fract_y
_atom_site_fract_z
_atom_type_partial_charge
Ba1   Ba    Ba6+2 0.853510 0.540900 0.466480 1.645131
Ba2   Ba    Ba6+2 0.336320 0.459170 0.533530 1.627855
C1    C     C_3   0.718840 0.881503 0.319920 -0.371489
C2    C     C_R   0.891595 0.414198 0.093714 0.039230
C3    C     C_R   0.728220 0.372998 0.069921 -0.082669
C4    C     C_3   0.183434 0.753051 0.276240 0.422724
C5    C     C_R   0.666199 0.374938 0.000260 -0.089838
C6    C     C_R   0.767309 0.416473 0.952217 0.029719
C7    C     C_R   0.931346 0.457979 0.975410 0.016200
C8    C     C_R   0.707569 0.415682 0.881224 -0.107765
C9    C     C_R   0.810320 0.454690 0.831725 -0.042615
C10   C     C_R   0.974383 0.498174 0.855403 -0.009718
C11   C     C_R   0.034170 0.498681 0.927136 -0.006684
C12   C     C_3   0.673624 0.782849 0.331877 0.405652
C13   C     C_R   0.756339 0.449726 0.758694 0.000108
C14   C     C_R   0.865465 0.486098 0.710901 -0.296321
C15   C     C_R   0.023783 0.534404 0.734205 0.044455
C16   C     C_3   0.106916 0.737941 0.198838 0.422604
C17   C     C_R   0.079647 0.540760 0.807583 -0.048092
C18   C     C_R   0.156517 0.500337 0.070654 -0.015256
C19   C     C_R   0.216343 0.505081 0.143408 -0.056058
C20   C     C_R   0.111968 0.460960 0.191235 -0.023622
C21   C     C_R   0.953990 0.412112 0.163584 -0.047572
C22   C     C_R   0.240090 0.584936 0.834058 -0.041061
C23   C     C_3   0.463972 0.319415 0.310013 0.310240
C24   C     C_R   0.303827 0.576453 0.901630 0.041785
C25   C     C_R   0.199398 0.536737 0.949759 0.022321
C26   C     C_R   0.260522 0.536902 0.020962 -0.039802
C27   C     C_R   0.472796 0.604508 0.920926 -0.107924
C28   C     C_3   0.242267 0.745328 0.628298 0.310927
C29   C     C_R   0.534345 0.600106 0.989540 -0.088549
C30   C     C_R   0.425691 0.575437 0.042283 -0.003386
C31   C     C_R   0.378713 0.554615 0.167653 -0.107748
C32   C     C_R   0.477863 0.595403 0.116220 0.382205
C33   C     C_R   0.433191 0.559729 0.241407 -0.006410
C34   C     C_3   0.438469 0.294305 0.227747 -0.426256
C35   C     C_R   0.324951 0.518751 0.288314 -0.280182
C36   C     C_R   0.166978 0.468133 0.265152 0.054414
C37   C     C_R   0.341285 0.819888 0.449789 -0.020683
C38   C     C_R   0.577588 0.792052 0.517550 0.056053
C39   C     C_R   0.764184 0.231214 0.517969 -0.287809
C40   C     C_3   0.273298 0.850169 0.649020 -0.392290
C41   C     C_R   0.856550 0.174417 0.546290 0.016110
C42   C     C_R   0.794417 0.080866 0.539876 -0.150427
C43   C     C_R   0.637962 0.042221 0.503513 0.009253
C44   C     C_R   0.550847 0.100351 0.470306 -0.014081
C45   C     C_3   0.054610 0.275837 0.725771 0.359945
C46   C     C_R   0.567367 0.947410 0.496903 0.004177
C47   C     C_R   0.412223 0.913273 0.457192 -0.015611
C48   C     C_R   0.331842 0.972516 0.424942 -0.108029
C49   C     C_R   0.400694 0.063521 0.430411 -0.055320
C50   C     C_R   0.645461 0.885203 0.528294 -0.145028
C51   C     C_R   0.428218 0.759372 0.477180 -0.291898
C52   C     C_3   0.953469 0.252913 0.369828 0.315751
C53   C     C_R   0.616190 0.194467 0.477491 0.015220
C54   C     C_3   0.934396 0.148292 0.348824 -0.405393
C55   C     C_3   0.732667 0.674372 0.688410 0.318629
C56   C     C_3   0.063933 0.252513 0.800906 -0.366891
C57   C     C_3   0.757498 0.706763 0.770296 -0.405989
C58   C     C_3   0.589642 0.749614 0.150029 0.304074
C59   C     C_3   0.558218 0.790215 0.082720 -0.257283
C60   C     C_3   0.570046 0.894922 0.102942 -0.506576
C61   C     C_3   0.107796 0.880862 0.163203 0.264442
C62   C     C_3   0.190736 0.957469 0.225392 -0.203596
C63   C     C_3   0.243466 0.047877 0.199952 -0.518231
C64   C     C_3   0.527446 0.221031 0.680517 0.362229
C65   C     C_3   0.488989 0.125426 0.698588 -0.367599
C66   C     C_R   0.992992 0.458001 0.046820 0.029320
H1    H     H_    0.732408 0.779060 0.384628 0.091111
H2    H     H_    0.849223 0.654433 0.666688 0.011692
H3    H     H_    0.631562 0.614058 0.676629 0.064537
H4    H     H_    0.847102 0.893592 0.301817 0.174815
H5    H     H_    0.863140 0.764606 0.783414 0.128517
H6    H     H_    0.784438 0.649749 0.796276 0.054534
H7    H     H_    0.643309 0.730529 0.792678 0.116425
H8    H     H_    0.536768 0.766573 0.333745 -0.122138
H9    H     H_    0.712351 0.931393 0.370944 0.077468
H10   H     H_    0.349826 0.342120 0.332928 0.015935
H11   H     H_    0.569160 0.377215 0.323735 0.073280
H12   H     H_    0.374057 0.873461 0.692271 0.122293
H13   H     H_    0.318303 0.247928 0.212143 0.122380
H14   H     H_    0.436530 0.357495 0.205243 0.060264
H15   H     H_    0.541158 0.259479 0.204077 0.127457
H16   H     H_    0.631483 0.895416 0.278878 0.069142
H17   H     H_    0.202351 0.727377 0.158045 -0.154313
H18   H     H_    0.141924 0.340489 0.725991 0.096637
H19   H     H_    0.926386 0.287005 0.714262 -0.065227
H20   H     H_    0.191915 0.242343 0.814572 0.145748
H21   H     H_    0.030287 0.309475 0.842080 0.074122
H22   H     H_    0.976227 0.188420 0.802431 0.110540
H23   H     H_    0.310199 0.880568 0.601305 0.068489
H24   H     H_    0.662613 0.236396 0.673378 -0.065431
H25   H     H_    0.458840 0.220274 0.628747 0.095492
H26   H     H_    0.526359 0.073525 0.654028 0.072521
H27   H     H_    0.353881 0.107361 0.705343 0.151224
H28   H     H_    0.208544 0.685288 0.285762 -0.110706
H29   H     H_    0.558346 0.123656 0.749661 0.108396
H30   H     H_    0.647732 0.339579 0.105374 0.059576
H31   H     H_    0.539421 0.342953 0.983683 0.069555
H32   H     H_    0.823746 0.480149 0.654917 0.071897
H33   H     H_    0.581125 0.383387 0.865001 0.108401
H34   H     H_    0.158324 0.875333 0.669052 0.128149
H35   H     H_    0.875117 0.373571 0.196323 0.093634
H36   H     H_    0.320977 0.623051 0.801804 0.100235
H37   H     H_    0.557468 0.629725 0.883030 0.068453
H38   H     H_    0.666116 0.621536 0.002676 0.116556
H39   H     H_    0.302536 0.800945 0.281209 -0.114874
H40   H     H_    0.367251 0.523193 0.343997 0.065676
H41   H     H_    0.374490 0.687420 0.471039 0.075079
H42   H     H_    0.215085 0.949488 0.394020 0.089821
H43   H     H_    0.758487 0.906630 0.561830 0.084914
H44   H     H_    0.813179 0.303770 0.523483 0.069713
H45   H     H_    0.833243 0.272884 0.385580 0.001867
H46   H     H_    0.872422 0.040534 0.562660 0.081575
H47   H     H_    0.332265 0.104266 0.402900 0.093923
H48   H     H_    0.018447 0.672039 0.189038 0.088451
H49   H     H_    0.358812 0.720971 0.611448 0.008913
H50   H     H_    0.147363 0.724199 0.582616 0.072185
H51   H     H_    0.703280 0.793515 0.177149 0.170559
H52   H     H_    0.488071 0.757809 0.187965 -0.011149
H53   H     H_    0.653547 0.775640 0.042789 0.132845
H54   H     H_    0.432249 0.760672 0.057796 0.116516
H55   H     H_    0.491530 0.914163 0.148950 0.133680
H56   H     H_    0.045898 0.276763 0.416283 0.073239
H57   H     H_    0.528074 0.921648 0.055629 0.145588
H58   H     H_    0.700429 0.927700 0.119067 0.139630
H59   H     H_    0.018624 0.909693 0.132041 0.066650
H60   H     H_    0.199985 0.857734 0.123896 0.031157
H61   H     H_    0.103328 0.969343 0.269375 0.132453
H62   H     H_    0.302373 0.936948 0.248144 0.099495
H63   H     H_    0.326186 0.038142 0.153923 0.137831
H64   H     H_    0.311641 0.099069 0.245576 0.177910
H65   H     H_    0.132788 0.074934 0.182849 0.140594
H66   H     H_    0.839373 0.122030 0.303430 0.125454
H67   H     H_    0.895703 0.116351 0.395602 0.066925
H68   H     H_    0.054833 0.127891 0.331693 0.117937
O1    O     O_2   0.871970 0.437290 0.322980 -0.477045
O2    O     O_2   0.197364 0.179129 0.542496 -0.487053
O3    O     O_3   0.098415 0.203030 0.674585 -0.599015
O4    O     O_3   0.121420 0.444460 0.412460 -0.493132
O5    O     O_3   0.580410 0.613230 0.540280 -0.489983
O6    O     O_2   0.337420 0.273080 0.457680 -0.465531
O7    O     O_3   0.498118 0.242352 0.336633 -0.651842
O8    O     O_2   0.415269 0.454134 0.754722 -0.497617
O9    O     O_3   0.477584 0.285838 0.736902 -0.605480
O10   O     O_3   0.661430 0.607560 0.372520 -0.493429
O11   O     O_2   0.777273 0.549602 0.246705 -0.464824
O12   O     O_3   0.691751 0.747035 0.658333 -0.633716
O13   O     O_3   0.003583 0.290301 0.309685 -0.643800
O14   O     O_3   0.733540 0.721523 0.275898 -0.543316
O15   O     O_2   0.852280 0.726960 0.542370 -0.466645
O16   O     O_3   0.083990 0.657360 0.410240 -0.465907
O17   O     O_2   0.002955 0.820961 0.461882 -0.495967
O18   O     O_3   0.623479 0.657292 0.136027 -0.636355
O19   O     O_3   0.014401 0.808338 0.190644 -0.635425
O20   O     O_3   0.074441 0.791136 0.325881 -0.577161
O21   O     O_2   0.317740 0.562750 0.677070 -0.472860
O22   O     O_3   0.068290 0.555610 0.587550 -0.495293
O23   O     O_3   0.528280 0.392520 0.627490 -0.477254
O24   O     O_3   0.188669 0.709841 0.688910 -0.640604
O25   O     O_3   0.609300 0.386850 0.459730 -0.477859
O26   O     O_3   0.105720 0.342720 0.589770 -0.486607
P1    P     P_3+3 0.039440 0.410950 0.333260 0.969976
P2    P     P_3+3 0.676740 0.714970 0.563520 0.979070
P3    P     P_3+3 0.127576 0.774691 0.412477 0.955995
P4    P     P_3+3 0.150270 0.589130 0.666750 0.967838
P5    P     P_3+3 0.064471 0.224060 0.587408 0.950467
P6    P     P_3+3 0.648673 0.608492 0.280769 1.020236
P7    P     P_3+3 0.518178 0.271894 0.431536 0.930445
P8    P     P_3+3 0.545223 0.396642 0.720617 0.934451

loop_
_geom_bond_atom_site_label_1
_geom_bond_atom_site_label_2
_ccdc_geom_bond_type
C6    C7    A    
C59   H54   S    
C40   H12   S    
O23   P8    S    
Ba2   O26   S    
O16   P3    S    
C5    C6    A    
C43   C44   A    
O4    P1    S    
C28   O24   S    
C24   C25   A    
C5    H31   S    
C58   H51   S    
C61   H59   S    
Ba1   O22   S    
C33   C35   A    
C22   C24   A    
Ba1   Ba2   S    
C15   P4    S    
C3    H30   S    
C55   C57   S    
C19   C31   A    
C34   H15   S    
C13   C14   A    
C20   C36   A    
C52   H45   S    
O8    P8    D    
C48   H42   S    
Ba1   O16   S    
C59   H53   S    
C40   H23   S    
C60   H58   S    
C7    C11   A    
C39   C53   A    
C64   O9    S    
O10   P6    S    
C54   H68   S    
C9    C13   A    
C21   H35   S    
Ba1   P2    S    
C34   H14   S    
Ba2   O23   S    
C39   H44   S    
C44   C53   A    
C65   H26   S    
C4    H39   S    
C58   H52   S    
O13   P1    S    
O24   P4    S    
C55   H2    S    
Ba2   P4    S    
C61   H60   S    
C4    O20   S    
O25   P7    S    
C64   C65   S    
C12   H1    S    
Ba1   O25   S    
C19   C20   A    
C65   H27   S    
C39   C41   A    
C27   H37   S    
Ba1   O10   S    
C23   O7    S    
C40   H34   S    
Ba2   O25   S    
C60   H55   S    
C63   H63   S    
C48   C49   A    
C52   O13   S    
C32   O18   S    
C4    C16   S    
C52   C54   S    
C16   H17   S    
C23   H10   S    
O12   P2    S    
C45   H18   S    
C26   C30   A    
O7    P7    S    
C35   H40   S    
C8    C9    A    
C16   H48   S    
C3    C5    A    
C2    C21   A    
C14   C15   A    
C64   H24   S    
C18   C26   A    
C50   H43   S    
C38   C50   A    
C2    C66   A    
C44   C49   A    
C49   H47   S    
O26   P5    S    
C13   P8    S    
C58   C59   S    
C22   H36   S    
C12   H8    S    
C37   P3    S    
C41   C42   A    
C35   C36   A    
C29   C30   A    
C34   H13   S    
Ba2   O22   S    
O14   P6    S    
C12   O14   S    
C33   P6    S    
O15   P2    D    
C55   H3    S    
O3    P5    S    
C56   H22   S    
C57   H6    S    
C57   H5    S    
C1    C12   S    
C24   C27   A    
O6    P7    D    
C36   P1    S    
C37   C47   A    
C62   H62   S    
C38   C51   A    
C4    H28   S    
C64   H25   S    
Ba2   O6    S    
C29   H38   S    
C15   C17   A    
C1    H9    S    
C57   H7    S    
C1    H16   S    
C63   H64   S    
Ba1   O1    S    
C42   C43   A    
O22   P4    S    
O1    P1    D    
C43   C46   A    
C51   H41   S    
C52   H56   S    
O9    P8    S    
C46   C47   A    
O17   P3    D    
C18   C19   A    
C23   H11   S    
C17   C22   A    
C18   C66   A    
C8    H33   S    
C14   H32   S    
C2    C3    A    
C56   H20   S    
O21   P4    D    
C60   H57   S    
C54   H66   S    
C9    C10   A    
C38   P2    S    
C28   H49   S    
C41   P5    S    
C62   H61   S    
C28   H50   S    
Ba2   O4    S    
C62   C63   S    
C1    H4    S    
C7    C66   A    
C61   O19   S    
C27   C29   A    
C45   C56   S    
C37   C51   A    
O20   P3    S    
Ba2   O21   S    
O2    P5    D    
C10   C17   A    
C31   C33   A    
C31   C32   A    
Ba1   O15   S    
C28   C40   S    
C59   C60   S    
C56   H21   S    
C58   O18   S    
C54   H67   S    
Ba1   O5    S    
O11   P6    D    
C65   H29   S    
C23   C34   S    
C42   H46   S    
C61   C62   S    
C46   C50   A    
C10   C11   A    
Ba1   P1    S    
O5    P2    S    
C6    C8    A    
C47   C48   A    
C55   O12   S    
C45   O3    S    
C25   C26   A    
Ba2   O5    S    
C20   C21   A    
C11   C25   A    
Ba1   O4    S    
C53   P7    S    
C63   H65   S    
C16   O19   S    
C30   C32   A    
C45   H19   S    
