data_mof_unit_8612.cif
_audit_creation_date              2012-12-10T19:43:24-0500
_audit_creation_method            fapswitch 2.2
_symmetry_space_group_name_H-M    P1
_symmetry_Int_Tables_number       1
_space_group_crystal_system       triclinic
_cell_length_a                    10.922471
_cell_length_b                    10.874199
_cell_length_c                    9.696184
_cell_angle_alpha                 89.105685
_cell_angle_beta                  90.499384
_cell_angle_gamma                 93.552902
_cell_volume                      1149.2579396

loop_
_atom_site_label
_atom_site_type_symbol
_atom_type_description
_atom_site_fract_x
_atom_site_fract_y
_atom_site_fract_z
_atom_type_partial_charge
C1    C     C_R   0.499240 0.261686 0.502195 0.804078
C2    C     C_R   0.194817 0.506286 0.965436 -0.187036
C3    C     C_R   0.932783 0.500788 0.380155 -0.217240
C4    C     C_R   0.869754 0.479856 0.503025 -0.089750
C5    C     C_R   0.935798 0.444660 0.621612 0.012852
C6    C     C_R   0.063906 0.451489 0.617809 -0.210650
C7    C     C_R   0.127250 0.485615 0.496826 -0.092046
C8    C     C_R   0.059083 0.501667 0.374599 0.013399
C9    C     C_R   0.892395 0.432979 0.874104 -0.212824
C10   C     C_R   0.843411 0.369830 0.989145 -0.120784
C11   C     C_R   0.783944 0.253489 0.974922 0.341354
C12   C     C_R   0.262233 0.495256 0.499120 0.781213
C13   C     C_R   0.769958 0.201548 0.844395 -0.168016
C14   C     C_R   0.814021 0.266864 0.727963 -0.128018
C15   C     C_R   0.876298 0.382918 0.742390 0.149247
C16   C     C_R   0.468031 0.105050 0.765668 -0.192173
C17   C     C_R   0.410253 0.042526 0.875578 -0.097768
C18   C     C_R   0.354181 0.926274 0.856049 -0.095763
C19   C     C_R   0.369086 0.866354 0.731616 -0.161894
C20   C     C_R   0.432382 0.927784 0.621308 0.099478
C21   C     C_R   0.464851 0.055200 0.631710 0.095557
C22   C     C_R   0.490439 0.125399 0.507879 -0.116063
C23   C     C_R   0.485025 0.735192 0.499363 0.772957
C24   C     C_R   0.490507 0.063683 0.382001 -0.162260
C25   C     C_R   0.480142 0.936375 0.378745 -0.202931
C26   C     C_R   0.462044 0.867109 0.499525 -0.125458
C27   C     C_R   0.602062 0.711272 0.135401 0.221515
C28   C     C_R   0.593569 0.822103 0.061729 -0.288869
C29   C     C_R   0.602726 0.819628 0.920157 -0.209295
C30   C     C_R   0.611858 0.706505 0.857181 0.242823
C31   C     C_R   0.555567 0.599718 0.924091 0.140612
C32   C     C_R   0.551784 0.601513 0.072454 0.142661
C33   C     C_R   0.453130 0.402802 0.074821 0.004180
C34   C     C_R   0.736529 0.491829 0.501168 0.784805
C35   C     C_R   0.451667 0.403840 0.927889 -0.081863
C36   C     C_R   0.189040 0.616583 0.035604 -0.189009
C37   C     C_R   0.147189 0.616205 0.170916 -0.119439
C38   C     C_R   0.112109 0.504145 0.236326 0.083787
C39   C     C_R   0.116763 0.393247 0.165397 -0.154924
C40   C     C_R   0.156991 0.394157 0.029430 0.265716
Cu1   Cu    Cu3+1 0.499990 0.499990 0.640660 0.939699
Cu2   Cu    Cu3+1 0.500010 0.500010 0.359340 0.967461
H1    H     H_    0.230210 0.509154 0.862255 0.174509
H2    H     H_    0.726270 0.110305 0.833202 0.140148
H3    H     H_    0.803404 0.225353 0.627383 0.134716
H4    H     H_    0.500740 0.113533 0.285008 0.197360
H5    H     H_    0.520262 0.188167 0.790923 0.171808
H6    H     H_    0.410040 0.083964 0.976420 0.155923
H7    H     H_    0.307179 0.880333 0.941203 0.130385
H8    H     H_    0.329234 0.773269 0.721768 0.149210
H9    H     H_    0.485230 0.891710 0.281402 0.173617
H10   H     H_    0.411840 0.323524 0.129451 0.151873
H11   H     H_    0.215428 0.702073 0.983982 0.135995
H12   H     H_    0.620107 0.908857 0.109855 0.209678
H13   H     H_    0.633111 0.904031 0.866567 0.176428
H14   H     H_    0.405842 0.327773 0.875127 0.174502
H15   H     H_    0.141268 0.702444 0.224134 0.133070
H16   H     H_    0.086277 0.306795 0.214792 0.172801
H17   H     H_    0.883892 0.511528 0.285396 0.150613
H18   H     H_    0.113739 0.420712 0.706560 0.190560
H19   H     H_    0.942593 0.521041 0.887546 0.145933
H20   H     H_    0.854718 0.409656 0.089713 0.145628
N1    N     N_R   0.501190 0.501210 0.147910 -0.189270
N2    N     N_R   0.501230 0.501290 0.852040 -0.200763
O1    O     O_R   0.499990 0.319640 0.618810 -0.594829
O2    O     O_R   0.500000 0.319660 0.381240 -0.570732
O3    O     O_R   0.319640 0.500000 0.618780 -0.597373
O4    O     O_R   0.319650 0.500020 0.381210 -0.568014
O5    O     O_R   0.500000 0.680340 0.618760 -0.586181
O6    O     O_R   0.500010 0.680360 0.381190 -0.580334
O7    O     O_R   0.680350 0.499980 0.618790 -0.580557
O8    O     O_R   0.680360 0.500000 0.381220 -0.573333
Br1   Br    Br    0.727312 0.164483 0.134897 -0.634918
C41   C     C_3   0.721390 0.708567 0.213877 -0.742749
H21   H     H_    0.765516 0.624778 0.184950 0.206040
H22   H     H_    0.788014 0.785380 0.182728 0.214400
H23   H     H_    0.710318 0.717053 0.326354 0.242840
C42   C     C_3   0.728501 0.702061 0.776075 -0.763360
H24   H     H_    0.714506 0.720861 0.664792 0.237966
H25   H     H_    0.799517 0.772646 0.811494 0.198072
H26   H     H_    0.769993 0.614287 0.795932 0.234086
Br2   Br    Br    0.155242 0.242409 0.932107 -0.605070

loop_
_geom_bond_atom_site_label_1
_geom_bond_atom_site_label_2
_ccdc_geom_bond_type
C16   C21   A    
Cu1   Cu2   S    
C23   O5    A    
C19   C20   A    
C42   H26   S    
C17   H6    S    
C7    C8    A    
Cu1   O3    S    
C33   H10   S    
C12   O4    A    
C37   C38   A    
C41   H22   S    
C9    H19   S    
C28   C29   A    
C5    C6    A    
C42   H25   S    
Cu2   O6    S    
C18   C19   A    
C23   C26   S    
C36   H11   S    
C16   C17   A    
C41   H23   S    
C1    O1    A    
C35   N2    A    
C27   C41   S    
C9    C10   A    
Cu1   O7    S    
C27   C32   A    
C1    C22   S    
C21   C22   A    
Cu2   O4    S    
C23   O6    A    
C10   H20   S    
C8    C38   S    
C16   H5    S    
C17   C18   A    
C14   H3    S    
C7    C12   S    
C12   O3    A    
C4    C34   S    
C41   H21   S    
C40   Br2   S    
C24   C25   A    
C3    C8    A    
C11   Br1   S    
C39   C40   A    
C28   H12   S    
C42   H24   S    
Cu1   O1    S    
C29   H13   S    
C25   C26   A    
C39   H16   S    
C25   H9    S    
C29   C30   A    
C6    H18   S    
C31   C32   A    
C2    H1    S    
C33   N1    A    
Cu2   O8    S    
C1    O2    A    
C22   C24   A    
C3    C4    A    
C34   O8    A    
Cu1   O5    S    
C2    C36   A    
C30   C31   A    
C36   C37   A    
C35   H14   S    
C31   N2    A    
C32   N1    A    
C4    C5    A    
C6    C7    A    
C24   H4    S    
C9    C15   A    
C11   C13   A    
C19   H8    S    
C38   C39   A    
C20   C26   A    
Cu2   N1    S    
C33   C35   A    
C5    C15   S    
C10   C11   A    
C30   C42   S    
C2    C40   A    
C20   C21   A    
C27   C28   A    
Cu2   O2    S    
C14   C15   A    
Cu1   N2    S    
C13   C14   A    
C34   O7    A    
C13   H2    S    
C37   H15   S    
C18   H7    S    
C3    H17   S    
