data_mof_unit_8147.cif
_audit_creation_date              2012-10-26T21:27:07-0400
_audit_creation_method            fapswitch 2.2
_symmetry_space_group_name_H-M    P1
_symmetry_Int_Tables_number       1
_space_group_crystal_system       triclinic
_cell_length_a                    12.205508
_cell_length_b                    12.201435
_cell_length_c                    23.296493
_cell_angle_alpha                 89.961212
_cell_angle_beta                  90.093001
_cell_angle_gamma                 89.926314
_cell_volume                      3469.41528288

loop_
_atom_site_label
_atom_site_type_symbol
_atom_type_description
_atom_site_fract_x
_atom_site_fract_y
_atom_site_fract_z
_atom_type_partial_charge
C1    C     C_3   0.998980 0.000050 0.249797 0.021345
C2    C     C_R   0.900100 0.001244 0.290688 -0.020890
C3    C     C_R   0.999750 0.653140 0.922757 0.556202
C4    C     C_R   0.000194 0.348264 0.077917 0.562646
C5    C     C_R   0.347689 0.000176 0.422170 0.570014
C6    C     C_R   0.652382 0.000062 0.577730 0.570237
C7    C     C_R   0.000064 0.348007 0.922125 0.572174
C8    C     C_R   0.000180 0.652279 0.077714 0.557634
C9    C     C_R   0.652124 0.999863 0.422197 0.570153
C10   C     C_R   0.348041 0.999899 0.577926 0.570265
C11   C     C_R   0.088534 0.109437 0.170453 -0.126164
C12   C     C_3   0.000808 0.000343 0.750111 0.019587
C13   C     C_R   0.913111 0.829847 0.797235 -0.140930
C14   C     C_R   0.833175 0.090404 0.701142 -0.140084
C15   C     C_R   0.110729 0.909787 0.328462 -0.126684
C16   C     C_R   0.909217 0.889015 0.170926 -0.126695
C17   C     C_R   0.090454 0.168244 0.798485 -0.142667
C18   C     C_R   0.170143 0.910928 0.702874 -0.140178
C19   C     C_R   0.888292 0.090161 0.328539 -0.125991
C20   C     C_R   0.088561 0.893605 0.831450 -0.102790
C21   C     C_R   0.911005 0.171414 0.202650 -0.139232
C22   C     C_R   0.831090 0.910166 0.298021 -0.139518
C23   C     C_R   0.000199 0.099068 0.208746 -0.021580
C24   C     C_R   0.111962 0.090483 0.671696 -0.125754
C25   C     C_R   0.909182 0.112845 0.827681 -0.126175
C26   C     C_R   0.089373 0.831997 0.201728 -0.141295
C27   C     C_R   0.167117 0.090141 0.298096 -0.139523
C28   C     C_R   0.890240 0.910077 0.671036 -0.127207
C29   C     C_R   0.088871 0.188461 0.127239 0.096727
C30   C     C_R   0.911698 0.749195 0.839574 0.096774
C31   C     C_R   0.752225 0.091713 0.658837 0.091638
C32   C     C_R   0.190334 0.909465 0.371478 0.097338
C33   C     C_R   0.909973 0.810528 0.127434 0.096477
C34   C     C_R   0.002147 0.901754 0.791549 -0.029564
C35   C     C_R   0.091905 0.248546 0.841027 0.092132
C36   C     C_R   0.250364 0.909150 0.660179 0.092063
C37   C     C_R   0.809146 0.090439 0.371595 0.097281
C38   C     C_R   0.086627 0.817546 0.876715 0.107080
C39   C     C_R   0.912543 0.255704 0.162088 0.095716
C40   C     C_R   0.750758 0.908581 0.340569 0.092526
C41   C     C_R   0.191054 0.090622 0.628619 0.097310
C42   C     C_R   0.908410 0.192506 0.870522 0.096976
C43   C     C_R   0.091427 0.751711 0.159146 0.088710
C44   C     C_R   0.247848 0.091707 0.340629 0.092134
C45   C     C_R   0.902098 0.999103 0.708818 -0.020291
C46   C     C_R   0.810417 0.909539 0.628127 0.096868
C47   C     C_R   0.000725 0.263371 0.122952 0.062252
C48   C     C_R   0.999159 0.741322 0.879294 0.040994
C49   C     C_R   0.739325 0.000482 0.621934 0.060806
C50   C     C_R   0.260874 0.000637 0.377773 0.060469
C51   C     C_R   0.000671 0.739133 0.121841 0.056332
C52   C     C_R   0.000281 0.261919 0.877588 0.060241
C53   C     C_R   0.262017 0.999644 0.622539 0.060916
C54   C     C_R   0.738426 0.999452 0.377802 0.060862
C55   C     C_3   0.156265 0.127372 0.035607 -0.294853
C56   C     C_R   0.098151 0.999000 0.290783 -0.021949
C57   C     C_3   0.724721 0.720680 0.868660 -0.286339
C58   C     C_3   0.732301 0.276856 0.624626 -0.287794
C59   C     C_3   0.132939 0.832120 0.461421 -0.301159
C60   C     C_3   0.842896 0.868638 0.035272 -0.294412
C61   C     C_3   0.276798 0.265689 0.875902 -0.288717
C62   C     C_3   0.270477 0.723681 0.626784 -0.287460
C63   C     C_3   0.868196 0.167017 0.461443 -0.302037
C64   C     C_3   0.258966 0.895230 0.918424 -0.324326
C65   C     C_3   0.848706 0.434429 0.190713 -0.284140
C66   C     C_3   0.731439 0.723184 0.374345 -0.289209
C67   C     C_R   0.997943 0.900807 0.209001 -0.022909
C68   C     C_3   0.131551 0.166591 0.538613 -0.301792
C69   C     C_3   0.825427 0.136220 0.959327 -0.294296
C70   C     C_3   0.275504 0.735327 0.123424 -0.284707
C71   C     C_3   0.266805 0.276721 0.374878 -0.288375
C72   C     C_3   0.867855 0.832507 0.538159 -0.301383
C73   C     C_R   0.999033 0.099917 0.790626 -0.024006
C74   C     C_R   0.100141 0.001521 0.709559 -0.023195
Cu1   Cu    Cu3+1 0.889520 0.500000 0.000000 0.960043
Cu2   Cu    Cu3+1 0.110480 0.500000 0.000000 0.951006
Cu3   Cu    Cu3+1 0.500000 0.889520 0.500000 0.956176
Cu4   Cu    Cu3+1 0.500000 0.110480 0.500000 0.956451
H1    H     H_    0.156408 0.052261 0.172912 0.118989
H2    H     H_    0.838489 0.163518 0.228758 0.119447
H3    H     H_    0.840903 0.836914 0.272555 0.121671
H4    H     H_    0.056366 0.159579 0.674668 0.118405
H5    H     H_    0.839686 0.058036 0.824076 0.118583
H6    H     H_    0.162790 0.842334 0.227054 0.124501
H7    H     H_    0.156949 0.163391 0.272581 0.124143
H8    H     H_    0.945852 0.840995 0.674185 0.117729
H9    H     H_    0.251668 0.169096 0.105548 0.238324
H10   H     H_    0.229189 0.130986 0.007296 0.122732
H11   H     H_    0.085571 0.162512 0.011925 0.149235
H12   H     H_    0.841371 0.836830 0.770356 0.124731
H13   H     H_    0.139528 0.040080 0.046172 0.128235
H14   H     H_    0.803498 0.641603 0.802100 0.239705
H15   H     H_    0.661522 0.655770 0.872630 0.140149
H16   H     H_    0.690660 0.788957 0.842509 0.114878
H17   H     H_    0.744551 0.751362 0.912338 0.162779
H18   H     H_    0.650432 0.208726 0.693417 0.240086
H19   H     H_    0.670576 0.342973 0.619171 0.138394
H20   H     H_    0.761001 0.251291 0.581453 0.162558
H21   H     H_    0.802701 0.309661 0.649563 0.114437
H22   H     H_    0.179090 0.744262 0.389675 0.236629
H23   H     H_    0.843409 0.164129 0.726163 0.124429
H24   H     H_    0.141356 0.757956 0.488697 0.124714
H25   H     H_    0.044897 0.844119 0.450842 0.122074
H26   H     H_    0.163362 0.903621 0.486144 0.148775
H27   H     H_    0.746936 0.829265 0.105332 0.236428
H28   H     H_    0.771734 0.860966 0.005824 0.125675
H29   H     H_    0.916426 0.835595 0.013149 0.148890
H30   H     H_    0.855989 0.956756 0.045182 0.124221
H31   H     H_    0.210133 0.349591 0.807207 0.240934
H32   H     H_    0.343670 0.326356 0.881506 0.140246
H33   H     H_    0.308769 0.194893 0.850992 0.112234
H34   H     H_    0.055578 0.840495 0.325277 0.116985
H35   H     H_    0.250686 0.237148 0.919006 0.162445
H36   H     H_    0.353262 0.793134 0.694994 0.240991
H37   H     H_    0.332391 0.657768 0.621390 0.138585
H38   H     H_    0.240753 0.748503 0.583602 0.162185
H39   H     H_    0.200737 0.690917 0.652147 0.115507
H40   H     H_    0.820875 0.255464 0.389968 0.236658
H41   H     H_    0.860941 0.241267 0.488671 0.123923
H42   H     H_    0.955943 0.154352 0.450556 0.122624
H43   H     H_    0.837697 0.095756 0.486330 0.148673
H44   H     H_    0.135465 0.812943 0.962496 0.247417
H45   H     H_    0.840235 0.944762 0.173772 0.118843
H46   H     H_    0.315110 0.880187 0.955160 0.131071
H47   H     H_    0.229673 0.981388 0.920819 0.125817
H48   H     H_    0.305838 0.881463 0.878234 0.150195
H49   H     H_    0.750252 0.300545 0.173419 0.239421
H50   H     H_    0.779079 0.492148 0.185162 0.142812
H51   H     H_    0.923336 0.473519 0.172756 0.159556
H52   H     H_    0.860966 0.418944 0.237314 0.116812
H53   H     H_    0.648458 0.792145 0.305959 0.239232
H54   H     H_    0.669828 0.657150 0.379799 0.137851
H55   H     H_    0.760842 0.748273 0.417506 0.162813
H56   H     H_    0.164253 0.157547 0.773599 0.124037
H57   H     H_    0.801430 0.690458 0.349117 0.111459
H58   H     H_    0.178659 0.255526 0.609856 0.237344
H59   H     H_    0.138564 0.240645 0.511182 0.124020
H60   H     H_    0.043856 0.153967 0.549566 0.122841
H61   H     H_    0.162220 0.095166 0.513904 0.148446
H62   H     H_    0.742237 0.185049 0.886410 0.237195
H63   H     H_    0.751138 0.147996 0.986076 0.140344
H64   H     H_    0.897522 0.163406 0.984608 0.150829
H65   H     H_    0.833750 0.047765 0.948828 0.118276
H66   H     H_    0.211560 0.652291 0.192993 0.238260
H67   H     H_    0.161102 0.838355 0.729014 0.125532
H68   H     H_    0.342473 0.674808 0.117326 0.138511
H69   H     H_    0.308000 0.806193 0.148082 0.115173
H70   H     H_    0.247807 0.763936 0.080467 0.163909
H71   H     H_    0.349115 0.209041 0.306110 0.240627
H72   H     H_    0.328149 0.343018 0.380338 0.138212
H73   H     H_    0.238229 0.250960 0.418050 0.162577
H74   H     H_    0.196225 0.309356 0.349927 0.113557
H75   H     H_    0.822447 0.744423 0.609977 0.237129
H76   H     H_    0.860200 0.758137 0.511051 0.124137
H77   H     H_    0.955794 0.845251 0.548658 0.122323
H78   H     H_    0.943701 0.159260 0.325457 0.117706
H79   H     H_    0.836618 0.903646 0.513315 0.148937
H80   H     H_    0.154781 0.951906 0.828138 0.124567
N1    N     N_2   0.177185 0.189390 0.087379 -0.491352
N2    N     N_2   0.824793 0.332813 0.161249 -0.493798
N3    N     N_2   0.681670 0.815123 0.344881 -0.489593
N4    N     N_2   0.195382 0.181475 0.590345 -0.489598
N5    N     N_2   0.815494 0.199761 0.907181 -0.489812
N6    N     N_2   0.186101 0.684277 0.154185 -0.492473
N7    N     N_2   0.316582 0.185405 0.345041 -0.489812
N8    N     N_2   0.805236 0.818227 0.590246 -0.489808
N9    N     N_2   0.821411 0.675629 0.841542 -0.488556
N10   N     N_2   0.683052 0.185308 0.654472 -0.489648
N11   N     N_2   0.195805 0.818097 0.409394 -0.489674
N12   N     N_2   0.821497 0.808422 0.087570 -0.491630
N13   N     N_2   0.186034 0.316576 0.845960 -0.488071
N14   N     N_2   0.319901 0.815853 0.656036 -0.490123
N15   N     N_2   0.804392 0.181514 0.409651 -0.489581
N16   N     N_2   0.167255 0.820292 0.921662 -0.494305
O1    O     O_R   0.907020 0.615090 0.941240 -0.488152
O2    O     O_R   0.092980 0.615090 0.941240 -0.499392
O3    O     O_R   0.384910 0.092980 0.558760 -0.482889
O4    O     O_R   0.615090 0.907020 0.441240 -0.493548
O5    O     O_R   0.092980 0.615090 0.058760 -0.496833
O6    O     O_R   0.907020 0.384910 0.941240 -0.479224
O7    O     O_R   0.615090 0.907020 0.558760 -0.483019
O8    O     O_R   0.384910 0.092980 0.441240 -0.493210
O9    O     O_R   0.092980 0.384910 0.058760 -0.484843
O10   O     O_R   0.384910 0.907020 0.441240 -0.482764
O11   O     O_R   0.615090 0.092980 0.558760 -0.493190
O12   O     O_R   0.092980 0.384910 0.941240 -0.489223
O13   O     O_R   0.907020 0.615090 0.058760 -0.488675
O14   O     O_R   0.615090 0.092980 0.441240 -0.483086
O15   O     O_R   0.384910 0.907020 0.558760 -0.494132
O16   O     O_R   0.907020 0.384910 0.058760 -0.489600

loop_
_geom_bond_atom_site_label_1
_geom_bond_atom_site_label_2
_ccdc_geom_bond_type
C32   N11   S    
C19   H78   S    
C12   C74   S    
H75   N8    S    
Cu4   O3    S    
C35   N13   S    
C7    O12   A    
C68   H60   S    
C58   H20   S    
C14   C31   A    
Cu2   O5    S    
C43   C51   A    
C65   H52   S    
C60   H28   S    
C15   C32   A    
C29   N1    S    
H58   N4    S    
Cu3   Cu4   S    
H62   N5    S    
H36   N14   S    
C6    O11   A    
C28   C46   A    
C29   C47   A    
C59   H26   S    
C30   C48   A    
C1    C56   S    
C30   N9    S    
C39   N2    S    
C38   N16   S    
C71   H72   S    
H53   N3    S    
C69   H63   S    
H14   N9    S    
C3    C48   S    
Cu3   O10   S    
C20   C38   A    
C1    C2    S    
C55   H10   S    
C27   H7    S    
C10   C53   S    
C24   H4    S    
C62   H39   S    
C55   H13   S    
C36   C53   A    
C19   C37   A    
C27   C44   A    
C71   H73   S    
H40   N15   S    
C2    C22   A    
Cu3   O7    S    
H18   N10   S    
C61   N13   S    
C64   N16   S    
Cu3   O15   S    
Cu2   O9    S    
C58   N10   S    
C5    O10   A    
C38   C48   A    
C60   H30   S    
C20   C34   A    
C43   N6    S    
C18   H67   S    
C55   N1    S    
C2    C19   A    
C13   C34   A    
C18   C74   A    
C72   H77   S    
C20   H80   S    
C41   N4    S    
H66   N6    S    
C17   C73   A    
C24   C41   A    
C10   O3    A    
C68   H59   S    
C58   H19   S    
C31   C49   A    
C65   N2    S    
C61   H32   S    
C12   C73   S    
C63   H43   S    
C26   C43   A    
C63   N15   S    
C14   C45   A    
C66   H54   S    
C8    O13   A    
C28   C45   A    
C36   N14   S    
C10   O15   A    
C72   H76   S    
H27   N12   S    
C4    O9    A    
C6    O7    A    
Cu1   O1    S    
C22   H3    S    
C4    O16   A    
C13   C30   A    
Cu2   O2    S    
Cu1   O16   S    
C33   N12   S    
C16   C67   A    
C42   N5    S    
C14   H23   S    
C69   H64   S    
H44   N16   S    
C33   C51   A    
C66   N3    S    
Cu4   O8    S    
Cu1   Cu2   S    
C65   H50   S    
C62   H38   S    
C16   C33   A    
C66   H55   S    
C63   H41   S    
C71   H74   S    
C21   C39   A    
C22   C40   A    
H71   N7    S    
Cu4   O11   S    
Cu1   O6    S    
C8    C51   S    
C41   C53   A    
C60   H29   S    
C11   H1    S    
C70   H68   S    
C37   C54   A    
C3    O1    A    
C9    C54   S    
C1    C23   S    
C40   C54   A    
C57   H16   S    
C21   C23   A    
C28   H8    S    
C46   C49   A    
C5    C50   S    
C13   H12   S    
C70   H70   S    
C26   C67   A    
C12   C34   S    
C61   H33   S    
C5    O8    A    
C17   H56   S    
Cu2   O12   S    
C39   C47   A    
C44   C50   A    
C71   N7    S    
C26   H6    S    
C46   N8    S    
H22   N11   S    
C27   C56   A    
C59   H24   S    
C72   N8    S    
C15   H34   S    
C16   H45   S    
Cu1   O13   S    
C58   H21   S    
C69   N5    S    
C12   C45   S    
C70   N6    S    
C25   C42   A    
C7    C52   S    
C65   H51   S    
C57   N9    S    
C68   N4    S    
C69   H65   S    
C62   N14   S    
C64   H48   S    
Cu3   O4    S    
C60   N12   S    
C15   C56   A    
C59   H25   S    
C62   H37   S    
C55   H11   S    
C64   H46   S    
C61   H35   S    
C63   H42   S    
C8    O5    A    
C24   C74   A    
C21   H2    S    
C11   C23   A    
C1    C67   S    
H9    N1    S    
C7    O6    A    
C32   C50   A    
C25   C73   A    
C44   N7    S    
C6    C49   S    
C72   H79   S    
C37   N15   S    
C66   H57   S    
C3    O2    A    
C40   N3    S    
Cu4   O14   S    
C31   N10   S    
C11   C29   A    
C64   H47   S    
C57   H17   S    
C35   C52   A    
C25   H5    S    
C68   H61   S    
C57   H15   S    
C70   H69   S    
C17   C35   A    
C59   N11   S    
C9    O14   A    
C18   C36   A    
H49   N2    S    
C9    O4    A    
H31   N13   S    
C42   C52   A    
C4    C47   S    
