data_mof_unit_16378.cif
_audit_creation_date              2012-12-10T18:29:45-0500
_audit_creation_method            fapswitch 2.2
_symmetry_space_group_name_H-M    P1
_symmetry_Int_Tables_number       1
_space_group_crystal_system       triclinic
_cell_length_a                    11.550841
_cell_length_b                    15.005608
_cell_length_c                    15.306949
_cell_angle_alpha                 81.07749
_cell_angle_beta                  90.588909
_cell_angle_gamma                 105.321956
_cell_volume                      2526.53470451

loop_
_atom_site_label
_atom_site_type_symbol
_atom_type_description
_atom_site_fract_x
_atom_site_fract_y
_atom_site_fract_z
_atom_type_partial_charge
C1    C     C_R   0.483951 0.440425 0.663364 0.855117
C2    C     C_R   0.582185 0.693215 0.968603 -0.062549
C3    C     C_R   0.702516 0.849713 0.623003 -0.161156
C4    C     C_R   0.316296 0.153753 0.365036 -0.155881
C5    C     C_R   0.661173 0.756945 0.606724 0.031600
C6    C     C_R   0.330812 0.234481 0.404373 -0.008555
C7    C     C_R   0.513796 0.796197 0.510127 -0.077036
C8    C     C_R   0.511582 0.215394 0.469024 -0.080463
C9    C     C_R   0.556274 0.891888 0.519242 0.008044
C10   C     C_R   0.485722 0.123057 0.449872 -0.010656
C11   C     C_R   0.646616 0.916854 0.581068 0.088535
C12   C     C_R   0.506972 0.558689 0.337059 0.858081
C13   C     C_R   0.393447 0.096237 0.389805 0.100715
C14   C     C_R   0.510129 0.962956 0.470346 0.104159
C15   C     C_R   0.543227 0.055463 0.491715 0.099276
C16   C     C_R   0.718297 0.501643 0.500247 0.915992
C17   C     C_R   0.281718 0.498365 0.499758 0.876205
C18   C     C_R   0.626130 0.075368 0.558604 -0.228691
C19   C     C_R   0.432432 0.944460 0.400302 -0.238018
C20   C     C_R   0.677876 0.008091 0.601103 -0.129883
C21   C     C_R   0.373821 0.009053 0.361796 -0.125306
C22   C     C_1   0.839847 0.504228 0.500601 -0.163549
C23   C     C_R   0.557043 0.370044 0.934845 -0.030110
C24   C     C_1   0.160305 0.496065 0.498857 -0.169116
C25   C     C_1   0.941474 0.502367 0.500025 0.009079
C26   C     C_1   0.058777 0.498157 0.499091 0.005627
C27   C     C_R   0.483112 0.403106 0.759246 -0.113637
C28   C     C_R   0.500858 0.595817 0.241599 -0.146355
C29   C     C_R   0.530944 0.295959 0.883443 -0.155288
C30   C     C_R   0.518037 0.722447 0.116525 -0.037898
C31   C     C_R   0.501020 0.313803 0.793168 -0.002225
C32   C     C_R   0.493026 0.687820 0.208577 0.045584
C33   C     C_R   0.473775 0.463815 0.818367 0.071342
C34   C     C_R   0.550490 0.664242 0.060523 -0.056315
C35   C     C_R   0.488165 0.533604 0.181036 -0.001692
C36   C     C_R   0.532452 0.456713 0.899489 0.083323
C37   C     C_R   0.539190 0.568934 0.095961 0.073877
C38   C     C_2   0.656298 0.285782 0.061378 0.946901
C39   C     C_2   0.624947 0.792174 0.926108 1.012542
C40   C     C_3   0.385462 0.443170 0.196706 -0.338445
C41   C     C_3   0.297366 0.434970 0.119936 -0.422060
C42   C     C_3   0.178474 0.362144 0.146123 -0.708535
C43   C     C_3   0.381765 0.521645 0.799947 -0.375305
C44   C     C_3   0.287525 0.501490 0.875714 -0.398817
C45   C     C_R   0.555862 0.530001 0.950715 0.038240
C46   C     C_3   0.184868 0.545481 0.848902 -0.789925
C47   C     C_3   0.427681 0.736174 0.264840 -0.402468
C48   C     C_3   0.295054 0.680140 0.279824 -0.360042
C49   C     C_3   0.222976 0.727527 0.331538 -0.825632
C50   C     C_3   0.474206 0.234421 0.737871 -0.421205
C51   C     C_3   0.338186 0.197817 0.727161 -0.299697
C52   C     C_3   0.308570 0.115658 0.675769 -0.767965
C53   C     C_2   0.518944 0.197743 0.926404 0.951973
C54   C     C_2   0.494974 0.812992 0.078594 0.911942
C55   C     C_2   0.225925 0.270620 0.413752 1.020304
C56   C     C_R   0.561946 0.507466 0.041978 0.051450
C57   C     C_2   0.731929 0.690867 0.640374 1.013289
C58   C     C_2   0.809277 0.876850 0.678556 0.916780
C59   C     C_2   0.215451 0.125976 0.305142 0.889780
C60   C     C_R   0.590084 0.424257 0.077213 -0.257605
C61   C     C_R   0.576240 0.624914 0.914416 -0.225144
C62   C     C_R   0.598394 0.359348 0.023158 -0.035964
H1    H     H_    0.652034 0.142223 0.581024 0.134786
H2    H     H_    0.617081 0.890291 0.821592 0.352220
H3    H     H_    0.194405 0.293464 0.172840 0.296073
H4    H     H_    0.128627 0.385083 0.196159 0.284413
H5    H     H_    0.122439 0.354042 0.086995 0.242189
H6    H     H_    0.337161 0.413702 0.063583 0.237676
H7    H     H_    0.278323 0.503651 0.097470 0.230030
H8    H     H_    0.420701 0.380536 0.209648 0.225446
H9    H     H_    0.331643 0.443393 0.256150 0.242716
H10   H     H_    0.220021 0.622449 0.829756 0.278913
H11   H     H_    0.137093 0.515338 0.792493 0.255531
H12   H     H_    0.413860 0.879667 0.374581 0.144951
H13   H     H_    0.119879 0.531197 0.905599 0.258839
H14   H     H_    0.250163 0.424646 0.894891 0.235743
H15   H     H_    0.328918 0.530920 0.934135 0.235499
H16   H     H_    0.425347 0.597560 0.784201 0.228401
H17   H     H_    0.330647 0.503288 0.740425 0.200127
H18   H     H_    0.255904 0.729509 0.399688 0.255148
H19   H     H_    0.229160 0.799721 0.297595 0.265341
H20   H     H_    0.127122 0.686979 0.336166 0.264633
H21   H     H_    0.253514 0.672440 0.214579 0.242696
H22   H     H_    0.288267 0.608926 0.316503 0.213363
H23   H     H_    0.613308 0.412934 0.146123 0.181980
H24   H     H_    0.472099 0.745438 0.328056 0.223729
H25   H     H_    0.429786 0.808172 0.233632 0.224354
H26   H     H_    0.348327 0.138011 0.607818 0.262501
H27   H     H_    0.343535 0.057538 0.709626 0.260943
H28   H     H_    0.209664 0.089756 0.671303 0.265274
H29   H     H_    0.293082 0.174122 0.793724 0.236039
H30   H     H_    0.300837 0.254158 0.692381 0.246562
H31   H     H_    0.524410 0.255624 0.673536 0.218577
H32   H     H_    0.507170 0.174432 0.768252 0.208404
H33   H     H_    0.671054 0.189938 0.868053 0.318437
H34   H     H_    0.595918 0.646875 0.844450 0.221742
H35   H     H_    0.538811 0.952937 0.074382 0.386019
H36   H     H_    0.092862 0.277304 0.494770 0.346060
H37   H     H_    0.887999 0.655692 0.632576 0.340761
H38   H     H_    0.973480 0.963609 0.689105 0.351620
H39   H     H_    0.164980 0.098809 0.183392 0.360721
H40   H     H_    0.740066 0.028085 0.652386 0.172225
H41   H     H_    0.308769 0.987699 0.312633 0.178783
H42   H     H_    0.589291 0.245268 0.504575 0.144102
H43   H     H_    0.439759 0.771105 0.469550 0.128630
H44   H     H_    0.669466 0.189534 0.166056 0.365507
N1    N     N_R   0.566020 0.731700 0.552730 -0.140924
N2    N     N_R   0.433980 0.268300 0.447270 -0.133789
O1    O     O_R   0.466720 0.383110 0.605620 -0.616757
O2    O     O_R   0.622542 0.237153 0.146721 -0.770121
O3    O     O_2   0.700760 0.847571 0.961442 -0.566874
O4    O     O_R   0.581252 0.821266 0.844061 -0.786157
O5    O     O_2   0.434696 0.158460 0.978160 -0.543060
O6    O     O_R   0.602904 0.149783 0.909572 -0.737802
O7    O     O_2   0.416099 0.814790 0.024962 -0.603129
O8    O     O_R   0.563070 0.895867 0.104687 -0.749223
O9    O     O_2   0.187349 0.311628 0.349701 -0.675474
O10   O     O_R   0.165995 0.251823 0.496182 -0.778278
O11   O     O_2   0.696541 0.631763 0.705433 -0.641606
O12   O     O_R   0.533280 0.616890 0.394380 -0.605401
O13   O     O_R   0.845621 0.702704 0.602335 -0.786451
O14   O     O_2   0.813390 0.831811 0.751748 -0.598095
O15   O     O_R   0.906190 0.952458 0.645737 -0.773188
O16   O     O_2   0.111459 0.109567 0.332044 -0.577697
O17   O     O_R   0.240441 0.118155 0.217916 -0.772336
O18   O     O_R   0.509090 0.531900 0.639510 -0.584225
O19   O     O_R   0.490910 0.468100 0.360490 -0.613502
O20   O     O_R   0.644370 0.425610 0.483050 -0.618839
O21   O     O_R   0.355630 0.574390 0.516950 -0.619975
O22   O     O_R   0.686740 0.574390 0.516930 -0.589706
O23   O     O_R   0.313260 0.425610 0.483070 -0.597872
O24   O     O_2   0.737216 0.270726 0.019977 -0.611316
Zn1   Zn    Zn3+2 0.471710 0.400660 0.477370 0.955586
Zn2   Zn    Zn3+2 0.528290 0.599340 0.522630 0.971940

loop_
_geom_bond_atom_site_label_1
_geom_bond_atom_site_label_2
_ccdc_geom_bond_type
C15   C18   A    
C40   H9    S    
C17   O23   A    
C34   C37   A    
C41   C42   S    
C52   H28   S    
C6    C55   S    
C43   C44   S    
C61   H34   S    
C12   O19   A    
C27   C33   A    
C43   H16   S    
C30   C54   S    
C58   O15   S    
C40   H8    S    
C12   C28   S    
C23   C29   A    
C44   H15   S    
C19   C21   A    
C24   C26   T    
N1    Zn2   S    
C10   C15   A    
C5    N1    A    
C18   H1    S    
H2    O4    S    
C20   H40   S    
H33   O6    S    
C43   H17   S    
C33   C36   A    
C60   C62   A    
C49   H19   S    
C4    C13   A    
C44   H14   S    
C51   H29   S    
C12   O12   A    
C37   C56   A    
C2    C39   S    
C23   C62   A    
C28   C35   A    
C53   O5    D    
C22   C25   T    
C54   O8    S    
C42   H3    S    
H39   O17   S    
C7    H43   S    
C38   O2    S    
C16   O22   A    
C46   H10   S    
C2    C61   A    
H37   O13   S    
C1    O1    A    
C2    C34   A    
C39   O3    D    
C52   H27   S    
O22   Zn2   S    
C8    N2    A    
C46   H13   S    
C44   C46   S    
H36   O10   S    
C41   H6    S    
C11   C20   A    
C58   O14   D    
C17   C24   S    
C30   C34   A    
C27   C31   A    
C51   C52   S    
C33   C43   S    
C47   H24   S    
C28   C32   A    
C1    O18   A    
C45   C56   A    
C4    C6    A    
C50   H32   S    
C55   O9    D    
C25   C26   S    
O1    Zn1   S    
C48   H22   S    
C38   O24   D    
C49   H20   S    
C9    C14   A    
C51   H30   S    
C8    H42   S    
C47   C48   S    
C52   H26   S    
C54   O7    D    
C50   C51   S    
C13   C21   A    
C36   C45   A    
H35   O8    S    
C9    C11   A    
O12   Zn2   S    
C40   C41   S    
C42   H5    S    
C32   C47   S    
C7    N1    A    
C1    C27   S    
C31   C50   S    
C3    C5    A    
C53   O6    S    
C41   H7    S    
H44   O2    S    
C59   O16   D    
C7    C9    A    
C39   O4    S    
C16   C22   S    
C35   C37   A    
C14   C19   A    
C19   H12   S    
O19   Zn1   S    
O23   Zn1   S    
C10   C13   A    
C60   H23   S    
C49   H18   S    
C50   H31   S    
C5    C57   S    
C59   O17   S    
C48   H21   S    
C57   O11   D    
H38   O15   S    
C35   C40   S    
N2    Zn1   S    
C29   C31   A    
O20   Zn1   S    
C30   C32   A    
C29   C53   S    
C48   C49   S    
C46   H11   S    
C4    C59   S    
C45   C61   A    
C18   C20   A    
C16   O20   A    
C3    C11   A    
C57   O13   S    
O21   Zn2   S    
C21   H41   S    
C3    C58   S    
C56   C60   A    
O18   Zn2   S    
C8    C10   A    
C23   C36   A    
C42   H4    S    
C6    N2    A    
C14   C15   A    
C17   O21   A    
C47   H25   S    
C38   C62   S    
C55   O10   S    
