data_mof_unit_68150.cif
_audit_creation_date              2012-12-11T16:11:53-0500
_audit_creation_method            fapswitch 2.2
_symmetry_space_group_name_H-M    P1
_symmetry_Int_Tables_number       1
_space_group_crystal_system       triclinic
_cell_length_a                    6.95868
_cell_length_b                    14.499068
_cell_length_c                    15.661605
_cell_angle_alpha                 90.207249
_cell_angle_beta                  91.598868
_cell_angle_gamma                 89.412627
_cell_volume                      1579.46085604

loop_
_atom_site_label
_atom_site_type_symbol
_atom_type_description
_atom_site_fract_x
_atom_site_fract_y
_atom_site_fract_z
_atom_type_partial_charge
O1    O     O_R   0.638960 0.835150 0.161940 -0.541493
O2    O     O_R   0.361040 0.164850 0.838060 -0.541493
O3    O     O_R   0.309170 0.846340 0.337470 -0.524332
O4    O     O_R   0.690830 0.153660 0.662530 -0.524332
O5    O     O_R   0.138810 0.664830 0.338070 -0.524202
O6    O     O_R   0.861190 0.335170 0.661930 -0.524202
C1    C     C_R   0.479270 0.867710 0.367109 0.697408
C2    C     C_R   0.520730 0.132290 0.632891 0.697408
O7    O     O_R   0.309250 0.846350 0.162570 -0.534477
O8    O     O_R   0.690750 0.153650 0.837430 -0.534477
O9    O     O_R   0.138880 0.664840 0.161920 -0.538586
O10   O     O_R   0.861120 0.335160 0.838080 -0.538586
C3    C     C_R   0.476671 0.868800 0.133572 0.759038
C4    C     C_R   0.523329 0.131200 0.866428 0.759037
O11   O     O_R   0.638880 0.835150 0.338090 -0.558104
O12   O     O_R   0.361120 0.164850 0.661910 -0.558105
O13   O     O_3   0.472380 0.690440 0.250000 -0.372144
O14   O     O_3   0.527620 0.309560 0.750000 -0.372144
V1    V     V_3+5 0.197550 0.761040 0.250010 1.506880
V2    V     V_3+5 0.802450 0.238960 0.749990 1.506880
O15   O     O_R   0.809160 0.653640 0.162540 -0.536247
O16   O     O_R   0.190840 0.346360 0.837460 -0.536247
C5    C     C_R   0.977207 0.631682 0.133351 0.763643
C6    C     C_R   0.022793 0.368318 0.866649 0.763644
O17   O     O_R   0.809090 0.653640 0.337440 -0.543084
O18   O     O_R   0.190910 0.346360 0.662560 -0.543084
C7    C     C_R   0.981242 0.637236 0.370476 0.796553
C8    C     C_R   0.018758 0.362764 0.629524 0.796552
V3    V     V_3+5 0.697540 0.738950 0.250000 1.456503
V4    V     V_3+5 0.302460 0.261050 0.750000 1.456503
O19   O     O_3   0.972580 0.809550 0.250010 -0.379222
O20   O     O_3   0.027420 0.190450 0.749990 -0.379222
C9    C     C_3   0.121320 0.564541 0.529797 0.316110
C10   C     C_3   0.878681 0.435459 0.470203 0.316110
C11   C     C_3   0.940548 0.531047 0.575551 0.286618
C12   C     C_3   0.059452 0.468953 0.424449 0.286619
C13   C     C_3   0.998539 0.429845 0.556548 -0.391634
C14   C     C_3   0.001461 0.570154 0.443452 -0.391634
C15   C     C_3   0.177014 0.463768 0.509139 0.335645
C16   C     C_3   0.822986 0.536232 0.490861 0.335645
C17   C     C_3   0.826728 0.459992 0.986756 -0.254839
C18   C     C_3   0.173272 0.540008 0.013244 -0.254839
C19   C     C_3   0.945919 0.457232 0.072240 -0.268534
C20   C     C_3   0.054080 0.542767 0.927760 -0.268533
C21   C     C_3   0.987883 0.561401 0.062858 -0.124636
C22   C     C_3   0.012117 0.438599 0.937142 -0.124636
C23   C     C_3   0.871358 0.563586 0.978376 0.547910
C24   C     C_3   0.128642 0.436414 0.021624 0.547909
C25   C     C_3   0.668548 0.998812 0.458752 -0.249339
C26   C     C_3   0.331452 0.001188 0.541248 -0.249339
C27   C     C_3   0.532412 0.084041 0.465435 -0.317258
C28   C     C_3   0.467588 0.915959 0.534565 -0.317257
C29   C     C_3   0.507470 0.063150 0.561473 -0.114495
C30   C     C_3   0.492530 0.936850 0.438527 -0.114496
C31   C     C_3   0.641029 0.979176 0.554289 0.571712
C32   C     C_3   0.358971 0.020824 0.445711 0.571712
C33   C     C_3   0.678842 0.971989 0.024991 -0.236034
C34   C     C_3   0.321157 0.028010 0.975008 -0.236033
C35   C     C_3   0.590348 0.960163 0.933322 -0.270099
C36   C     C_3   0.409652 0.039837 0.066678 -0.270099
C37   C     C_3   0.512956 0.060680 0.936828 -0.134096
C38   C     C_3   0.487044 0.939320 0.063172 -0.134096
C39   C     C_3   0.599121 0.071665 0.027422 0.548119
C40   C     C_3   0.400879 0.928335 0.972578 0.548120
O21   O     O_3   0.866766 0.553523 0.656553 -0.549442
C41   C     C_3   0.892965 0.647267 0.677646 -0.281245
H1    H     H_    0.755638 0.675974 0.700809 0.129965
H2    H     H_    0.939179 0.690617 0.624001 0.152211
H3    H     H_    0.999839 0.653212 0.731111 0.146347
O22   O     O_3   0.133234 0.446477 0.343447 -0.549442
C42   C     C_3   0.107035 0.352732 0.322354 -0.281246
H4    H     H_    0.060821 0.309383 0.375998 0.152211
H5    H     H_    0.244363 0.324026 0.299190 0.129965
H6    H     H_    0.000162 0.346788 0.268889 0.146347
H7    H     H_    0.663121 0.927644 0.878496 0.140057
H8    H     H_    0.336879 0.072356 0.121504 0.140056
H9    H     H_    0.825831 0.949857 0.046050 0.151238
H10   H     H_    0.174169 0.050143 0.953950 0.151238
O23   O     O_3   0.704205 0.150841 0.051394 -0.548571
C43   C     C_3   0.766567 0.143290 0.137448 -0.257080
H11   H     H_    0.864636 0.082975 0.147263 0.140438
H12   H     H_    0.642899 0.139483 0.180728 0.125306
H13   H     H_    0.848629 0.206069 0.155138 0.160789
O24   O     O_3   0.295795 0.849159 0.948606 -0.548571
C44   C     C_3   0.233437 0.856709 0.862551 -0.257081
H14   H     H_    0.357107 0.860513 0.819272 0.125306
H15   H     H_    0.135373 0.917026 0.852734 0.140437
H16   H     H_    0.151370 0.793931 0.844862 0.160790
O25   O     O_3   0.246805 0.631167 0.564954 -0.558795
C45   C     C_3   0.334982 0.596743 0.641428 -0.181330
H17   H     H_    0.462480 0.553582 0.627054 0.235737
H18   H     H_    0.239426 0.554875 0.681185 0.136166
H19   H     H_    0.383612 0.655967 0.681227 0.101480
O26   O     O_3   0.753195 0.368833 0.435046 -0.558795
C46   C     C_3   0.665018 0.403256 0.358572 -0.181328
H20   H     H_    0.760575 0.445124 0.318815 0.136166
H21   H     H_    0.537520 0.446418 0.372946 0.235737
H22   H     H_    0.616388 0.344032 0.318773 0.101479
O27   O     O_3   0.365149 0.427026 0.519338 -0.517100
C47   C     C_3   0.368996 0.331085 0.501757 -0.010894
H23   H     H_    0.235306 0.293633 0.515147 0.031305
H24   H     H_    0.487426 0.299224 0.540503 0.152541
H25   H     H_    0.398149 0.317856 0.434272 0.119940
O28   O     O_3   0.634851 0.572973 0.480662 -0.517100
C48   C     C_3   0.631004 0.668915 0.498243 -0.010893
H26   H     H_    0.512574 0.700776 0.459497 0.152541
H27   H     H_    0.764694 0.706367 0.484853 0.031305
H28   H     H_    0.601851 0.682143 0.565728 0.119940
H29   H     H_    0.903368 0.422484 0.131715 0.125236
H30   H     H_    0.096632 0.577516 0.868285 0.125236
H31   H     H_    0.685280 0.427007 0.974720 0.160293
H32   H     H_    0.314720 0.572992 0.025280 0.160294
O29   O     O_3   0.737846 0.634988 0.959223 -0.549006
C49   C     C_3   0.627363 0.611011 0.885857 -0.261559
H33   H     H_    0.524206 0.555694 0.900502 0.139973
H34   H     H_    0.718727 0.588963 0.832246 0.154243
H35   H     H_    0.542710 0.672374 0.864486 0.171907
O30   O     O_3   0.262154 0.365011 0.040778 -0.549006
C50   C     C_3   0.372637 0.388989 0.114143 -0.261555
H36   H     H_    0.281273 0.411039 0.167754 0.154242
H37   H     H_    0.475797 0.444305 0.099498 0.139973
H38   H     H_    0.457288 0.327625 0.135515 0.171907
H39   H     H_    0.558929 0.152882 0.437639 0.128234
H40   H     H_    0.441071 0.847118 0.562361 0.128234
H41   H     H_    0.807480 0.995450 0.425786 0.168254
H42   H     H_    0.192520 0.004550 0.574214 0.168254
O31   O     O_3   0.792589 0.965162 0.614594 -0.552516
C51   C     C_3   0.871986 0.876863 0.602810 -0.311132
H43   H     H_    0.922770 0.866818 0.536599 0.147508
H44   H     H_    0.765537 0.823842 0.618993 0.120785
H45   H     H_    0.997994 0.868404 0.647172 0.165430
O32   O     O_3   0.207410 0.034838 0.385406 -0.552516
C52   C     C_3   0.128015 0.123137 0.397189 -0.311132
H46   H     H_    0.234464 0.176158 0.381006 0.120785
H47   H     H_    0.077232 0.133183 0.463401 0.147507
H48   H     H_    0.002006 0.131596 0.352828 0.165431

loop_
_geom_bond_atom_site_label_1
_geom_bond_atom_site_label_2
_ccdc_geom_bond_type
C41   H2    S    
C5    C21   S    
C10   C13   S    
C27   H39   S    
C46   H20   S    
O4    C2    A    
V1    O19   S    
C51   H43   S    
C49   H33   S    
C46   H22   S    
C33   C38   S    
C39   O23   S    
C44   H14   S    
C48   H27   S    
O9    V1    S    
C35   C40   S    
C9    C15   S    
C36   C39   S    
C10   C16   S    
C11   C13   S    
O3    C1    A    
C50   H38   S    
C41   H3    S    
C11   O21   S    
C7    C14   S    
O12   V4    S    
C25   C30   S    
O13   V3    S    
C36   C38   S    
C27   C32   S    
C21   C23   S    
C37   C39   S    
O7    C3    A    
O30   C50   S    
C40   O24   S    
C38   C40   S    
C9    C11   S    
O5    C7    A    
C15   O27   S    
O7    V1    S    
O6    C8    A    
C3    C38   S    
O8    V2    S    
O32   C52   S    
C25   C27   S    
C52   H48   S    
C26   C28   S    
C17   C22   S    
O3    V1    S    
O22   C42   S    
C26   H42   S    
V4    O20   S    
C20   C23   S    
C19   C24   S    
C10   C12   S    
C28   C31   S    
C28   C30   S    
C34   C37   S    
C50   H37   S    
C41   H1    S    
C2    O12   A    
C34   C40   S    
C17   C19   S    
C18   C20   S    
C43   H13   S    
C47   H24   S    
O28   C48   S    
C12   O22   S    
O11   V3    S    
C22   C24   S    
C29   C31   S    
O17   V3    S    
C48   H28   S    
C30   C32   S    
C35   C37   S    
C26   C29   S    
C44   H15   S    
C33   H9    S    
O24   C44   S    
C43   H12   S    
O8    C4    A    
C42   H5    S    
C18   H32   S    
C1    O11   A    
C20   C22   S    
C25   C31   S    
C4    C37   S    
O15   V3    S    
C36   H8    S    
C47   H25   S    
C26   C32   S    
C49   H34   S    
C27   C29   S    
C18   C21   S    
C9    O25   S    
C16   O28   S    
C45   H18   S    
O27   C47   S    
O10   V2    S    
O1    V3    S    
C17   C23   S    
C18   C24   S    
C19   C21   S    
C32   O32   S    
O14   V4    S    
C31   O31   S    
O18   V4    S    
O15   C5    A    
C52   H46   S    
O16   C6    A    
O1    C3    A    
O31   C51   S    
C51   H45   S    
C35   H7    S    
O6    V2    S    
C45   H19   S    
O29   C49   S    
V2    O20   S    
C44   H16   S    
C23   O29   S    
O16   V4    S    
C12   C15   S    
C10   O26   S    
C33   C39   S    
C43   H11   S    
C51   H44   S    
C2    C29   S    
C42   H6    S    
C24   O30   S    
C50   H36   S    
C46   H21   S    
O5    V1    S    
O17   C7    A    
C25   H41   S    
C48   H26   S    
O10   C6    A    
O18   C8    A    
C9    C14   S    
O2    V4    S    
C6    C22   S    
C12   C14   S    
C11   C16   S    
C42   H4    S    
C13   C15   S    
C14   C16   S    
C28   H40   S    
C45   H17   S    
C8    C13   S    
O9    C5    A    
C47   H23   S    
O13   V1    S    
O14   V2    S    
O26   C46   S    
O2    C4    A    
C49   H35   S    
C33   C35   S    
C34   H10   S    
O23   C43   S    
O4    V2    S    
V3    O19   S    
O21   C41   S    
C17   H31   S    
C52   H47   S    
C19   H29   S    
C1    C30   S    
O25   C45   S    
C34   C36   S    
C20   H30   S    
