data_mof_unit_30957.cif
_audit_creation_date              2013-03-05T15:52:27-0500
_audit_creation_method            fapswitch 2.2
_symmetry_space_group_name_H-M    P1
_symmetry_Int_Tables_number       1
_space_group_crystal_system       triclinic
_cell_length_a                    27.65516
_cell_length_b                    10.840927
_cell_length_c                    9.64506
_cell_angle_alpha                 88.296618
_cell_angle_beta                  89.521097
_cell_angle_gamma                 94.674971
_cell_volume                      2880.59945249

loop_
_atom_site_label
_atom_site_type_symbol
_atom_site_description
_atom_site_fract_x
_atom_site_fract_y
_atom_site_fract_z
_atom_type_partial_charge
O1    O     O_R   0.500000 0.319640 0.618810 -0.604979
O2    O     O_R   0.500000 0.319660 0.381240 -0.592670
C1    C     C_R   0.498472 0.261126 0.503202 0.790256
O3    O     O_R   0.430260 0.500010 0.618770 -0.601182
O4    O     O_R   0.430270 0.500030 0.381200 -0.517328
C2    C     C_R   0.407514 0.501028 0.500365 0.788183
Cu1   Cu    Cu3+1 0.500000 0.499990 0.640660 0.950202
Cu2   Cu    Cu3+1 0.500000 0.500010 0.359340 0.997519
O5    O     O_R   0.500000 0.680340 0.618760 -0.592267
O6    O     O_R   0.500000 0.680360 0.381190 -0.518927
O7    O     O_R   0.569730 0.499970 0.618800 -0.546525
O8    O     O_R   0.569740 0.499990 0.381230 -0.597522
C3    C     C_R   0.493100 0.734601 0.498790 0.850560
C4    C     C_R   0.592331 0.496426 0.500372 0.836518
C5    C     C_R   0.173834 0.360479 0.514887 0.538774
O9    O     O_2   0.195956 0.267896 0.456969 -0.537318
N1    N     N_R   0.200939 0.462684 0.559374 -0.462937
C6    C     C_R   0.179611 0.557838 0.618969 0.538408
C7    C     C_R   0.274677 0.557186 0.443016 -0.187131
C8    C     C_R   0.325141 0.567740 0.422182 -0.019454
C9    C     C_R   0.331224 0.406737 0.602303 -0.242347
C10   C     C_R   0.281040 0.396202 0.619331 -0.096484
C11   C     C_R   0.252642 0.471746 0.540329 0.352810
C12   C     C_R   0.100196 0.450385 0.585697 -0.045789
C13   C     C_R   0.123011 0.352303 0.527472 -0.021210
C14   C     C_R   0.094687 0.249722 0.480347 -0.147862
C15   C     C_R   0.128921 0.553586 0.632950 -0.021777
C16   C     C_R   0.354046 0.491729 0.504572 -0.046654
H1    H     H_    0.352474 0.347943 0.666186 0.157470
H2    H     H_    0.264211 0.330245 0.695223 0.148590
H3    H     H_    0.111275 0.173872 0.433173 0.186717
C17   C     C_R   0.644468 0.478673 0.506413 -0.041476
C18   C     C_R   0.968942 0.334778 0.563162 0.054641
C19   C     C_R   0.974816 0.548370 0.644336 0.024224
C20   C     C_R   0.946303 0.441197 0.602842 0.068582
C21   C     C_R   0.939443 0.225217 0.540242 -0.284242
C22   C     C_R   0.888921 0.221953 0.542752 0.001978
C23   C     C_R   0.866165 0.333059 0.560454 -0.030531
C24   C     C_R   0.894821 0.441011 0.598537 -0.111333
C25   C     C_R   0.872040 0.549310 0.630219 -0.018742
C26   C     C_R   0.821225 0.548346 0.617305 0.554350
N2    N     N_R   0.794976 0.447623 0.566776 -0.483144
C27   C     C_R   0.816209 0.342203 0.536225 0.562828
C28   C     C_R   0.709667 0.378237 0.619756 -0.086420
C29   C     C_R   0.660263 0.390610 0.602090 -0.210517
C30   C     C_R   0.678991 0.553487 0.428071 -0.210254
C31   C     C_R   0.728379 0.540802 0.445331 -0.090114
C32   C     C_R   0.744000 0.454255 0.542441 0.331678
O10   O     O_2   0.789363 0.249547 0.475988 -0.492189
C33   C     C_R   0.020327 0.339882 0.550653 0.048891
C34   C     C_R   0.048742 0.445928 0.595240 0.066029
C35   C     C_R   0.026248 0.548129 0.647960 0.052930
C36   C     C_R   0.044392 0.243582 0.491156 -0.208405
H4    H     H_    0.634264 0.332465 0.664624 0.150951
H5    H     H_    0.721309 0.311585 0.695688 0.157033
H6    H     H_    0.955020 0.138090 0.527743 0.122332
H7    H     H_    0.025253 0.163734 0.447028 0.141828
O11   O     O_2   0.207405 0.656317 0.664355 -0.539523
C37   C     C_R   0.106551 0.650174 0.692878 -0.146668
H8    H     H_    0.252011 0.615109 0.382562 0.137791
H9    H     H_    0.127848 0.729220 0.733219 0.187789
C38   C     C_R   0.950986 0.653937 0.677420 -0.265584
C39   C     C_R   0.900722 0.655522 0.671013 0.173679
O12   O     O_2   0.797906 0.647334 0.653493 -0.481305
C40   C     C_R   0.056295 0.647515 0.700916 -0.207125
H10   H     H_    0.970453 0.739875 0.704108 0.135823
H11   H     H_    0.668594 0.625895 0.358950 0.171504
H12   H     H_    0.754666 0.600666 0.385840 0.150498
H13   H     H_    0.042236 0.724555 0.751320 0.140803
H14   H     H_    0.494922 0.119224 0.285963 0.157123
C41   C     C_R   0.478395 0.100072 0.769093 -0.187393
H15   H     H_    0.494258 0.189086 0.795730 0.167814
C42   C     C_R   0.457248 0.029875 0.880274 -0.185653
H16   H     H_    0.454022 0.071310 0.980259 0.120111
C43   C     C_R   0.440391 0.907489 0.862918 -0.102528
H17   H     H_    0.422997 0.853666 0.948488 0.154711
C44   C     C_R   0.447377 0.853122 0.736424 -0.127464
H18   H     H_    0.432890 0.758145 0.726289 0.154891
C45   C     C_R   0.470438 0.921894 0.623729 0.058239
C46   C     C_R   0.481064 0.051275 0.634555 0.120831
C47   C     C_R   0.492579 0.124166 0.510102 -0.140675
C48   C     C_R   0.491110 0.065411 0.382445 -0.239292
C49   C     C_R   0.483962 0.937436 0.375482 0.171375
C50   C     C_R   0.481380 0.865165 0.498520 -0.148754
H19   H     H_    0.454827 0.335274 0.134767 0.123701
C51   C     C_R   0.547014 0.704884 0.133527 0.088165
C52   C     C_R   0.551608 0.817741 0.060178 -0.273532
H20   H     H_    0.564937 0.901310 0.111680 0.199776
C53   C     C_R   0.556217 0.817241 0.917907 0.063848
C54   C     C_R   0.550796 0.703496 0.852198 0.212705
C55   C     C_R   0.524859 0.598409 0.921470 0.138571
C56   C     C_R   0.523952 0.598930 0.070494 0.043041
N3    N     N_R   0.500460 0.501210 0.147910 -0.179787
C57   C     C_R   0.475335 0.409511 0.077350 -0.006684
H21   H     H_    0.452422 0.339898 0.878730 0.123010
C58   C     C_R   0.474609 0.410909 0.930034 -0.075529
N4    N     N_R   0.500480 0.501290 0.852040 -0.178718
N5    N     N_3   0.879478 0.767705 0.703428 -0.486268
H22   H     H_    0.889070 0.790639 0.804661 0.224530
H23   H     H_    0.894429 0.838475 0.636267 0.209820
N6    N     N_3   0.475494 0.881414 0.244331 -0.541582
H24   H     H_    0.439210 0.846397 0.243744 0.249662
H25   H     H_    0.479246 0.948159 0.163939 0.194329
C59   C     C_2   0.588752 0.692930 0.222720 0.431147
H26   H     H_    0.612202 0.620245 0.201607 0.035817
O13   O     O_2   0.599030 0.767382 0.312749 -0.566140
N7    N     N_3   0.577792 0.925450 0.844957 -0.583171
H27   H     H_    0.558689 0.000738 0.871117 0.237231
H28   H     H_    0.613161 0.943021 0.881094 0.229560
N8    N     N_3   0.584163 0.689176 0.741409 -0.497978
H29   H     H_    0.583148 0.761833 0.667937 0.262239
H30   H     H_    0.619197 0.693570 0.782051 0.207311
C60   C     C_2   0.862314 0.097877 0.535563 0.463170
H31   H     H_    0.875944 0.028940 0.469357 0.036813
O14   O     O_2   0.827221 0.068532 0.610592 -0.477848
C61   C     C_2   0.344642 0.663294 0.318578 0.312183
H32   H     H_    0.324716 0.743983 0.297833 0.078172
O15   O     O_2   0.380879 0.650890 0.249424 -0.535130

loop_
_geom_bond_atom_site_label_1
_geom_bond_atom_site_label_2
_geom_bond_distance
_ccdc_geom_bond_type
C52   H20   1.085719 S    
C26   N2    1.365701 A    
N3    C57   1.367373 A    
N7    H28   1.045849 S    
C42   H16   1.081933 S    
C20   C24   1.424528 A    
H21   C58   1.079218 S    
C12   C15   1.407831 A    
C51   C59   1.457231 S    
C59   O13   1.222559 D    
C47   C48   1.402363 A    
Cu1   Cu2   2.713342 S    
C44   H18   1.081495 S    
Cu1   O7    1.938152 S    
C3    C50   1.477533 S    
N1    C11   1.435087 S    
C25   C39   1.411751 A    
C21   C22   1.394726 A    
C39   N5    1.434558 S    
O4    C2    1.306504 A    
O7    C4    1.300558 A    
C5    C13   1.405096 A    
C22   C60   1.483445 S    
C5    O9    1.349599 S    
C19   C38   1.409619 A    
C18   C21   1.409194 A    
C61   H32   1.085767 S    
Cu1   O5    1.960286 S    
C19   C20   1.419657 A    
C17   C29   1.405747 A    
O5    C3    1.304947 A    
N8    H29   1.046013 S    
C59   H26   1.083324 S    
C6    O11   1.349762 S    
C2    C16   1.473998 S    
C31   C32   1.401719 A    
C1    C47   1.479877 S    
N7    H27   1.043662 S    
C10   H2    1.082881 S    
C12   C34   1.421949 A    
C14   H3    1.083448 S    
N6    H25   1.043370 S    
C9    C10   1.391163 A    
C42   C43   1.385419 A    
O3    Cu1   1.941965 S    
C41   C46   1.419403 A    
C33   C34   1.418417 A    
C44   C45   1.416609 A    
C37   H9    1.083502 S    
C33   C36   1.415839 A    
C38   H10   1.076514 S    
C34   C35   1.419038 A    
N6    H24   1.043632 S    
C12   C13   1.408205 A    
O3    C2    1.308598 A    
C55   C56   1.437534 A    
C41   C42   1.392672 A    
C36   H7    1.077771 S    
C51   C52   1.391123 A    
C27   O10   1.348349 S    
C8    C16   1.424276 A    
C18   C33   1.421602 A    
C9    H1    1.083993 S    
C30   H11   1.073404 S    
O1    C1    1.298450 A    
C7    C11   1.398933 A    
C43   H17   1.082590 S    
C22   C23   1.417750 A    
C21   H6    1.079109 S    
H19   C57   1.081620 S    
C49   C50   1.400508 A    
Cu2   O8    1.941960 S    
C58   N4    1.367745 A    
C53   N7    1.434227 S    
C38   C39   1.393429 A    
N1    C6    1.367916 A    
N2    C32   1.438284 S    
C55   N4    1.394728 A    
C57   C58   1.420827 A    
C43   C44   1.389452 A    
C25   C26   1.411078 A    
C9    C16   1.406945 A    
O8    C4    1.313627 A    
C29   H4    1.083683 S    
C48   C49   1.389038 A    
N5    H23   1.045668 S    
C52   C53   1.377275 A    
N2    C27   1.365383 A    
C54   N8    1.426241 S    
C14   C36   1.389979 A    
C31   H12   1.082982 S    
C24   C25   1.416830 A    
C28   C29   1.395067 A    
C8    C61   1.483521 S    
C60   H31   1.085632 S    
C5    N1    1.368170 A    
C30   C31   1.394704 A    
Cu1   N4    2.039388 S    
C45   C50   1.412994 A    
O1    Cu1   1.972705 S    
C17   C30   1.401989 A    
O2    Cu2   1.960286 S    
C6    C15   1.404055 A    
C4    C17   1.471516 S    
C46   C47   1.436280 A    
O6    C3    1.312645 A    
O4    Cu2   1.938155 S    
C7    H8    1.084309 S    
C19   C35   1.423290 A    
C7    C8    1.403226 A    
O2    C1    1.318572 A    
C13   C14   1.396729 A    
C23   C27   1.414007 A    
C15   C37   1.395997 A    
C37   C40   1.389265 A    
C28   H5    1.082832 S    
C54   C55   1.439562 A    
C23   C24   1.418385 A    
C40   H13   1.076550 S    
C56   N3    1.390893 A    
C18   C20   1.417540 A    
C61   O15   1.217953 D    
H14   C48   1.083272 S    
N8    H30   1.046204 S    
C45   C46   1.416555 A    
C41   H15   1.066422 S    
Cu2   O6    1.972705 S    
N5    H22   1.045728 S    
Cu2   N3    2.038837 S    
C49   N6    1.432217 S    
C10   C11   1.394944 A    
C51   C56   1.422795 A    
C26   O12   1.349288 S    
C53   C54   1.400923 A    
C35   C40   1.416374 A    
C28   C32   1.400290 A    
C60   O14   1.221086 D    
