data_mof_unit_9960.cif
_audit_creation_date              2012-12-10T19:42:57-0500
_audit_creation_method            fapswitch 2.2
_symmetry_space_group_name_H-M    P1
_symmetry_Int_Tables_number       1
_space_group_crystal_system       triclinic
_cell_length_a                    10.812323
_cell_length_b                    12.972805
_cell_length_c                    11.740665
_cell_angle_alpha                 101.214152
_cell_angle_beta                  94.23968
_cell_angle_gamma                 91.164081
_cell_volume                      1609.94162901

loop_
_atom_site_label
_atom_site_type_symbol
_atom_type_description
_atom_site_fract_x
_atom_site_fract_y
_atom_site_fract_z
_atom_type_partial_charge
C1    C     C_R   0.499942 0.298869 0.477336 0.888225
C2    C     C_R   0.500057 0.701131 0.522664 0.888224
C3    C     C_R   0.871713 0.499288 0.500658 -0.149589
C4    C     C_R   0.128287 0.500711 0.499342 -0.149590
C5    C     C_R   0.940491 0.437868 0.568041 -0.108390
C6    C     C_R   0.059509 0.562130 0.431958 -0.108391
C7    C     C_R   0.496270 0.815323 0.537235 -0.156960
C8    C     C_R   0.503729 0.184677 0.462765 -0.156962
C9    C     C_R   0.557548 0.013034 0.356729 0.317190
C10   C     C_R   0.442451 0.986966 0.643271 0.317198
C11   C     C_R   0.553163 0.123239 0.365346 0.279046
C12   C     C_R   0.446834 0.876760 0.634653 0.279041
C13   C     C_R   0.465132 0.138627 0.552746 -0.262635
C14   C     C_R   0.534868 0.861373 0.447254 -0.262630
C15   C     C_R   0.476498 0.031469 0.549224 -0.004093
C16   C     C_R   0.523502 0.968531 0.450777 -0.004094
C17   C     C_R   0.394165 0.393046 0.014945 -0.302015
C18   C     C_R   0.605836 0.606954 0.985054 -0.302018
C19   C     C_R   0.402321 0.402221 0.137230 0.377390
C20   C     C_R   0.597679 0.597779 0.862770 0.377388
C21   C     C_R   0.543625 0.548343 0.159754 0.026144
C22   C     C_R   0.456375 0.451657 0.840246 0.026150
C23   C     C_R   0.262440 0.500636 0.499879 0.894024
C24   C     C_R   0.737560 0.499364 0.500121 0.894026
C25   C     C_R   0.537839 0.539132 0.036559 0.004953
C26   C     C_R   0.462162 0.460868 0.963441 0.004953
C27   C     C_R   0.226487 0.796169 0.353467 -0.227295
C28   C     C_R   0.773505 0.203831 0.646537 -0.227287
C29   C     C_R   0.163659 0.733901 0.418354 0.435133
C30   C     C_R   0.836334 0.266099 0.581648 0.435104
C31   C     C_R   0.123979 0.630488 0.365322 0.077151
C32   C     C_R   0.876020 0.369511 0.634679 0.077141
C33   C     C_R   0.146185 0.591062 0.248745 -0.191704
C34   C     C_R   0.853817 0.408939 0.751259 -0.191674
C35   C     C_R   0.210338 0.652987 0.186068 -0.128925
C36   C     C_R   0.789663 0.347014 0.813937 -0.128931
C37   C     C_R   0.250587 0.755320 0.238413 -0.133341
C38   C     C_R   0.749409 0.244681 0.761593 -0.133335
C39   C     C_R   0.929635 0.561479 0.433001 0.378822
C40   C     C_R   0.070365 0.438518 0.566997 0.378829
Cu1   Cu    Cu3+1 0.509250 0.507730 0.615930 0.992411
Cu2   Cu    Cu3+1 0.490750 0.492270 0.384070 0.992409
H1    H     H_    0.300304 0.803212 0.189710 0.161841
H2    H     H_    0.699692 0.196790 0.810297 0.161841
H3    H     H_    0.397236 0.390998 0.784665 0.156813
H4    H     H_    0.602764 0.609002 0.215335 0.156812
H5    H     H_    0.336459 0.331072 0.959404 0.158621
H6    H     H_    0.663541 0.668928 0.040595 0.158621
H7    H     H_    0.257489 0.876014 0.392187 0.139905
H8    H     H_    0.742501 0.123986 0.607816 0.139907
H9    H     H_    0.115787 0.511633 0.207372 0.149666
H10   H     H_    0.884219 0.488367 0.792632 0.149664
H11   H     H_    0.229079 0.621517 0.096902 0.148933
H12   H     H_    0.770925 0.378485 0.903105 0.148930
H13   H     H_    0.572260 0.812384 0.372953 0.230470
H14   H     H_    0.427741 0.187616 0.627047 0.230470
N1    N     N_R   0.523180 0.519350 0.790130 -0.177407
N2    N     N_R   0.476820 0.480650 0.209870 -0.177406
O1    O     O_R   0.506570 0.354460 0.582000 -0.602763
O2    O     O_R   0.493430 0.645540 0.418000 -0.602763
O3    O     O_R   0.490940 0.341410 0.386200 -0.543829
O4    O     O_R   0.509060 0.658590 0.613800 -0.543830
O5    O     O_R   0.327460 0.506540 0.597900 -0.529510
O6    O     O_R   0.672540 0.493460 0.402100 -0.529513
O7    O     O_R   0.311830 0.493480 0.402100 -0.619661
O8    O     O_R   0.688170 0.506520 0.597900 -0.619660
C41   C     C_3   0.667933 0.681875 0.818957 -0.758570
H15   H     H_    0.738722 0.723653 0.886499 0.181067
H16   H     H_    0.720399 0.650573 0.744072 0.243510
H17   H     H_    0.603756 0.742574 0.799278 0.268132
C42   C     C_3   0.332065 0.318126 0.181042 -0.758573
H18   H     H_    0.261277 0.276347 0.113500 0.181066
H19   H     H_    0.396241 0.257426 0.200724 0.268133
H20   H     H_    0.279597 0.349428 0.255926 0.243508
O9    O     O_3   0.140039 0.771907 0.532606 -0.725477
H21   H     H_    0.172371 0.845700 0.555666 0.325669
O10   O     O_3   0.859951 0.228091 0.467393 -0.725477
H22   H     H_    0.827617 0.154298 0.444333 0.325671
O11   O     O_3   0.855885 0.622622 0.372722 -0.734636
H23   H     H_    0.905537 0.659059 0.324231 0.330787
O12   O     O_3   0.144116 0.377376 0.627274 -0.734631
H24   H     H_    0.094458 0.340910 0.675740 0.330781
O13   O     O_3   0.397866 0.826902 0.715938 -0.721479
H25   H     H_    0.331778 0.869974 0.753063 0.338451
O14   O     O_3   0.602129 0.173097 0.284060 -0.721478
H26   H     H_    0.668214 0.130023 0.246930 0.338456
O15   O     O_3   0.593747 0.947516 0.258201 -0.755935
H27   H     H_    0.572911 0.979954 0.189812 0.329857
O16   O     O_3   0.406254 0.052484 0.741799 -0.755933
H28   H     H_    0.427076 0.020041 0.810188 0.329855

loop_
_geom_bond_atom_site_label_1
_geom_bond_atom_site_label_2
_ccdc_geom_bond_type
O15   H27   S    
C8    C13   A    
C35   H11   S    
C1    C8    S    
Cu1   Cu2   S    
C20   C41   S    
C19   C42   S    
C2    C7    S    
Cu2   N2    S    
C22   N1    A    
O12   H24   S    
O10   H22   S    
C17   C26   A    
C35   C37   A    
C9    C16   A    
C27   C37   A    
C10   C15   A    
C1    O1    A    
C2    O2    A    
C27   C29   A    
C15   C16   A    
C17   C19   A    
C30   O10   S    
C28   H8    S    
C7    C14   A    
C4    C40   A    
C10   O16   S    
Cu2   O7    S    
C31   C33   A    
C34   C36   A    
C24   O8    A    
C13   H14   S    
C23   O5    A    
C6    C31   S    
C3    C39   A    
C24   O6    A    
C3    C24   S    
C18   C25   A    
Cu1   O4    S    
C19   N2    A    
C7    C12   A    
C41   H15   S    
Cu1   O1    S    
C4    C6    A    
Cu2   O2    S    
C42   H19   S    
C4    C23   S    
C25   C26   A    
O14   H26   S    
C12   O13   S    
C18   H6    S    
C41   H16   S    
C39   O11   S    
C37   H1    S    
O9    H21   S    
C38   H2    S    
O13   H25   S    
C28   C38   A    
C9    C11   A    
Cu2   O3    S    
C10   C12   A    
C13   C15   A    
C14   C16   A    
Cu1   O5    S    
Cu2   O6    S    
C21   H4    S    
C21   C25   A    
C40   O12   S    
C17   H5    S    
C3    C5    A    
C1    O3    A    
C42   H20   S    
Cu1   O8    S    
C29   O9    S    
C33   H9    S    
C34   H10   S    
C41   H17   S    
C5    C32   S    
C36   C38   A    
O16   H28   S    
Cu1   N1    S    
C21   N2    A    
C29   C31   A    
C9    O15   S    
C30   C32   A    
C23   O7    A    
C11   O14   S    
C8    C11   A    
C28   C30   A    
C33   C35   A    
C14   H13   S    
C18   C20   A    
C36   H12   S    
O11   H23   S    
C2    O4    A    
C42   H18   S    
C22   H3    S    
C22   C26   A    
C5    C40   A    
C6    C39   A    
C20   N1    A    
C27   H7    S    
C32   C34   A    
