data_mof_unit_9156.cif
_audit_creation_date              2012-12-11T15:12:16-0500
_audit_creation_method            fapswitch 2.2
_symmetry_space_group_name_H-M    P1
_symmetry_Int_Tables_number       1
_space_group_crystal_system       triclinic
_cell_length_a                    31.200348
_cell_length_b                    22.603937
_cell_length_c                    18.025468
_cell_angle_alpha                 89.93945
_cell_angle_beta                  123.409457
_cell_angle_gamma                 90.40469
_cell_volume                      10611.5007149

loop_
_atom_site_label
_atom_site_type_symbol
_atom_type_description
_atom_site_fract_x
_atom_site_fract_y
_atom_site_fract_z
_atom_type_partial_charge
C1    C     C_R   0.546153 0.577330 0.746254 -0.107570
C2    C     C_R   0.279982 0.688602 0.510581 -0.107888
C3    C     C_R   0.346266 0.244445 0.053285 0.004652
C4    C     C_R   0.838410 0.230725 0.026314 -0.009393
C5    C     C_R   0.157603 0.747545 0.955777 0.007590
C6    C     C_R   0.169834 0.212993 0.003864 -0.004138
C7    C     C_R   0.845245 0.748374 0.049272 0.000699
C8    C     C_R   0.252091 0.701247 0.994317 0.032705
C9    C     C_R   0.743768 0.276749 0.986113 0.021225
C10   C     C_R   0.749772 0.703441 0.008080 0.012957
C11   C     C_R   0.265739 0.258240 0.046014 0.006420
C12   C     C_R   0.759362 0.220025 0.025580 0.026113
C13   C     C_R   0.276058 0.330323 0.539109 -0.116402
C14   C     C_R   0.236734 0.758784 0.957208 0.018316
C15   C     C_R   0.249967 0.200555 0.009737 0.011319
C16   C     C_R   0.765517 0.760977 0.044855 0.009289
C17   C     C_R   0.777388 0.310174 0.972587 -0.379544
C18   C     C_R   0.218383 0.667512 0.007380 -0.393035
C19   C     C_R   0.233833 0.290692 0.064165 -0.377053
C20   C     C_R   0.784174 0.667937 0.000155 -0.381653
C21   C     C_R   0.269726 0.791828 0.941671 -0.387430
C22   C     C_R   0.728310 0.190026 0.048762 -0.376125
C23   C     C_R   0.734418 0.792336 0.065902 -0.375688
C24   C     C_R   0.719010 0.679949 0.482271 -0.098244
C25   C     C_R   0.284295 0.164859 0.001833 -0.381796
C26   C     C_R   0.824350 0.288472 0.994099 0.527869
C27   C     C_R   0.171483 0.689669 0.987231 0.530751
C28   C     C_R   0.186986 0.268556 0.044550 0.537272
C29   C     C_R   0.832030 0.689235 0.023238 0.544058
C30   C     C_R   0.317217 0.770942 0.964685 0.530467
C31   C     C_R   0.682059 0.213457 0.030264 0.536054
C32   C     C_R   0.688018 0.769494 0.047562 0.537959
C33   C     C_R   0.332424 0.185658 0.025578 0.542982
C34   C     C_R   0.570732 0.614218 0.427565 0.562140
C35   C     C_R   0.260566 0.847182 0.531934 -0.088742
C36   C     C_R   0.420465 0.393626 0.576303 0.538920
C37   C     C_R   0.426113 0.608661 0.579290 0.551129
C38   C     C_R   0.590519 0.408586 0.423715 0.450676
C39   C     C_R   0.070215 0.115159 0.429282 0.563577
C40   C     C_R   0.918966 0.894877 0.576194 0.504495
C41   C     C_R   0.927331 0.109663 0.578990 0.571181
C42   C     C_R   0.089628 0.908627 0.422386 0.448430
C43   C     C_R   0.382955 0.575678 0.252920 -0.082947
C44   C     C_R   0.616060 0.417557 0.741965 -0.131578
C45   C     C_R   0.616940 0.577652 0.745630 -0.121128
C46   C     C_R   0.785112 0.188997 0.524195 -0.089733
C47   C     C_R   0.384438 0.417244 0.256356 -0.092131
C48   C     C_R   0.882885 0.075768 0.253433 -0.113250
C49   C     C_R   0.115452 0.914626 0.740013 -0.130388
C50   C     C_R   0.117027 0.076392 0.746345 -0.126196
C51   C     C_R   0.884184 0.918476 0.255550 -0.089113
C52   C     C_R   0.597676 0.591224 0.796842 -0.018536
C53   C     C_R   0.405879 0.397182 0.210762 -0.014448
C54   C     C_R   0.402214 0.587764 0.201178 -0.047202
C55   C     C_R   0.596163 0.400369 0.791247 -0.000175
C56   C     C_R   0.097813 0.089260 0.797836 -0.019823
C57   C     C_R   0.767176 0.832601 0.512883 -0.137676
C58   C     C_R   0.905322 0.899336 0.209106 -0.013225
C59   C     C_R   0.901939 0.089188 0.201937 -0.048891
C60   C     C_R   0.094926 0.895134 0.787405 0.002751
C61   C     C_R   0.609891 0.645063 0.500638 -0.299563
C62   C     C_R   0.380121 0.363978 0.503451 -0.274533
C63   C     C_R   0.391959 0.643608 0.507479 -0.302425
C64   C     C_R   0.637412 0.390521 0.497683 -0.200235
C65   C     C_R   0.109775 0.145601 0.502227 -0.291856
C66   C     C_R   0.879820 0.864044 0.502299 -0.289274
C67   C     C_R   0.892866 0.144343 0.507379 -0.289374
C68   C     C_R   0.217055 0.181670 0.478817 -0.085964
C69   C     C_R   0.136225 0.889928 0.495722 -0.207552
C70   C     C_R   0.670461 0.296245 0.497207 -0.338429
C71   C     C_R   0.366714 0.740783 0.526684 -0.370258
C72   C     C_R   0.341941 0.270479 0.505389 -0.352447
C73   C     C_R   0.652953 0.739429 0.517023 -0.369175
C74   C     C_R   0.167313 0.796125 0.489293 -0.341091
C75   C     C_R   0.865996 0.242081 0.521205 -0.345629
C76   C     C_R   0.843154 0.770448 0.508538 -0.349419
C77   C     C_R   0.155315 0.239202 0.525211 -0.351087
C78   C     C_R   0.675899 0.357289 0.497236 -0.060552
C79   C     C_R   0.755089 0.286221 0.527022 -0.041117
C80   C     C_R   0.355532 0.681034 0.507802 0.002696
C81   C     C_R   0.342159 0.331942 0.509167 -0.004722
C82   C     C_R   0.646114 0.679897 0.493777 0.038790
C83   C     C_R   0.174104 0.857030 0.493712 -0.056447
C84   C     C_R   0.856869 0.181424 0.509700 -0.002431
C85   C     C_R   0.840284 0.831790 0.502514 0.011272
C86   C     C_R   0.145380 0.181251 0.494192 0.027740
C87   C     C_R   0.721517 0.384083 0.515305 0.572525
C88   C     C_R   0.310926 0.655215 0.494146 0.608899
C89   C     C_R   0.307766 0.362981 0.521696 0.583512
C90   C     C_R   0.289299 0.749918 0.524666 -0.039189
C91   C     C_R   0.674522 0.652324 0.464918 0.555333
C92   C     C_R   0.220149 0.883611 0.513849 0.571125
C93   C     C_R   0.817157 0.154251 0.512034 0.581382
C94   C     C_R   0.798632 0.862496 0.492454 0.595800
C95   C     C_R   0.172012 0.154974 0.460786 0.547097
C96   C     C_3   0.681188 0.669476 0.697430 0.181384
C97   C     C_3   0.735756 0.689944 0.730337 -0.241068
C98   C     C_3   0.747288 0.751287 0.772747 -0.974624
C99   C     C_3   0.321945 0.321445 0.316520 0.169935
C100  C     C_3   0.368621 0.285344 0.334925 -0.359745
C101  C     C_R   0.269757 0.269366 0.519885 -0.026980
C102  C     C_3   0.353209 0.221578 0.302856 -0.944070
C103  C     C_3   0.360221 0.687779 0.331025 0.130694
C104  C     C_3   0.319581 0.711787 0.239202 -0.244536
C105  C     C_3   0.341252 0.761782 0.211872 -1.016763
C106  C     C_3   0.709121 0.358956 0.694933 0.208351
C107  C     C_3   0.675339 0.307812 0.692512 -0.421115
C108  C     C_3   0.706166 0.250922 0.728694 -0.864601
C109  C     C_3   0.182388 0.166861 0.700949 0.184521
C110  C     C_3   0.237399 0.186978 0.736607 -0.240816
C111  C     C_3   0.249663 0.246447 0.784471 -0.970871
C112  C     C_R   0.456817 0.414212 0.260087 -0.132069
C113  C     C_R   0.726529 0.740180 0.505979 -0.030700
C114  C     C_3   0.826734 0.819368 0.317654 0.148468
C115  C     C_3   0.875772 0.785900 0.341828 -0.361130
C116  C     C_3   0.863256 0.721958 0.309082 -0.941916
C117  C     C_3   0.854202 0.188075 0.326475 0.173272
C118  C     C_3   0.806218 0.226592 0.283911 -0.283789
C119  C     C_3   0.813071 0.282936 0.244583 -1.002785
C120  C     C_3   0.205707 0.852998 0.689864 0.206599
C121  C     C_3   0.169304 0.803258 0.682461 -0.416343
C122  C     C_3   0.196052 0.743414 0.707822 -0.873307
C123  C     C_3   0.534535 0.691835 0.323588 0.169274
C124  C     C_R   0.252308 0.785476 0.521212 -0.040379
C125  C     C_3   0.499561 0.714003 0.352846 -0.339239
C126  C     C_3   0.484396 0.778301 0.325896 -1.023654
C127  C     C_3   0.447075 0.329617 0.694390 0.153433
C128  C     C_3   0.422698 0.313696 0.745765 -0.227248
C129  C     C_3   0.437914 0.251731 0.785210 -1.030091
C130  C     C_3   0.446123 0.667717 0.703986 0.203927
C131  C     C_3   0.485724 0.707543 0.701552 -0.393198
C132  C     C_3   0.490585 0.767573 0.744286 -0.926360
C133  C     C_3   0.576608 0.358717 0.299329 0.184303
C134  C     C_3   0.612424 0.359087 0.265964 -0.291317
C135  C     C_R   0.792014 0.250803 0.529890 -0.043007
C136  C     C_3   0.598402 0.310552 0.197186 -0.988775
C137  C     C_3   0.028358 0.195511 0.334311 0.162654
C138  C     C_3   0.995083 0.209818 0.370955 -0.336001
C139  C     C_3   0.975183 0.273083 0.348826 -1.017369
C140  C     C_3   0.936328 0.835946 0.695740 0.175732
C141  C     C_3   0.901619 0.825670 0.730038 -0.227085
C142  C     C_3   0.904593 0.761953 0.760427 -1.021993
C143  C     C_3   0.950498 0.171491 0.702598 0.206533
C144  C     C_3   0.988921 0.209487 0.694160 -0.395884
C145  C     C_3   0.997679 0.269440 0.739413 -0.930738
C146  C     C_R   0.766527 0.770343 0.509958 -0.030079
C147  C     C_3   0.076035 0.862452 0.295335 0.183775
C148  C     C_3   0.112111 0.865455 0.262589 -0.284901
C149  C     C_3   0.097095 0.821044 0.188164 -1.004131
C150  C     C_3   0.706530 0.466347 0.430428 0.170210
C151  C     C_3   0.739828 0.452829 0.393688 -0.425373
C152  C     C_3   0.719668 0.482782 0.304579 -0.979392
C153  C     C_3   0.252862 0.596290 0.369997 0.216672
C154  C     C_3   0.234532 0.654258 0.314896 -0.416890
C155  C     C_3   0.201526 0.641406 0.215367 -0.863843
C156  C     C_3   0.257207 0.444378 0.445624 0.148194
C157  C     C_R   0.228507 0.239760 0.512819 -0.046737
C158  C     C_3   0.247684 0.432618 0.353853 -0.287493
C159  C     C_3   0.192836 0.447643 0.278757 -1.036784
C160  C     C_3   0.636665 0.610658 0.327019 0.169742
C161  C     C_3   0.601332 0.559371 0.269991 -0.190507
C162  C     C_3   0.566779 0.576662 0.172337 -1.034133
C163  C     C_3   0.205927 0.969168 0.435343 0.172133
C164  C     C_3   0.238617 0.957787 0.396829 -0.424914
C165  C     C_3   0.217966 0.989688 0.308915 -0.974394
C166  C     C_3   0.774138 0.070536 0.422659 0.219427
C167  C     C_3   0.738202 0.114050 0.347119 -0.418611
C168  C     C_R   0.709926 0.260007 0.512871 0.010862
C169  C     C_3   0.705312 0.081988 0.258229 -0.963858
C170  C     C_3   0.736240 0.923229 0.378174 0.176865
C171  C     C_3   0.716826 0.872921 0.308426 -0.317840
C172  C     C_3   0.658769 0.877061 0.242745 -0.995655
C173  C     C_3   0.130529 0.115183 0.321301 0.164745
C174  C     C_3   0.096503 0.062809 0.265793 -0.192541
C175  C     C_3   0.063568 0.077883 0.167116 -1.042759
C176  C     C_3   0.385275 0.904129 0.516354 0.194492
C177  C     C_3   0.366381 0.878512 0.424100 -0.344807
C178  C     C_3   0.365226 0.926044 0.362857 -0.989769
C179  C     C_R   0.333839 0.776014 0.535806 0.007862
C180  C     C_3   0.634765 0.136046 0.431764 0.188146
C181  C     C_3   0.607740 0.171695 0.345009 -0.356016
C182  C     C_3   0.579043 0.131205 0.263918 -0.995875
C183  C     C_3   0.618995 0.878782 0.468408 0.169337
C184  C     C_3   0.619225 0.944840 0.449858 -0.276869
C185  C     C_3   0.569692 0.962708 0.363608 -1.038944
C186  C     C_3   0.347927 0.096597 0.513731 0.188703
C187  C     C_3   0.386359 0.108803 0.613157 -0.345912
C188  C     C_3   0.408688 0.051220 0.664204 -0.969530
C189  C     C_3   0.889575 0.410536 0.528908 0.191640
C190  C     C_R   0.302970 0.238957 0.502886 0.011641
C191  C     C_3   0.870422 0.394023 0.432912 -0.346040
C192  C     C_3   0.869972 0.447777 0.381223 -0.991446
C193  C     C_3   0.126962 0.639696 0.407211 0.192708
C194  C     C_3   0.099012 0.679817 0.325335 -0.349511
C195  C     C_3   0.072359 0.643590 0.239627 -0.996522
C196  C     C_3   0.154997 0.406681 0.544046 0.166538
C197  C     C_3   0.174227 0.460539 0.605954 -0.264870
C198  C     C_3   0.152294 0.517804 0.553944 -1.006076
C199  C     C_3   0.853080 0.594949 0.530279 0.181613
C200  C     C_3   0.884610 0.606145 0.631018 -0.342356
C201  C     C_R   0.691750 0.771106 0.518835 -0.016646
C202  C     C_3   0.905958 0.548441 0.682210 -0.969042
C203  C     C_3   0.893574 0.351742 0.064386 0.186674
C204  C     C_3   0.872986 0.408266 0.080840 -0.306064
C205  C     C_3   0.914968 0.440732 0.163940 -1.034127
C206  C     C_3   0.117253 0.608713 0.939671 0.182722
C207  C     C_3   0.070083 0.629998 0.851524 -0.323907
C208  C     C_3   0.043737 0.578965 0.785810 -1.001901
C209  C     C_3   0.120890 0.334983 0.988306 0.176456
C210  C     C_3   0.142056 0.395820 0.985771 -0.301196
C211  C     C_3   0.100520 0.433496 0.910262 -1.017645
C212  C     C_R   0.205989 0.759586 0.502646 0.002705
C213  C     C_3   0.887668 0.611742 0.091821 0.182810
C214  C     C_3   0.930141 0.641161 0.178969 -0.334190
C215  C     C_3   0.955940 0.596805 0.255058 -1.017400
C216  C     C_3   0.384700 0.836806 0.033009 0.184749
C217  C     C_3   0.362894 0.894561 0.043260 -0.302671
C218  C     C_3   0.403454 0.928809 0.125809 -1.022922
C219  C     C_3   0.629757 0.132298 0.000247 0.168043
C220  C     C_3   0.580374 0.148692 0.911744 -0.324660
C221  C     C_3   0.553277 0.094049 0.854849 -0.988749
C222  C     C_3   0.625888 0.839865 0.004571 0.167725
C223  C     C_R   0.453654 0.574982 0.252665 -0.043331
C224  C     C_R   0.834826 0.277241 0.535126 0.004943
C225  C     C_3   0.649876 0.901663 0.018588 -0.299247
C226  C     C_3   0.609660 0.947504 0.959478 -1.012890
C227  C     C_3   0.385078 0.104461 0.084429 0.184048
C228  C     C_3   0.428455 0.128461 0.175283 -0.332388
C229  C     C_3   0.451644 0.079481 0.244814 -1.014712
C230  C     C_R   0.803509 0.738838 0.503723 0.007688
C231  C     C_R   0.196778 0.269442 0.534157 0.007531
C232  C     C_R   0.809872 0.372374 0.558645 -0.345454
C233  C     C_R   0.238015 0.662488 0.506591 -0.345397
C234  C     C_R   0.248941 0.357427 0.570927 -0.359727
C235  C     C_R   0.755107 0.648880 0.474567 -0.358613
C236  C     C_R   0.308385 0.871351 0.557362 -0.339023
C237  C     C_R   0.745003 0.163211 0.526765 -0.349713
C238  C     C_R   0.734910 0.863009 0.530860 -0.322719
C239  C     C_R   0.545243 0.417505 0.743447 -0.122714
C240  C     C_R   0.250653 0.151302 0.463896 -0.355042
C241  C     C_R   0.344348 0.836603 0.554774 0.556521
C242  C     C_R   0.705052 0.198241 0.514491 0.554719
C243  C     C_R   0.696886 0.832639 0.533595 0.579987
C244  C     C_R   0.295639 0.178460 0.481033 0.567044
C245  C     C_R   0.845533 0.337898 0.554264 0.559403
C246  C     C_R   0.199055 0.697842 0.497388 0.556517
C247  C     C_R   0.207819 0.327994 0.565712 0.565820
C248  C     C_R   0.799554 0.677202 0.490812 0.568139
C249  C     C_R   0.375209 0.617341 0.114098 0.145502
C250  C     C_R   0.046240 0.076159 0.746736 -0.099752
C251  C     C_R   0.623246 0.365449 0.873956 0.138998
C252  C     C_R   0.625542 0.620878 0.884085 0.137281
C253  C     C_R   0.381960 0.354613 0.136420 0.134968
C254  C     C_R   0.875918 0.125330 0.120820 0.139208
C255  C     C_R   0.120407 0.854460 0.864124 0.138555
C256  C     C_R   0.125592 0.118239 0.885503 0.137289
C257  C     C_R   0.880876 0.858221 0.133006 0.137316
C258  C     C_R   0.381684 0.693967 0.027562 -0.186449
C259  C     C_R   0.618497 0.291975 0.966777 -0.178755
C260  C     C_R   0.621369 0.693580 0.978096 -0.174729
C261  C     C_R   0.956449 0.915440 0.259109 -0.134527
C262  C     C_R   0.394040 0.266430 0.074629 -0.168484
C263  C     C_R   0.885381 0.207917 0.046022 -0.182383
C264  C     C_R   0.111165 0.770967 0.938029 -0.176878
C265  C     C_R   0.121128 0.191562 0.978318 -0.183381
C266  C     C_R   0.892463 0.771033 0.068807 -0.169507
C267  C     C_R   0.403278 0.646587 0.085507 -0.186881
C268  C     C_R   0.596995 0.339632 0.908686 -0.202343
C269  C     C_R   0.598867 0.647228 0.917371 -0.190841
C270  C     C_R   0.412242 0.320529 0.117825 -0.189819
C271  C     C_R   0.904678 0.156347 0.095186 -0.181456
C272  C     C_R   0.953333 0.075621 0.252572 -0.020616
C273  C     C_R   0.092433 0.823748 0.891510 -0.196709
C274  C     C_R   0.098719 0.144996 0.918072 -0.183620
C275  C     C_R   0.910757 0.824934 0.112595 -0.190200
C276  C     C_R   0.322890 0.628787 0.071582 -0.207469
C277  C     C_R   0.673710 0.348616 0.907919 -0.216236
C278  C     C_R   0.677354 0.634434 0.923262 -0.218329
C279  C     C_R   0.331027 0.338010 0.099956 -0.205331
C280  C     C_R   0.824989 0.141194 0.084880 -0.201906
C281  C     C_R   0.170651 0.837135 0.897017 -0.221793
C282  C     C_R   0.177515 0.131318 0.925384 -0.217927
C283  C     C_R   0.044286 0.913875 0.740850 -0.123814
C284  C     C_R   0.830023 0.841450 0.097020 -0.200232
C285  C     C_R   0.301385 0.680033 0.019643 0.080760
C286  C     C_R   0.695415 0.299107 0.962938 0.071436
C287  C     C_R   0.700155 0.682761 0.981130 0.073952
C288  C     C_R   0.313482 0.280923 0.064977 0.067801
C289  C     C_R   0.806595 0.196447 0.043953 0.061083
C290  C     C_R   0.189154 0.781810 0.937819 0.072636
C291  C     C_R   0.200196 0.180117 0.982419 0.077932
C292  C     C_R   0.812682 0.784329 0.062152 0.062402
C293  C     C_R   0.625210 0.610185 0.575063 0.507444
C294  C     C_R   0.762362 0.347968 0.534468 -0.087888
C295  C     C_R   0.371020 0.392633 0.427505 0.520407
C296  C     C_R   0.380050 0.613559 0.430903 0.530442
C297  C     C_R   0.640211 0.409204 0.573527 0.537538
C298  C     C_R   0.125519 0.109958 0.575965 0.502954
C299  C     C_R   0.871815 0.892136 0.427227 0.583533
C300  C     C_R   0.880065 0.113662 0.430683 0.486018
C301  C     C_R   0.139684 0.908404 0.572288 0.545874
C302  C     C_R   0.332956 0.714542 0.001779 -0.005641
C303  C     C_R   0.665747 0.268496 0.988480 0.009879
C304  C     C_R   0.670184 0.714896 0.004132 0.000066
H1    H     H_    0.522375 0.571650 0.772054 0.158692
H2    H     H_    0.226762 0.623060 0.032534 0.145538
H3    H     H_    0.886530 0.211979 0.385016 0.079434
H4    H     H_    0.772740 0.201295 0.230483 0.230308
H5    H     H_    0.798088 0.239060 0.334491 0.190663
H6    H     H_    0.846249 0.309019 0.296890 0.265120
H7    H     H_    0.777912 0.310234 0.214908 0.276168
H8    H     H_    0.820107 0.272013 0.192226 0.273118
H9    H     H_    0.236289 0.858210 0.761430 0.135924
H10   H     H_    0.226716 0.840203 0.659288 0.130864
H11   H     H_    0.156494 0.812728 0.727550 0.210694
H12   H     H_    0.134675 0.799709 0.613889 0.198962
H13   H     H_    0.243770 0.333825 0.094226 0.150183
H14   H     H_    0.207305 0.731049 0.661352 0.277485
H15   H     H_    0.169575 0.708926 0.704681 0.263586
H16   H     H_    0.230954 0.744794 0.776189 0.261123
H17   H     H_    0.513903 0.698481 0.250667 0.123610
H18   H     H_    0.569628 0.719334 0.352069 0.103145
H19   H     H_    0.464300 0.686498 0.320812 0.211846
H20   H     H_    0.519246 0.710581 0.426065 0.179668
H21   H     H_    0.519105 0.806960 0.356044 0.261872
H22   H     H_    0.460006 0.793457 0.349336 0.273728
H23   H     H_    0.462377 0.782658 0.252472 0.265391
H24   H     H_    0.776171 0.622057 0.980551 0.154406
H25   H     H_    0.489249 0.326069 0.740195 0.105469
H26   H     H_    0.436322 0.295789 0.642078 0.090394
H27   H     H_    0.435357 0.346206 0.800424 0.202733
H28   H     H_    0.380252 0.315761 0.700710 0.207193
H29   H     H_    0.425270 0.218462 0.731638 0.269133
H30   H     H_    0.419276 0.241313 0.821350 0.279607
H31   H     H_    0.480214 0.249117 0.832557 0.262909
H32   H     H_    0.460711 0.661097 0.775181 0.120796
H33   H     H_    0.408722 0.689331 0.676841 0.130164
H34   H     H_    0.523996 0.686954 0.738919 0.214401
H35   H     H_    0.260976 0.835302 0.913304 0.156463
H36   H     H_    0.475295 0.714197 0.632671 0.192718
H37   H     H_    0.452676 0.789447 0.711119 0.301302
H38   H     H_    0.517459 0.796371 0.738161 0.266197
H39   H     H_    0.505858 0.762021 0.815965 0.245375
H40   H     H_    0.537032 0.351931 0.241131 0.110827
H41   H     H_    0.584479 0.319808 0.342662 0.073712
H42   H     H_    0.609834 0.402465 0.234731 0.210505
H43   H     H_    0.652633 0.352569 0.322668 0.185727
H44   H     H_    0.598778 0.266618 0.224776 0.270362
H45   H     H_    0.626662 0.310563 0.177959 0.278986
H46   H     H_    0.739097 0.148645 0.083742 0.149979
H47   H     H_    0.559601 0.318423 0.136750 0.262489
H48   H     H_    0.005532 0.205880 0.262220 0.129406
H49   H     H_    0.062359 0.225105 0.363750 0.105491
H50   H     H_    0.961675 0.179309 0.341737 0.210341
H51   H     H_    0.017785 0.204504 0.444286 0.178124
H52   H     H_    0.007753 0.305026 0.376961 0.268361
H53   H     H_    0.952370 0.282494 0.377710 0.264081
H54   H     H_    0.950063 0.278964 0.275689 0.265865
H55   H     H_    0.976354 0.831566 0.752831 0.091537
H56   H     H_    0.931544 0.800198 0.649476 0.090793
H57   H     H_    0.745151 0.834620 0.098546 0.145613
H58   H     H_    0.913509 0.856048 0.786789 0.198284
H59   H     H_    0.861274 0.835723 0.677241 0.208568
H60   H     H_    0.891334 0.731074 0.703850 0.267742
H61   H     H_    0.879452 0.756233 0.785756 0.277800
H62   H     H_    0.944639 0.750994 0.814398 0.264561
H63   H     H_    0.966954 0.166402 0.774745 0.121028
H64   H     H_    0.913756 0.194246 0.677427 0.129514
H65   H     H_    0.026457 0.187262 0.726288 0.216002
H66   H     H_    0.975096 0.216657 0.623595 0.193903
H67   H     H_    0.960778 0.293069 0.710567 0.303366
H68   H     H_    0.275773 0.119361 0.980568 0.152608
H69   H     H_    0.024001 0.296811 0.729954 0.264966
H70   H     H_    0.015314 0.263461 0.811820 0.244301
H71   H     H_    0.036508 0.856516 0.236535 0.111984
H72   H     H_    0.083624 0.822287 0.336139 0.073789
H73   H     H_    0.110639 0.910449 0.236506 0.211446
H74   H     H_    0.152076 0.856639 0.318655 0.183413
H75   H     H_    0.096229 0.775523 0.209920 0.271888
H76   H     H_    0.125526 0.823035 0.169395 0.275398
H77   H     H_    0.058624 0.831700 0.128714 0.265886
H78   H     H_    0.342922 0.571769 0.229615 0.140357
H79   H     H_    0.635572 0.277351 0.487196 0.183110
H80   H     H_    0.655859 0.420769 0.764482 0.149061
H81   H     H_    0.656720 0.571526 0.769340 0.145466
H82   H     H_    0.344044 0.420237 0.229886 0.150352
H83   H     H_    0.842909 0.072241 0.230641 0.150284
H84   H     H_    0.155269 0.915550 0.762320 0.150473
H85   H     H_    0.156746 0.069328 0.770302 0.143263
H86   H     H_    0.843816 0.921971 0.229192 0.147499
H87   H     H_    0.705123 0.514642 0.434275 0.199232
H88   H     H_    0.666599 0.450820 0.384098 0.134870
H89   H     H_    0.779399 0.469196 0.441264 0.212899
H90   H     H_    0.400823 0.759351 0.533686 0.194601
H91   H     H_    0.740659 0.404485 0.383937 0.208694
H92   H     H_    0.680879 0.465548 0.253540 0.264684
H93   H     H_    0.745693 0.473129 0.282208 0.281720
H94   H     H_    0.718256 0.531465 0.310918 0.263983
H95   H     H_    0.220030 0.577934 0.370619 0.066958
H96   H     H_    0.261625 0.563845 0.334073 0.164917
H97   H     H_    0.211095 0.680215 0.332152 0.192892
H98   H     H_    0.267400 0.682130 0.328939 0.227990
H99   H     H_    0.224699 0.619285 0.193960 0.268335
H100  H     H_    0.186802 0.683661 0.178554 0.279562
H101  H     H_    0.369695 0.248205 0.497133 0.196726
H102  H     H_    0.168416 0.612581 0.198846 0.255078
H103  H     H_    0.255813 0.492552 0.454354 0.160355
H104  H     H_    0.224768 0.425813 0.447019 0.089206
H105  H     H_    0.275121 0.459249 0.346465 0.231393
H106  H     H_    0.253254 0.385012 0.347338 0.215408
H107  H     H_    0.165016 0.418989 0.282508 0.271985
H108  H     H_    0.188075 0.439873 0.213798 0.282726
H109  H     H_    0.184064 0.494556 0.282212 0.253257
H110  H     H_    0.667882 0.614980 0.315074 0.088101
H111  H     H_    0.614243 0.652497 0.304354 0.117246
H112  H     H_    0.482208 0.414687 0.237411 0.139207
H113  H     H_    0.627412 0.760661 0.531741 0.179874
H114  H     H_    0.624699 0.521244 0.275015 0.173286
H115  H     H_    0.577054 0.544621 0.294054 0.248426
H116  H     H_    0.540935 0.613235 0.164215 0.268012
H117  H     H_    0.542827 0.538040 0.132897 0.271973
H118  H     H_    0.590369 0.590883 0.146550 0.270945
H119  H     H_    0.205148 0.017285 0.443280 0.200800
H120  H     H_    0.165752 0.954738 0.388271 0.137834
H121  H     H_    0.278178 0.973889 0.444689 0.207636
H122  H     H_    0.239580 0.909790 0.384996 0.208216
H123  H     H_    0.179644 0.971883 0.257025 0.263832
H124  H     H_    0.131914 0.777505 0.477548 0.186392
H125  H     H_    0.244317 0.982547 0.286533 0.276986
H126  H     H_    0.215365 0.037939 0.316685 0.263819
H127  H     H_    0.749224 0.040777 0.432316 0.114810
H128  H     H_    0.794221 0.042939 0.400128 0.166544
H129  H     H_    0.711927 0.135845 0.361664 0.202251
H130  H     H_    0.760712 0.148568 0.339607 0.235113
H131  H     H_    0.729998 0.060512 0.239516 0.273165
H132  H     H_    0.680185 0.114371 0.205967 0.296470
H133  H     H_    0.680611 0.048077 0.261866 0.246221
H134  H     H_    0.734624 0.963510 0.342025 0.118752
H135  H     H_    0.897895 0.261217 0.521133 0.191034
H136  H     H_    0.709007 0.931138 0.398174 0.098807
H137  H     H_    0.735433 0.876990 0.271033 0.227819
H138  H     H_    0.725004 0.828325 0.338566 0.192226
H139  H     H_    0.638958 0.872595 0.278216 0.257926
H140  H     H_    0.645136 0.840782 0.193225 0.304974
H141  H     H_    0.648512 0.920147 0.207482 0.261775
H142  H     H_    0.160051 0.122419 0.305795 0.093987
H143  H     H_    0.106380 0.155677 0.301023 0.123544
H144  H     H_    0.120819 0.024550 0.275077 0.182302
H145  H     H_    0.071107 0.049236 0.288100 0.240506
H146  H     H_    0.874296 0.747956 0.510368 0.194991
H147  H     H_    0.037255 0.114833 0.155362 0.267914
H148  H     H_    0.040156 0.038641 0.128889 0.273908
H149  H     H_    0.088309 0.090681 0.143011 0.273747
H150  H     H_    0.423637 0.924655 0.543654 0.138745
H151  H     H_    0.360238 0.940522 0.511523 0.075041
H152  H     H_    0.392326 0.842417 0.430949 0.200300
H153  H     H_    0.327023 0.859884 0.393135 0.195189
H154  H     H_    0.339839 0.962894 0.355631 0.267130
H155  H     H_    0.350256 0.906751 0.296180 0.273725
H156  H     H_    0.404526 0.943662 0.390056 0.265542
H157  H     H_    0.131024 0.259958 0.543160 0.187925
H158  H     H_    0.604896 0.112224 0.435928 0.138650
H159  H     H_    0.659324 0.101172 0.430561 0.087403
H160  H     H_    0.580233 0.202918 0.344537 0.202602
H161  H     H_    0.636539 0.197610 0.340426 0.197676
H162  H     H_    0.606266 0.101004 0.261786 0.276855
H163  H     H_    0.559422 0.158248 0.202455 0.272796
H164  H     H_    0.549796 0.104551 0.266053 0.274094
H165  H     H_    0.586381 0.869637 0.475457 0.129330
H166  H     H_    0.611567 0.852304 0.409983 0.073540
H167  H     H_    0.623486 0.970990 0.505773 0.212972
H168  H     H_    0.818270 0.418349 0.578218 0.178408
H169  H     H_    0.652217 0.955433 0.444564 0.179899
H170  H     H_    0.565356 0.938184 0.306435 0.271282
H171  H     H_    0.570892 0.010783 0.352393 0.270018
H172  H     H_    0.535960 0.953349 0.367447 0.278115
H173  H     H_    0.368216 0.072530 0.488202 0.133850
H174  H     H_    0.317089 0.066272 0.503709 0.094419
H175  H     H_    0.418005 0.137563 0.622388 0.204652
H176  H     H_    0.366832 0.131987 0.640840 0.202602
H177  H     H_    0.377458 0.021229 0.653872 0.270979
H178  H     H_    0.434427 0.060934 0.736324 0.277627
H179  H     H_    0.234407 0.614819 0.506382 0.167865
H180  H     H_    0.431132 0.028637 0.641694 0.258859
H181  H     H_    0.928858 0.429531 0.560789 0.139183
H182  H     H_    0.866209 0.446259 0.531203 0.074156
H183  H     H_    0.896179 0.359939 0.433769 0.204324
H184  H     H_    0.830865 0.375426 0.398576 0.203510
H185  H     H_    0.844682 0.482625 0.380057 0.267916
H186  H     H_    0.855257 0.434549 0.311768 0.277398
H187  H     H_    0.909436 0.466006 0.412204 0.266163
H188  H     H_    0.097577 0.613406 0.409720 0.141162
H189  H     H_    0.151006 0.607016 0.400311 0.081118
H190  H     H_    0.257998 0.402466 0.595455 0.173901
H191  H     H_    0.070137 0.706726 0.327784 0.200258
H192  H     H_    0.127046 0.710139 0.325167 0.197534
H193  H     H_    0.101217 0.619593 0.233580 0.269333
H194  H     H_    0.050490 0.673412 0.181639 0.270860
H195  H     H_    0.045413 0.611001 0.238938 0.274332
H196  H     H_    0.113071 0.401553 0.513822 0.121351
H197  H     H_    0.159664 0.414564 0.487652 0.071860
H198  H     H_    0.162767 0.455876 0.654165 0.205062
H199  H     H_    0.216782 0.463078 0.644032 0.202414
H200  H     H_    0.164961 0.524052 0.507676 0.253993
H201  H     H_    0.748263 0.602961 0.455157 0.163051
H202  H     H_    0.166329 0.555928 0.600626 0.290310
H203  H     H_    0.109677 0.516701 0.515489 0.262099
H204  H     H_    0.878521 0.573460 0.513239 0.134481
H205  H     H_    0.821744 0.562575 0.510835 0.094088
H206  H     H_    0.916887 0.636960 0.649022 0.205970
H207  H     H_    0.860088 0.626603 0.650875 0.203680
H208  H     H_    0.874070 0.517797 0.666923 0.271811
H209  H     H_    0.929066 0.557840 0.754686 0.278926
H210  H     H_    0.930920 0.526753 0.664302 0.257806
H211  H     H_    0.926895 0.363818 0.060599 0.133874
H212  H     H_    0.317026 0.917511 0.575869 0.180931
H213  H     H_    0.908567 0.321237 0.122115 0.074577
H214  H     H_    0.857528 0.438087 0.022566 0.211618
H215  H     H_    0.841563 0.396921 0.090149 0.197554
H216  H     H_    0.931052 0.411577 0.223014 0.278131
H217  H     H_    0.898429 0.480371 0.175150 0.274467
H218  H     H_    0.946231 0.455145 0.155731 0.266123
H219  H     H_    0.104556 0.574410 0.967911 0.143175
H220  H     H_    0.144761 0.586624 0.927762 0.088119
H221  H     H_    0.042299 0.650410 0.864005 0.208478
H222  H     H_    0.081913 0.663825 0.821298 0.197192
H223  H     H_    0.477879 0.568969 0.227717 0.146106
H224  H     H_    0.742758 0.115747 0.531879 0.178965
H225  H     H_    0.070854 0.557788 0.772425 0.269786
H226  H     H_    0.010592 0.596041 0.722202 0.276235
H227  H     H_    0.029588 0.545409 0.812635 0.277328
H228  H     H_    0.087161 0.341524 0.992900 0.134669
H229  H     H_    0.106343 0.310952 0.924504 0.087616
H230  H     H_    0.157324 0.419169 0.049957 0.207091
H231  H     H_    0.173785 0.390363 0.975526 0.193557
H232  H     H_    0.084080 0.410508 0.845486 0.275512
H233  H     H_    0.117545 0.476149 0.907955 0.264263
H234  H     H_    0.069385 0.442697 0.920981 0.269816
H235  H     H_    0.738758 0.910412 0.541642 0.166940
H236  H     H_    0.904978 0.575148 0.075971 0.147625
H237  H     H_    0.858273 0.590840 0.100555 0.093927
H238  H     H_    0.959463 0.660988 0.169492 0.216068
H239  H     H_    0.913647 0.676950 0.197798 0.202114
H240  H     H_    0.927511 0.578076 0.267659 0.274866
H241  H     H_    0.986812 0.619421 0.316413 0.273411
H242  H     H_    0.973288 0.560391 0.239045 0.269290
H243  H     H_    0.418848 0.847658 0.031056 0.132150
H244  H     H_    0.398765 0.808531 0.092808 0.080127
H245  H     H_    0.348868 0.922569 0.983521 0.212946
H246  H     H_    0.241706 0.106732 0.438242 0.161403
H247  H     H_    0.330195 0.884620 0.049729 0.196905
H248  H     H_    0.418026 0.901488 0.186344 0.279394
H249  H     H_    0.386149 0.969506 0.132531 0.270141
H250  H     H_    0.436007 0.941692 0.120263 0.268252
H251  H     H_    0.619507 0.101327 0.036118 0.140842
H252  H     H_    0.656118 0.107624 0.988047 0.091177
H253  H     H_    0.553909 0.171769 0.925006 0.209316
H254  H     H_    0.589673 0.178899 0.873767 0.197574
H255  H     H_    0.579079 0.070001 0.840994 0.270948
H256  H     H_    0.518655 0.107876 0.790607 0.275933
H257  H     H_    0.693424 0.370435 0.882479 0.106450
H258  H     H_    0.541265 0.064027 0.889143 0.273896
H259  H     H_    0.591426 0.843262 0.007761 0.135905
H260  H     H_    0.611909 0.823177 0.936469 0.086233
H261  H     H_    0.668648 0.915222 0.089201 0.219260
H262  H     H_    0.679471 0.900825 0.002493 0.189111
H263  H     H_    0.590481 0.935087 0.888354 0.275980
H264  H     H_    0.628589 0.991303 0.970287 0.265442
H265  H     H_    0.580399 0.951163 0.976149 0.269207
H266  H     H_    0.401016 0.069113 0.063782 0.147327
H267  H     H_    0.354799 0.082889 0.090087 0.091131
H268  H     H_    0.301945 0.601592 0.090012 0.097225
H269  H     H_    0.458965 0.148470 0.169069 0.213568
H270  H     H_    0.413350 0.163234 0.198347 0.199760
H271  H     H_    0.421878 0.059581 0.253109 0.275245
H272  H     H_    0.482745 0.098200 0.309668 0.273113
H273  H     H_    0.468138 0.044487 0.224702 0.276986
H274  H     H_    0.307246 0.368976 0.105920 0.103863
H275  H     H_    0.697354 0.612153 0.898694 0.109687
H276  H     H_    0.192931 0.865839 0.883688 0.105229
H277  H     H_    0.802317 0.111953 0.097020 0.107490
H278  H     H_    0.806242 0.872089 0.103631 0.102648
H279  H     H_    0.521841 0.421490 0.770164 0.150945
H280  H     H_    0.197517 0.108298 0.901460 0.108846
H281  H     H_    0.558609 0.353249 0.886716 0.119007
H282  H     H_    0.443331 0.636970 0.114005 0.117247
H283  H     H_    0.451197 0.333269 0.141888 0.106355
H284  H     H_    0.559155 0.636193 0.890794 0.117289
H285  H     H_    0.055034 0.838450 0.873101 0.111258
H286  H     H_    0.943640 0.143921 0.119105 0.117523
H287  H     H_    0.949585 0.837955 0.136026 0.106570
H288  H     H_    0.058913 0.134241 0.891060 0.117240
H289  H     H_    0.405341 0.717998 0.010710 0.152074
H290  H     H_    0.022418 0.069872 0.772362 0.159075
H291  H     H_    0.596229 0.270975 0.989092 0.164965
H292  H     H_    0.598617 0.715888 0.998007 0.148876
H293  H     H_    0.419181 0.240040 0.064319 0.163851
H294  H     H_    0.909377 0.232388 0.030352 0.152086
H295  H     H_    0.087514 0.746773 0.954735 0.165253
H296  H     H_    0.098268 0.214124 0.997776 0.148978
H297  H     H_    0.917272 0.745121 0.057109 0.163906
H298  H     H_    0.678945 0.665483 0.756464 0.105551
H299  H     H_    0.652700 0.703807 0.655426 0.089167
H300  H     H_    0.763673 0.657978 0.780346 0.214439
H301  H     H_    0.981651 0.916704 0.236097 0.138758
H302  H     H_    0.740963 0.690832 0.674213 0.211542
H303  H     H_    0.720683 0.784339 0.723320 0.284649
H304  H     H_    0.787281 0.764389 0.796671 0.271138
H305  H     H_    0.743214 0.751048 0.830223 0.266143
H306  H     H_    0.293101 0.319541 0.244165 0.146112
H307  H     H_    0.302087 0.300960 0.345269 0.124474
H308  H     H_    0.385178 0.305238 0.299852 0.219466
H309  H     H_    0.399018 0.284886 0.406979 0.185961
H310  H     H_    0.336635 0.199946 0.336979 0.300002
H311  H     H_    0.387527 0.196451 0.317729 0.263997
H312  H     H_    0.977688 0.071326 0.227580 0.138538
H313  H     H_    0.324482 0.220304 0.230023 0.265736
H314  H     H_    0.397263 0.683420 0.336542 0.117169
H315  H     H_    0.365447 0.721438 0.380017 0.099890
H316  H     H_    0.305130 0.675730 0.189567 0.215744
H317  H     H_    0.286552 0.729145 0.239624 0.191451
H318  H     H_    0.358352 0.796960 0.263541 0.268151
H319  H     H_    0.310059 0.781552 0.148595 0.274482
H320  H     H_    0.371010 0.744462 0.202050 0.278856
H321  H     H_    0.739656 0.367150 0.765911 0.140129
H322  H     H_    0.730267 0.346149 0.664597 0.126511
H323  H     H_    0.020432 0.915385 0.766769 0.147345
H324  H     H_    0.660262 0.319028 0.733720 0.209257
H325  H     H_    0.642120 0.299344 0.623799 0.201577
H326  H     H_    0.721167 0.237453 0.687953 0.273452
H327  H     H_    0.681116 0.214924 0.726586 0.265581
H328  H     H_    0.738860 0.257300 0.798605 0.258596
H329  H     H_    0.179609 0.161135 0.759135 0.104485
H330  H     H_    0.154438 0.202028 0.660870 0.088948
H331  H     H_    0.264595 0.153368 0.783989 0.215791
H332  H     H_    0.243137 0.190515 0.681249 0.210731
H333  H     H_    0.223567 0.281078 0.738199 0.294155
H334  H     H_    0.769998 0.355261 0.949841 0.158099
H335  H     H_    0.289867 0.259525 0.809889 0.272930
H336  H     H_    0.245307 0.243318 0.841481 0.264954
H337  H     H_    0.799857 0.816234 0.244871 0.142563
H338  H     H_    0.806254 0.797037 0.344041 0.127788
H339  H     H_    0.894143 0.807659 0.311000 0.218028
H340  H     H_    0.903922 0.785456 0.414832 0.185642
H341  H     H_    0.845149 0.698573 0.339448 0.292169
H342  H     H_    0.899138 0.698657 0.328153 0.265831
H343  H     H_    0.836791 0.720535 0.235566 0.263289
H344  H     H_    0.865621 0.183767 0.278405 0.140295
N1    N     N_R   0.532970 0.559900 0.665210 -0.057333
N2    N     N_R   0.402100 0.440070 0.454470 -0.116724
N3    N     N_R   0.402100 0.559930 0.454470 -0.116729
N4    N     N_R   0.597900 0.440070 0.545530 -0.122208
N5    N     N_R   0.097900 0.059930 0.545530 -0.110417
N6    N     N_R   0.902100 0.940070 0.454470 -0.122156
N7    N     N_R   0.902100 0.059930 0.454470 -0.118717
N8    N     N_R   0.097900 0.940070 0.545530 -0.122817
N9    N     N_R   0.567170 0.559950 0.454460 -0.116571
N10   N     N_R   0.432830 0.440050 0.545540 -0.114701
N11   N     N_R   0.432830 0.559950 0.545540 -0.112847
N12   N     N_R   0.467030 0.440100 0.334790 -0.048517
N13   N     N_R   0.567170 0.440050 0.454460 -0.121336
N14   N     N_R   0.067170 0.059950 0.454460 -0.116545
N15   N     N_R   0.932830 0.940050 0.545540 -0.115149
N16   N     N_R   0.932830 0.059950 0.545540 -0.112536
N17   N     N_R   0.067170 0.940050 0.454460 -0.121020
N18   N     N_R   0.421470 0.559970 0.334770 -0.063325
N19   N     N_R   0.578530 0.440030 0.665230 -0.044920
N20   N     N_R   0.578530 0.559970 0.665230 -0.058768
N21   N     N_R   0.421470 0.440030 0.334770 -0.046889
N22   N     N_R   0.921470 0.059970 0.334770 -0.059177
N23   N     N_R   0.467030 0.559900 0.334790 -0.059907
N24   N     N_R   0.078530 0.940030 0.665230 -0.043980
N25   N     N_R   0.078530 0.059970 0.665230 -0.060009
N26   N     N_R   0.921470 0.940030 0.334770 -0.049743
N27   N     N_R   0.532970 0.440100 0.665210 -0.051588
N28   N     N_R   0.032970 0.059900 0.665210 -0.058876
N29   N     N_R   0.967030 0.940100 0.334790 -0.049353
N30   N     N_R   0.967030 0.059900 0.334790 -0.057859
N31   N     N_R   0.032970 0.940100 0.665210 -0.050231
N32   N     N_R   0.597900 0.559930 0.545530 -0.108763
Ni1   Ni    Ni4+2 0.483030 0.500000 0.604430 0.238417
Ni2   Ni    Ni4+2 0.516970 0.500000 0.395570 0.208956
Ni3   Ni    Ni4+2 0.983030 0.000000 0.604430 0.238213
Ni4   Ni    Ni4+2 0.016970 0.000000 0.395570 0.208486
Ni5   Ni    Ni4+2 0.587400 0.500000 0.604430 0.239303
Ni6   Ni    Ni4+2 0.412600 0.500000 0.395570 0.205751
Ni7   Ni    Ni4+2 0.087400 0.000000 0.604430 0.238043
Ni8   Ni    Ni4+2 0.912600 0.000000 0.395570 0.206309
O1    O     O_3   0.671978 0.613116 0.656533 -0.644999
O2    O     O_3   0.434473 0.388840 0.663551 -0.649420
O3    O     O_3   0.440093 0.610508 0.667144 -0.666911
O4    O     O_3   0.578696 0.414320 0.337806 -0.682138
O5    O     O_3   0.041941 0.134836 0.342227 -0.693921
O6    O     O_3   0.929345 0.894191 0.661608 -0.652519
O7    O     O_3   0.942577 0.113378 0.667367 -0.663322
O8    O     O_3   0.078126 0.916632 0.336969 -0.682282
O9    O     O_3   0.727268 0.444941 0.517629 -0.643154
O10   O     O_3   0.296998 0.598401 0.459509 -0.670945
O11   O     O_3   0.306235 0.424485 0.516616 -0.637643
O12   O     O_3   0.332695 0.382244 0.339136 -0.700837
O13   O     O_3   0.657563 0.599351 0.418380 -0.681687
O14   O     O_3   0.226968 0.944428 0.520818 -0.644982
O15   O     O_3   0.812223 0.093231 0.508435 -0.657250
O16   O     O_3   0.787576 0.918616 0.454635 -0.663245
O17   O     O_3   0.154216 0.102584 0.412946 -0.686946
O18   O     O_3   0.391398 0.859729 0.576921 -0.675675
O19   O     O_3   0.662137 0.173279 0.507626 -0.667312
O20   O     O_3   0.664768 0.863635 0.549896 -0.668970
O21   O     O_3   0.328719 0.149616 0.464244 -0.683881
O22   O     O_3   0.893370 0.360117 0.578847 -0.676615
O23   O     O_3   0.344841 0.631677 0.344628 -0.668755
O24   O     O_3   0.155142 0.673047 0.487063 -0.669805
O25   O     O_3   0.179375 0.355012 0.594020 -0.679377
O26   O     O_3   0.835391 0.648200 0.480900 -0.679699
O27   O     O_3   0.856109 0.324814 0.982332 -0.666439
O28   O     O_3   0.139891 0.655526 0.002344 -0.675734
O29   O     O_3   0.157860 0.302742 0.064462 -0.669596
O30   O     O_3   0.866113 0.652100 0.019792 -0.667339
O31   O     O_3   0.348555 0.807537 0.952154 -0.667596
O32   O     O_3   0.653051 0.182946 0.054947 -0.675360
O33   O     O_3   0.660480 0.801103 0.073404 -0.681438
O34   O     O_3   0.682841 0.413245 0.660323 -0.652212
O35   O     O_3   0.365537 0.149081 0.018402 -0.667951
O36   O     O_3   0.172839 0.111767 0.656622 -0.643100
O37   O     O_3   0.834090 0.880697 0.338994 -0.688652
O38   O     O_3   0.843270 0.130492 0.344483 -0.677070
O39   O     O_3   0.182054 0.909111 0.659501 -0.654751
O40   O     O_3   0.545462 0.630477 0.338945 -0.689542

loop_
_geom_bond_atom_site_label_1
_geom_bond_atom_site_label_2
_ccdc_geom_bond_type
C189  O22   S    
C189  H181  S    
C223  H223  S    
C7    C29   A    
C67   C300  A    
C198  H202  S    
C74   C83   A    
C240  H246  S    
C66   C85   S    
C227  H267  S    
C114  C115  S    
C41   C67   A    
C116  H343  S    
C115  H339  S    
C6    C291  A    
C91   O13   S    
C49   C60   A    
C237  C242  A    
C106  H322  S    
C14   C21   A    
C35   C124  A    
C205  H217  S    
C61   C82   S    
C138  H51   S    
C177  H153  S    
C106  C107  S    
C143  C144  S    
C240  C244  A    
C18   H2    S    
C260  C269  A    
C2    C90   A    
C195  H195  S    
C110  C111  S    
C71   C80   A    
C130  H33   S    
C11   C15   A    
C30   C302  A    
C133  H41   S    
C245  O22   S    
C176  H150  S    
N4    Ni5   S    
C50   H85   S    
C14   C290  A    
C199  O26   S    
C261  H301  S    
C243  O20   S    
C186  O21   S    
C192  H186  S    
C238  H235  S    
C205  H216  S    
C113  C201  A    
C172  H141  S    
C43   N18   A    
C129  H29   S    
C193  C194  S    
C47   C53   A    
C264  H295  S    
C144  H65   S    
C88   O10   S    
C137  C138  S    
C199  C200  S    
C227  O35   S    
C39   C65   A    
C256  C274  A    
C187  H175  S    
N7    Ni8   S    
C298  N5    A    
C209  H229  S    
C182  H163  S    
C37   C63   A    
C237  H224  S    
C38   C64   A    
C276  C285  A    
C3    C288  A    
C257  C275  A    
C68   C95   A    
C132  H38   S    
C278  C287  A    
C191  C192  S    
C108  H326  S    
C286  C303  A    
C42   N17   A    
C36   O2    S    
C140  C141  S    
C174  H145  S    
C212  C246  A    
C68   C240  A    
C211  H234  S    
N18   Ni6   S    
C206  C207  S    
C20   H24   S    
N31   Ni3   S    
C181  C182  S    
C73   C201  A    
C169  H131  S    
C34   C61   A    
C140  O6    S    
C82   C91   A    
C40   N15   A    
C120  H10   S    
C113  C146  A    
C7    C266  A    
C183  C184  S    
C136  H44   S    
C185  H172  S    
C196  H197  S    
N26   N29   A    
C7    C292  A    
C2    C233  A    
C148  H74   S    
C227  C228  S    
C253  C270  A    
C98   H305  S    
C75   H135  S    
C167  H130  S    
C161  H114  S    
C45   N20   A    
C103  O23   S    
C216  C217  S    
C218  H249  S    
C154  C155  S    
C300  O38   S    
C279  H274  S    
N7    N16   A    
C62   C81   S    
C119  H8    S    
C58   C261  A    
C76   C230  A    
C158  C159  S    
C242  O19   S    
C295  O12   S    
C165  H125  S    
C197  H198  S    
N25   N28   A    
C239  N27   A    
C215  H240  S    
N22   N30   A    
C181  H161  S    
C211  H232  S    
C260  C304  A    
C175  H149  S    
C162  H118  S    
C44   N19   A    
C208  H227  S    
C231  C247  A    
C29   O30   S    
C191  H184  S    
C299  N6    A    
C250  H290  S    
C133  O4    S    
C256  C282  A    
C276  H268  S    
C280  C289  A    
C45   C52   A    
C144  C145  S    
C183  H166  S    
C156  C158  S    
C130  C131  S    
C186  H174  S    
C80   C88   A    
C10   C16   A    
C268  H281  S    
C120  H9    S    
C33   O35   S    
C44   C55   A    
C164  H121  S    
C104  H317  S    
C281  H276  S    
C145  H70   S    
C180  H158  S    
C43   H78   S    
C100  H309  S    
C54   C249  S    
C103  H314  S    
C84   C93   A    
C42   C69   A    
C195  H193  S    
C102  H311  S    
C129  H31   S    
C49   H84   S    
C94   O16   S    
C107  H324  S    
C130  O3    S    
C284  C292  A    
C200  C202  S    
C188  H177  S    
C118  H5    S    
C111  H336  S    
C235  H201  S    
C34   O40   S    
C186  C187  S    
C216  H244  S    
C76   C85   A    
C221  H255  S    
C136  H45   S    
C98   H304  S    
C78   C87   A    
C163  H119  S    
C122  H16   S    
C32   C304  A    
C108  H328  S    
C147  C148  S    
C160  H111  S    
C128  C129  S    
C97   C98   S    
C54   C223  A    
C87   O9    S    
C258  C302  A    
C120  O39   S    
C217  H245  S    
C153  H95   S    
C69   C301  A    
C219  H252  S    
C184  H169  S    
C167  H129  S    
C160  O13   S    
C259  H291  S    
N25   Ni7   S    
C75   C84   A    
C15   C25   A    
C99   H306  S    
C116  H342  S    
C170  C171  S    
C155  H100  S    
C115  C116  S    
C106  O34   S    
C12   C22   A    
C254  C271  A    
C226  H263  S    
N15   Ni3   S    
C184  C185  S    
C232  H168  S    
C102  H313  S    
C189  C191  S    
C174  C175  S    
C44   H80   S    
C259  C268  A    
C171  H138  S    
C239  H279  S    
C5    C27   A    
C6    C28   A    
C150  H88   S    
C128  H27   S    
C126  H23   S    
C154  H97   S    
C107  C108  S    
C49   N24   A    
C96   O1    S    
C293  N32   A    
C185  H171  S    
C241  O18   S    
C166  H128  S    
N21   Ni6   S    
C246  O24   S    
N29   Ni4   S    
C263  C271  A    
C219  O32   S    
C105  H319  S    
C89   O11   S    
C126  H22   S    
C207  H221  S    
C172  H140  S    
N27   Ni1   S    
C72   C190  A    
C220  C221  S    
N5    N14   A    
C156  H104  S    
C63   C80   S    
C93   O15   S    
N32   Ni5   S    
C37   O3    S    
N14   Ni4   S    
C77   C231  A    
C200  H207  S    
N13   Ni2   S    
C250  N28   A    
C86   C95   A    
C10   C20   A    
N16   Ni3   S    
C222  C225  S    
N19   N27   A    
C217  C218  S    
C1    H1    S    
C238  C243  A    
C50   C56   A    
C143  O7    S    
C236  C241  A    
C159  H107  S    
C178  H156  S    
C110  H331  S    
C257  C284  A    
C214  H238  S    
C255  C281  A    
C277  H257  S    
C209  C210  S    
C60   C283  A    
C147  H71   S    
C225  H262  S    
C31   C303  A    
C210  H230  S    
C19   C28   A    
C52   C252  S    
C179  C241  A    
C136  H47   S    
C196  H196  S    
C4    C289  A    
N22   Ni8   S    
C75   C224  A    
C122  H14   S    
C16   C23   A    
C57   C94   A    
C56   C256  S    
N24   Ni7   S    
C263  H294  S    
C296  N3    A    
C235  C248  A    
C158  H106  S    
C293  O1    S    
C120  C121  S    
C157  C231  A    
C140  H55   S    
C155  H99   S    
C9    C17   A    
C203  O27   S    
C217  H247  S    
C297  N4    A    
C125  H20   S    
C218  H248  S    
C134  H42   S    
C64   C78   S    
C198  H203  S    
C266  H297  S    
C272  N30   A    
C211  H233  S    
C194  H191  S    
C193  O24   S    
C152  H93   S    
C74   H124  S    
C287  C304  A    
C98   H303  S    
C249  C267  A    
C208  H226  S    
C26   O27   S    
C196  O25   S    
C295  N2    A    
C117  C118  S    
C152  H92   S    
N17   Ni4   S    
C15   C291  A    
C114  H337  S    
C59   C272  A    
C194  C195  S    
N12   N21   A    
C197  C198  S    
C9    C12   A    
C236  H212  S    
C47   H82   S    
C149  H77   S    
C204  C205  S    
C145  H67   S    
C202  H209  S    
C64   C297  A    
C100  H308  S    
C150  C151  S    
C41   O7    S    
N3    Ni6   S    
C40   C66   A    
C143  H64   S    
C107  H325  S    
N11   Ni1   S    
C25   C33   A    
C144  H66   S    
C147  O8    S    
C190  C244  A    
C77   H157  S    
C127  H25   S    
C71   H90   S    
C269  H284  S    
C105  H318  S    
C209  H228  S    
C5    C290  A    
C149  H76   S    
C182  H164  S    
C161  C162  S    
C65   C86   S    
C41   N16   A    
C213  C214  S    
C24   C113  A    
C121  H12   S    
N30   Ni4   S    
C244  O21   S    
C11   C19   A    
C213  H237  S    
C48   C59   A    
C297  O34   S    
C195  H194  S    
C164  C165  S    
C225  C226  S    
C139  H54   S    
C160  H110  S    
C178  H154  S    
C146  C230  A    
C34   N9    A    
C36   C62   A    
C109  H330  S    
C123  C125  S    
C137  O5    S    
C3    C33   A    
C299  O37   S    
C170  O16   S    
C298  O36   S    
C51   N26   A    
C166  O15   S    
C46   C237  A    
C131  H36   S    
C252  C278  A    
C104  C105  S    
C253  C279  A    
C46   C135  A    
C254  C280  A    
C99   H307  S    
C229  H271  S    
C56   C250  A    
N2    Ni6   S    
C151  C152  S    
C203  H213  S    
C109  O36   S    
C248  O26   S    
C72   C81   A    
C247  O25   S    
C281  C290  A    
C141  H59   S    
C81   C89   A    
C35   C92   A    
C189  H182  S    
C101  C157  A    
C95   O17   S    
C119  H7    S    
C57   C146  A    
C206  H219  S    
C50   N25   A    
C114  O37   S    
C53   C253  S    
C19   H13   S    
C300  N7    A    
C223  N23   A    
C206  O28   S    
C115  H340  S    
N20   Ni5   S    
C87   C294  A    
C106  H321  S    
C207  C208  S    
C74   C212  A    
C205  H218  S    
C167  C169  S    
C72   H101  S    
C219  C220  S    
C138  H50   S    
N6    Ni8   S    
C124  C212  A    
C42   O8    S    
C151  H89   S    
C8    C18   A    
C27   O28   S    
C200  H206  S    
C213  H236  S    
C183  H165  S    
C251  C277  A    
C83   C92   A    
C70   C168  A    
C262  C270  A    
C96   H299  S    
C282  H280  S    
C164  H122  S    
C228  H269  S    
C145  H69   S    
C65   C298  A    
C3    C262  A    
C169  H133  S    
C142  H60   S    
C62   C295  A    
C249  C276  A    
C192  H185  S    
C51   C58   A    
C129  H30   S    
C121  C122  S    
C39   O5    S    
C262  H293  S    
C8    C285  A    
C191  H183  S    
C213  O30   S    
C101  C190  A    
C188  H178  S    
C233  H179  S    
C265  H296  S    
C111  H335  S    
C125  C126  S    
C127  H26   S    
C271  H286  S    
C187  H176  S    
C127  C128  S    
C73   C82   A    
C182  H162  S    
C1    N1    A    
C180  C181  S    
C47   N21   A    
N9    Ni2   S    
C73   H113  S    
C132  H37   S    
C215  H241  S    
C90   C124  A    
C272  H312  S    
C202  H208  S    
C21   H35   S    
C228  H270  S    
C139  H52   S    
C177  H152  S    
C206  H220  S    
C4    C26   A    
C79   C135  A    
C21   C30   A    
C169  H132  S    
C264  C273  A    
C219  H251  S    
C23   C32   A    
C131  H34   S    
C187  C188  S    
C109  C110  S    
C279  C288  A    
C137  H48   S    
C148  H73   S    
C175  H147  S    
C63   C296  A    
C161  H115  S    
C204  H215  S    
C203  H211  S    
C162  H116  S    
C17   H334  S    
C1    C52   A    
C138  C139  S    
C171  H137  S    
C216  O31   S    
C232  C294  A    
C112  N12   A    
C282  C291  A    
C31   O32   S    
C130  H32   S    
C177  C178  S    
C128  H28   S    
C25   H68   S    
C283  N31   A    
C103  C104  S    
C154  H98   S    
C199  H205  S    
C184  H167  S    
C137  H49   S    
C220  H254  S    
C165  H126  S    
C178  H155  S    
C123  H17   S    
C251  C268  A    
C197  H199  S    
C227  H266  S    
N9    N32   A    
N6    N15   A    
C171  C172  S    
C123  H18   S    
C165  H123  S    
N23   Ni2   S    
C70   C78   A    
C162  H117  S    
C175  H148  S    
C163  C164  S    
C260  H292  S    
C150  O9    S    
C273  H285  S    
C173  C174  S    
C147  H72   S    
C275  H287  S    
C135  C224  A    
C39   N14   A    
N3    N11   A    
C76   H146  S    
C9    C286  A    
C255  C273  A    
C17   C26   A    
C186  H173  S    
C11   C288  A    
C226  H265  S    
C79   C294  A    
C234  C247  A    
C233  C246  A    
N26   Ni8   S    
C153  O10   S    
C176  H151  S    
C71   C179  A    
C66   C299  A    
C196  C197  S    
C126  H21   S    
C192  H187  S    
C131  C132  S    
C232  C245  A    
N24   N31   A    
C151  H91   S    
N8    N17   A    
C102  H310  S    
C118  C119  S    
C112  H112  S    
C170  H136  S    
C117  H3    S    
C229  H273  S    
C188  H180  S    
C267  H282  S    
C118  H4    S    
C111  H333  S    
C5    C264  A    
N12   Ni2   S    
C221  H258  S    
C225  H261  S    
C296  O23   S    
C252  C269  A    
C79   C168  A    
C216  H243  S    
C208  H225  S    
C214  H239  S    
C266  C275  A    
C221  H256  S    
N1    Ni1   S    
C57   C238  A    
C222  H259  S    
C110  H332  S    
C270  H283  S    
C229  H272  S    
C163  H120  S    
C97   H300  S    
C67   C84   S    
C132  H39   S    
C123  O40   S    
C16   C292  A    
C59   C254  S    
C28   O29   S    
C114  H338  S    
C108  H327  S    
C159  H109  S    
C258  C267  A    
C99   O12   S    
C301  O39   S    
C92   O14   S    
C140  H56   S    
C155  H102  S    
C40   O6    S    
C20   C29   A    
C278  H275  S    
C153  H96   S    
C38   O4    S    
C22   C31   A    
C125  H19   S    
C58   C257  S    
C134  H43   S    
C199  H204  S    
C215  H242  S    
C148  C149  S    
C214  C215  S    
C258  H289  S    
C134  C136  S    
C116  H341  S    
C194  H192  S    
C12   C289  A    
C133  H40   S    
C48   N22   A    
C119  H6    S    
C60   C255  S    
N1    N20   A    
C174  H144  S    
C283  H323  S    
C70   H79   S    
C45   H81   S    
C69   C83   S    
C274  H288  S    
C85   C94   A    
C265  C274  A    
C99   C100  S    
C150  H87   S    
C284  H278  S    
C96   C97   S    
C218  H250  S    
C6    C265  A    
C100  C102  S    
C183  O20   S    
C222  H260  S    
C37   N11   A    
C43   C54   A    
C2    C88   A    
C166  H127  S    
C180  O19   S    
C96   H298  S    
C142  H61   S    
C53   C112  A    
C168  C242  A    
C176  C177  S    
C105  H320  S    
C77   C86   A    
C210  C211  S    
C202  H210  S    
C173  O17   S    
C166  C167  S    
C220  H253  S    
C51   H86   S    
C55   C251  S    
N10   Ni1   S    
C207  H222  S    
C172  H139  S    
C13   C101  A    
C23   H57   S    
C24   C91   A    
C143  H63   S    
C173  H142  S    
C104  H316  S    
C230  C248  A    
C156  H103  S    
C142  H62   S    
C234  H190  S    
C156  O11   S    
C36   N10   A    
C90   C179  A    
C8    C14   A    
C38   N13   A    
C193  H189  S    
C13   C89   A    
C127  O2    S    
C10   C287  A    
C18   C27   A    
C210  H231  S    
C198  H200  S    
C149  H75   S    
C301  N8    A    
C103  H315  S    
C48   H83   S    
C261  N29   A    
C121  H11   S    
C180  H159  S    
C277  C286  A    
C193  H188  S    
C61   C293  A    
C201  C243  A    
C285  C302  A    
C55   C239  A    
C160  C161  S    
C159  H108  S    
N18   N23   A    
C139  H53   S    
C24   C235  A    
C141  C142  S    
C170  H134  S    
C32   O33   S    
C22   H46   S    
C109  H329  S    
C133  C134  S    
C46   C93   A    
N2    N10   A    
C4    C263  A    
C30   O31   S    
N8    Ni7   S    
C259  C303  A    
C222  O33   S    
C173  H143  S    
C280  H277  S    
C163  O14   S    
C226  H264  S    
C117  O38   S    
C185  H170  S    
C228  C229  S    
C224  C245  A    
C122  H15   S    
C181  H160  S    
C97   H302  S    
C209  O29   S    
N19   Ni5   S    
N5    Ni7   S    
C204  H214  S    
C13   C234  A    
N28   Ni3   S    
C35   C236  A    
C203  C204  S    
C176  O18   S    
C153  C154  S    
C117  H344  S    
N4    N13   A    
C158  H105  S    
C68   C157  A    
C152  H94   S    
C141  H58   S    
