data_mof_unit_45349.cif
_audit_creation_date              2013-03-05T16:07:27-0500
_audit_creation_method            fapswitch 2.2
_symmetry_space_group_name_H-M    P1
_symmetry_Int_Tables_number       1
_space_group_crystal_system       triclinic
_cell_length_a                    19.360363
_cell_length_b                    7.103291
_cell_length_c                    17.697492
_cell_angle_alpha                 89.80127
_cell_angle_beta                  108.680254
_cell_angle_gamma                 90.482575
_cell_volume                      2305.50630034

loop_
_atom_site_label
_atom_site_type_symbol
_atom_site_description
_atom_site_fract_x
_atom_site_fract_y
_atom_site_fract_z
_atom_type_partial_charge
O1    O     O_R   0.413720 0.494330 0.415730 -0.595475
O2    O     O_R   0.586280 0.994330 0.584270 -0.576638
O3    O     O_R   0.560210 0.819300 0.430070 -0.567781
O4    O     O_R   0.439790 0.319300 0.569930 -0.584906
C1    C     C_R   0.582819 0.656383 0.416154 1.020860
C2    C     C_R   0.417497 0.154454 0.584186 1.018296
O5    O     O_R   0.412670 0.823730 0.406310 -0.592881
O6    O     O_R   0.587330 0.323730 0.593690 -0.608113
O7    O     O_R   0.437690 0.998790 0.560340 -0.566094
O8    O     O_R   0.562310 0.498790 0.439660 -0.591451
C3    C     C_R   0.385240 0.654997 0.383740 1.011686
C4    C     C_R   0.614752 0.155746 0.616315 0.990384
O9    O     O_3   0.508380 0.662350 0.550560 -0.278196
O10   O     O_3   0.491620 0.162350 0.449440 -0.283736
V1    V     V_3+5 0.498450 0.935370 0.490620 1.258744
V2    V     V_3+5 0.501550 0.435370 0.509380 1.229464
C5    C     C_R   0.696047 0.998782 0.740103 0.113348
C6    C     C_R   0.301925 0.492704 0.262144 0.142800
C7    C     C_R   0.682110 0.148847 0.686143 -0.177618
C8    C     C_R   0.317815 0.646677 0.314047 -0.219116
C9    C     C_R   0.733586 0.297408 0.703197 -0.091318
C10   C     C_R   0.268286 0.797331 0.295520 -0.099548
H1    H     H_    0.724780 0.419370 0.664604 0.126358
H2    H     H_    0.278470 0.920824 0.333066 0.162764
C11   C     C_R   0.799459 0.284189 0.767336 -0.080253
C12   C     C_R   0.202407 0.784516 0.231647 -0.094271
H3    H     H_    0.839174 0.396955 0.776213 0.114890
H4    H     H_    0.163759 0.898188 0.222431 0.134434
C13   C     C_R   0.815478 0.122927 0.816764 -0.245564
C14   C     C_R   0.184818 0.622757 0.182967 -0.272394
C15   C     C_R   0.759963 0.987216 0.804314 0.191613
C16   C     C_R   0.238167 0.482454 0.197068 0.219390
C17   C     C_3   0.760737 0.777088 0.799101 0.139173
C18   C     C_3   0.232540 0.274383 0.206999 0.140543
C19   C     C_3   0.691292 0.791608 0.727255 -0.571076
C20   C     C_3   0.301092 0.287555 0.279639 -0.616165
H5    H     H_    0.808748 0.720462 0.785521 0.056199
H6    H     H_    0.182439 0.231047 0.220568 0.059958
H7    H     H_    0.641559 0.730510 0.736522 0.236944
H8    H     H_    0.349526 0.214090 0.273651 0.243600
H9    H     H_    0.699616 0.751914 0.670111 0.204890
H10   H     H_    0.290315 0.260299 0.336769 0.194108
C21   C     C_R   0.317461 0.993152 0.625334 0.308076
C22   C     C_R   0.686049 0.795441 0.374379 0.304488
C23   C     C_R   0.367700 0.143951 0.632876 -0.323243
C24   C     C_R   0.633557 0.650974 0.368495 -0.321038
C25   C     C_R   0.370967 0.287631 0.688091 -0.142402
C26   C     C_R   0.628083 0.502015 0.315105 -0.136562
C27   C     C_R   0.325568 0.284527 0.735660 0.087745
C28   C     C_R   0.672945 0.495165 0.266809 0.096761
C29   C     C_R   0.275658 0.135603 0.728886 0.042774
C30   C     C_R   0.724722 0.638551 0.271452 0.043918
C31   C     C_R   0.271562 0.988527 0.673666 -0.003512
C32   C     C_R   0.731452 0.789844 0.325435 0.000543
C33   C     C_R   0.330898 0.427321 0.791215 -0.263186
C34   C     C_R   0.665027 0.348538 0.212339 -0.255571
C35   C     C_R   0.287701 0.425051 0.841215 0.361059
C36   C     C_R   0.707268 0.341515 0.161320 0.357606
C37   C     C_R   0.233683 0.281536 0.832601 -0.192447
C38   C     C_R   0.763127 0.479008 0.167854 -0.192831
C39   C     C_R   0.229261 0.134746 0.776751 0.034182
C40   C     C_R   0.770280 0.629797 0.222627 0.032130
C41   C     C_R   0.178267 0.986681 0.768108 0.221775
C42   C     C_R   0.823013 0.772705 0.229026 0.223205
C43   C     C_R   0.174576 0.841480 0.713577 -0.192003
C44   C     C_R   0.829351 0.921761 0.282484 -0.184528
C45   C     C_R   0.220456 0.842263 0.666903 -0.149341
C46   C     C_R   0.784459 0.930155 0.330189 -0.150281
C47   C     C_R   0.183739 0.279813 0.876925 0.359475
C48   C     C_R   0.812290 0.471284 0.122541 0.351687
C49   C     C_R   0.133570 0.127629 0.868722 -0.306161
C50   C     C_R   0.864949 0.616731 0.129521 -0.280043
C51   C     C_R   0.131400 0.984469 0.813834 -0.187235
C52   C     C_R   0.869275 0.765281 0.182542 -0.185082
H11   H     H_    0.409947 0.402016 0.694881 0.177005
H12   H     H_    0.587463 0.392457 0.309951 0.170505
H13   H     H_    0.371130 0.538680 0.798142 0.182143
H14   H     H_    0.623422 0.241569 0.206990 0.182572
H15   H     H_    0.091322 0.872274 0.805004 0.166439
H16   H     H_    0.910635 0.873575 0.189370 0.158239
H17   H     H_    0.135880 0.726563 0.706859 0.132265
H18   H     H_    0.869499 0.032434 0.287695 0.131464
H19   H     H_    0.215027 0.727846 0.625169 0.176492
H20   H     H_    0.792175 0.047089 0.371109 0.175883
O11   O     O_R   0.937800 0.775460 0.060470 -0.565731
O12   O     O_R   0.062200 0.275460 0.939530 -0.570106
O13   O     O_R   0.087350 0.441340 0.093710 -0.595668
O14   O     O_R   0.912650 0.941340 0.906290 -0.608411
C53   C     C_R   0.114921 0.610390 0.116247 0.997575
C54   C     C_R   0.885130 0.109990 0.883698 0.983383
O15   O     O_R   0.939820 0.446010 0.069950 -0.584328
O16   O     O_R   0.060180 0.946010 0.930050 -0.564419
O17   O     O_R   0.913690 0.271230 0.915700 -0.574321
O18   O     O_R   0.086310 0.771230 0.084300 -0.561952
C55   C     C_R   0.917227 0.612949 0.083305 1.007607
C56   C     C_R   0.082268 0.115684 0.916078 1.032176
O19   O     O_3   0.991670 0.603050 0.949510 -0.283576
O20   O     O_3   0.008330 0.103050 0.050490 -0.274964
V3    V     V_3+5 0.001550 0.329940 0.009370 1.277907
V4    V     V_3+5 0.998450 0.829940 0.990630 1.276483
N1    N     N_R   0.304343 0.561285 0.904114 0.266656
O21   O     O_R   0.307230 0.739111 0.887331 -0.354132
O22   O     O_R   0.334539 0.505684 0.977375 -0.279193
N2    N     N_R   0.688132 0.201522 0.099850 0.267963
O23   O     O_R   0.682109 0.026089 0.118430 -0.351019
O24   O     O_R   0.659589 0.253921 0.025895 -0.279546
N3    N     N_R   0.180491 0.437162 0.925984 0.252894
O25   O     O_R   0.150522 0.592783 0.893090 -0.409352
O26   O     O_R   0.201425 0.420512 0.003133 -0.316007
N4    N     N_R   0.811403 0.312983 0.072262 0.255153
O27   O     O_R   0.795379 0.335242 0.995650 -0.290233
O28   O     O_R   0.835612 0.151463 0.104055 -0.398984
N5    N     N_R   0.747274 0.686678 0.867487 0.272763
O29   O     O_R   0.774258 0.758179 0.938596 -0.334615
O30   O     O_R   0.713033 0.525786 0.858573 -0.322972
N6    N     N_R   0.244001 0.170923 0.140619 0.277339
O31   O     O_R   0.191648 0.067291 0.094985 -0.368086
O32   O     O_R   0.303754 0.192462 0.122594 -0.303040
N7    N     N_R   0.310437 0.850614 0.566101 0.229437
O33   O     O_R   0.331270 0.679373 0.587325 -0.425360
O34   O     O_R   0.284941 0.893322 0.490769 -0.451446
N8    N     N_R   0.695308 0.942503 0.432298 0.228804
O35   O     O_R   0.714888 0.901711 0.507920 -0.440825
O36   O     O_R   0.679405 0.115410 0.409316 -0.428678

loop_
_geom_bond_atom_site_label_1
_geom_bond_atom_site_label_2
_geom_bond_distance
_ccdc_geom_bond_type
C44   C46   1.393892 A    
C41   C43   1.400626 A    
C45   H19   1.081703 S    
N1    O21   1.301430 A    
C2    C23   1.485948 S    
C26   H12   1.084731 S    
C20   H10   1.111914 S    
O1    C3    1.316502 A    
O2    C4    1.316716 A    
C2    O7    1.292202 A    
N2    O24   1.301424 A    
C47   N3    1.431750 S    
C25   C27   1.398319 A    
O5    C3    1.317133 A    
C7    C9    1.410576 A    
C33   H13   1.084698 S    
C35   C37   1.427314 A    
C32   C46   1.407704 A    
C18   N6    1.464617 S    
O16   C56   1.324246 A    
C34   H14   1.084649 S    
N6    O31   1.299481 A    
C38   C40   1.422944 A    
C22   N8    1.435494 S    
C53   O18   1.318085 A    
C47   C49   1.423428 A    
N4    O27   1.299795 A    
N2    O23   1.301493 A    
C40   C42   1.412400 A    
C48   N4    1.432934 S    
N4    O28   1.299336 A    
C17   C19   1.530141 S    
C50   C55   1.491645 S    
C21   C31   1.417251 A    
C30   C32   1.417629 A    
C27   C29   1.405909 A    
C29   C39   1.418363 A    
C28   C30   1.406973 A    
N3    O25   1.299017 A    
C15   C17   1.496263 S    
O18   V4    2.004057 S    
O17   V3    2.000484 S    
C18   C20   1.525986 S    
C26   C28   1.401365 A    
O6    V2    2.009943 S    
C52   H16   1.084351 S    
N3    O26   1.299085 A    
C14   C53   1.486046 S    
C19   H9    1.111467 S    
C13   C54   1.485978 S    
O19   V3    2.187365 S    
C22   C24   1.418490 A    
O13   V3    2.002791 S    
C23   C25   1.402386 A    
C11   C13   1.413790 A    
C24   C26   1.401591 A    
C3    C8    1.482093 S    
C37   C39   1.422295 A    
C46   H20   1.081411 S    
C20   H8    1.111371 S    
C50   C52   1.398554 A    
N6    O32   1.302500 A    
C49   C51   1.399801 A    
C49   C56   1.492432 S    
C41   C51   1.395859 A    
C43   C45   1.393265 A    
C27   C33   1.395095 A    
C28   C34   1.395406 A    
C29   C31   1.417322 A    
C42   C44   1.400554 A    
O4    V2    2.013895 S    
C19   H7    1.111737 S    
O2    V1    2.000312 S    
C44   H18   1.083973 S    
C43   H17   1.083991 S    
C38   C48   1.429048 A    
O6    C4    1.318023 A    
C39   C41   1.411080 A    
C51   H15   1.083694 S    
O1    V2    2.003898 S    
O12   V3    1.999208 S    
C21   C23   1.418282 A    
O14   V4    2.009746 S    
N7    O34   1.300470 A    
O12   C56   1.313500 A    
C37   C47   1.426878 A    
O4    C2    1.296241 A    
C8    C10   1.409131 A    
C12   C14   1.410948 A    
O20   V4    2.191023 S    
C9    H1    1.081606 S    
C5    C15   1.389119 A    
C10   H2    1.080318 S    
C36   N2    1.432729 S    
N8    O36   1.300545 A    
O19   V4    1.757172 S    
O3    V1    2.025152 S    
O16   V4    2.013835 S    
C54   O17   1.315870 A    
N5    O29   1.301310 A    
C9    C11   1.413385 A    
C18   H6    1.112162 S    
C17   N5    1.462520 S    
O14   C54   1.322816 A    
O3    C1    1.292680 A    
C48   C50   1.422846 A    
N7    O33   1.300533 A    
C11   H3    1.081954 S    
C35   N1    1.432437 S    
C1    C24   1.486416 S    
C12   H4    1.081436 S    
C33   C35   1.398693 A    
O7    V1    2.012878 S    
C25   H11   1.084607 S    
C1    O8    1.295729 A    
C13   C15   1.401900 A    
O11   V4    1.993714 S    
C30   C40   1.420548 A    
C14   C16   1.404564 A    
O11   C55   1.321606 A    
C6    C20   1.489737 S    
C4    C7    1.482741 S    
O5    V1    2.002976 S    
C5    C7    1.397759 A    
C34   C36   1.400172 A    
C6    C8    1.398163 A    
C31   C45   1.407279 A    
C17   H5    1.110671 S    
O15   C55   1.315387 A    
C22   C32   1.418826 A    
C6    C16   1.394200 A    
N1    O22   1.301378 A    
O20   V3    1.754569 S    
C10   C12   1.409987 A    
O9    V2    1.758114 S    
C21   N7    1.433958 S    
O13   C53   1.319887 A    
C42   C52   1.398140 A    
O10   V1    1.755519 S    
O8    V2    2.006518 S    
C5    C19   1.487439 S    
O15   V3    2.025091 S    
N8    O35   1.301117 A    
C36   C38   1.428168 A    
C16   C18   1.494976 S    
N5    O30   1.300759 A    
