data_mof_unit_15360.cif
_audit_creation_date              2012-12-10T16:54:56-0500
_audit_creation_method            fapswitch 2.2
_symmetry_space_group_name_H-M    P1
_symmetry_Int_Tables_number       1
_space_group_crystal_system       triclinic
_cell_length_a                    7.876586
_cell_length_b                    8.590677
_cell_length_c                    15.695516
_cell_angle_alpha                 90.773897
_cell_angle_beta                  88.269685
_cell_angle_gamma                 93.484121
_cell_volume                      1059.52145646

loop_
_atom_site_label
_atom_site_type_symbol
_atom_type_description
_atom_site_fract_x
_atom_site_fract_y
_atom_site_fract_z
_atom_type_partial_charge
C1    C     C_R   0.545162 0.794050 0.497785 0.959302
C2    C     C_3   0.320916 0.565670 0.043309 -0.371127
C3    C     C_3   0.484958 0.507742 0.083334 -0.130474
C4    C     C_3   0.525608 0.343469 0.047066 0.264178
C5    C     C_3   0.559739 0.354399 0.949611 -0.449907
C6    C     C_1   0.472402 0.500693 0.175051 0.132050
C7    C     C_1   0.530133 0.515898 0.824866 0.125693
C8    C     C_1   0.522269 0.509661 0.749572 -0.076335
C9    C     C_2   0.568495 0.957827 0.496463 -0.329359
C10   C     C_2   0.431472 0.042158 0.503248 -0.333471
C11   C     C_R   0.506024 0.501936 0.661111 0.875482
C12   C     C_R   0.454825 0.205945 0.502110 0.953547
C13   C     C_R   0.494040 0.498485 0.338886 0.907014
C14   C     C_3   0.333740 0.552976 0.943976 0.473609
C15   C     C_3   0.637033 0.649746 0.959622 0.128862
C16   C     C_3   0.640960 0.620279 0.057079 0.103615
C17   C     C_1   0.478999 0.498210 0.250350 -0.045091
C18   C     C_3   0.519191 0.518283 0.917007 -0.119476
H1    H     H_    0.306003 0.688989 0.062232 0.240854
H2    H     H_    0.204616 0.502074 0.068967 0.256381
H3    H     H_    0.646865 0.310533 0.074806 0.130207
H4    H     H_    0.698093 0.008493 0.489954 0.188232
H5    H     H_    0.301873 0.991489 0.509737 0.188111
H6    H     H_    0.010652 0.382828 0.436593 0.203541
H7    H     H_    0.989349 0.617153 0.563421 0.208846
H8    H     H_    0.582021 0.763774 0.951713 0.185796
H9    H     H_    0.756042 0.557644 0.071038 0.140860
H10   H     H_    0.486441 0.260059 0.915121 0.259875
H11   H     H_    0.696122 0.335222 0.935065 0.231920
N1    N     N_2   0.950340 0.457950 0.477370 -0.167436
N2    N     N_2   0.049660 0.542050 0.522630 -0.163000
O1    O     O_R   0.389240 0.738570 0.505550 -0.611980
O2    O     O_R   0.678400 0.711630 0.491050 -0.621314
O3    O     O_R   0.355360 0.513470 0.630110 -0.582060
O4    O     O_R   0.644510 0.486530 0.615610 -0.615256
O5    O     O_R   0.321600 0.288370 0.508950 -0.624605
O6    O     O_R   0.610760 0.261430 0.494450 -0.612515
O7    O     O_R   0.355490 0.513470 0.384390 -0.622299
O8    O     O_R   0.644640 0.486530 0.369890 -0.590368
Zn1   Zn    Zn3+2 0.306930 0.517990 0.509680 1.000344
Zn2   Zn    Zn3+2 0.693070 0.482010 0.490320 0.998900
Br1   Br    Br    0.172426 0.388503 0.901950 -0.288353
Br2   Br    Br    0.277450 0.749785 0.889815 -0.306903
S1    S     S_3+6 0.845368 0.680910 0.913027 0.088384
O9    O     O_2   0.970555 0.675851 0.982894 -0.252750
O10   O     O_2   0.882149 0.560682 0.845768 -0.257075
O11   O     O_3   0.864043 0.858617 0.868852 -0.436720
H12   H     H_    0.779234 0.854454 0.823412 0.343731
S2    S     S_3+6 0.665899 0.799704 0.119133 0.083145
O12   O     O_2   0.739022 0.932146 0.065146 -0.210001
O13   O     O_2   0.498436 0.842593 0.158006 -0.215106
O14   O     O_3   0.799349 0.772256 0.198469 -0.530104
H13   H     H_    0.911050 0.757723 0.169691 0.371588
S3    S     S_3+6 0.375459 0.184583 0.078286 0.091952
O15   O     O_2   0.406419 0.044552 0.022898 -0.212163
O16   O     O_2   0.406612 0.145811 0.169340 -0.257020
O17   O     O_3   0.170599 0.225498 0.071482 -0.519701
H14   H     H_    0.104636 0.127749 0.087280 0.415951

loop_
_geom_bond_atom_site_label_1
_geom_bond_atom_site_label_2
_ccdc_geom_bond_type
H7    N2    S    
C15   C18   S    
N1    Zn2   S    
C10   H5    S    
C12   O5    A    
C5    H10   S    
C9    C10   D    
C14   C18   S    
O11   H12   S    
C11   O3    A    
S1    O11   S    
C13   C17   S    
C14   Br1   S    
C7    C18   S    
O2    Zn2   S    
S2    O14   S    
C16   H9    S    
C11   O4    A    
C2    C3    S    
O17   H14   S    
C1    O2    A    
C7    C8    T    
O8    Zn2   S    
C16   S2    S    
O7    Zn1   S    
C4    H3    S    
C13   O7    A    
C10   C12   S    
C8    C11   S    
C2    C14   S    
S1    O10   D    
C15   S1    S    
C5    H11   S    
O1    Zn1   S    
O6    Zn2   S    
N1    N2    D    
O4    Zn2   S    
S3    O16   D    
C9    H4    S    
C13   O8    A    
H6    N1    S    
C3    C16   S    
C2    H2    S    
C3    C4    S    
O5    Zn1   S    
C1    C9    S    
O14   H13   S    
C14   Br2   S    
S2    O12   D    
C3    C6    S    
C12   O6    A    
C6    C17   T    
S3    O15   D    
O3    Zn1   S    
C15   H8    S    
C5    C18   S    
C4    S3    S    
N2    Zn1   S    
C2    H1    S    
C1    O1    A    
S1    O9    D    
C15   C16   S    
C4    C5    S    
S2    O13   D    
S3    O17   S    
