data_mof_unit_55173.cif
_audit_creation_date              2012-12-10T17:18:54-0500
_audit_creation_method            fapswitch 2.2
_symmetry_space_group_name_H-M    P1
_symmetry_Int_Tables_number       1
_space_group_crystal_system       triclinic
_cell_length_a                    9.571603
_cell_length_b                    10.85791
_cell_length_c                    13.442055
_cell_angle_alpha                 92.909733
_cell_angle_beta                  73.75206
_cell_angle_gamma                 89.372979
_cell_volume                      1339.01435547

loop_
_atom_site_label
_atom_site_type_symbol
_atom_type_description
_atom_site_fract_x
_atom_site_fract_y
_atom_site_fract_z
_atom_type_partial_charge
C1    C     C_R   0.499990 0.737727 0.495021 0.812488
C2    C     C_R   0.433880 0.443575 0.975627 0.057883
C3    C     C_R   0.478887 0.437856 0.865901 0.059354
C4    C     C_R   0.541422 0.436616 0.029639 0.070070
C5    C     C_R   0.684659 0.395673 0.975626 0.179255
C6    C     C_R   0.719104 0.363589 0.869673 -0.257097
C7    C     C_R   0.618186 0.385171 0.815113 -0.199660
C8    C     C_R   0.512867 0.479213 0.133899 -0.276844
C9    C     C_R   0.759118 0.424686 0.133276 -0.207574
C10   C     C_R   0.380714 0.481424 0.812257 -0.106261
C11   C     C_R   0.235188 0.889989 0.485104 -0.233165
C12   C     C_R   0.423638 0.494035 0.699325 0.794819
C13   C     C_R   0.102079 0.954634 0.516424 -0.166085
C14   C     C_R   0.091846 0.071103 0.566460 0.227166
C15   C     C_R   0.219228 0.126892 0.575648 -0.190122
C16   C     C_R   0.357323 0.067312 0.533431 0.066177
C17   C     C_R   0.362556 0.940951 0.503093 0.098451
C18   C     C_R   0.495057 0.872591 0.491828 -0.113090
C19   C     C_R   0.622887 0.935309 0.489839 -0.213825
C20   C     C_R   0.621710 0.062575 0.498555 -0.215005
C21   C     C_R   0.490530 0.129877 0.518481 -0.104947
C22   C     C_R   0.906656 0.321427 0.375087 -0.158763
C23   C     C_R   0.496679 0.263303 0.508479 0.774773
C24   C     C_R   0.998224 0.222989 0.326790 -0.204538
C25   C     C_R   0.142250 0.222080 0.327358 -0.183714
C26   C     C_R   0.194585 0.320413 0.375237 -0.151006
C27   C     C_R   0.099779 0.411853 0.438660 0.203775
C28   C     C_R   0.950197 0.412078 0.438634 0.210865
C29   C     C_R   0.901755 0.583489 0.559133 -0.069855
C30   C     C_R   0.049887 0.583470 0.559091 -0.090597
C31   C     C_R   0.577135 0.495002 0.300038 0.781897
C32   C     C_R   0.791710 0.388260 0.028121 -0.204571
C33   C     C_R   0.619201 0.470298 0.186864 -0.040785
C34   C     C_R   0.238337 0.518075 0.868743 -0.233774
C35   C     C_R   0.188510 0.499769 0.974005 -0.166014
C36   C     C_R   0.282458 0.451785 0.026237 0.138029
Cu1   Cu    Cu3+1 0.359340 0.500010 0.500010 0.917459
Cu2   Cu    Cu3+1 0.640660 0.499990 0.499990 0.926349
H1    H     H_    0.842529 0.415331 0.172836 0.149120
H2    H     H_    0.236128 0.803244 0.442273 0.181173
H3    H     H_    0.006139 0.913056 0.502952 0.138093
H4    H     H_    0.208664 0.215925 0.617197 0.155732
H5    H     H_    0.724286 0.108208 0.489218 0.192172
H6    H     H_    0.826483 0.651775 0.607613 0.142278
H7    H     H_    0.804240 0.323297 0.358776 0.195675
H8    H     H_    0.959118 0.150773 0.283698 0.145640
H9    H     H_    0.216289 0.149472 0.284101 0.152862
H10   H     H_    0.309991 0.322030 0.357781 0.197072
H11   H     H_    0.826206 0.326258 0.828009 0.139506
H12   H     H_    0.085533 0.651743 0.607500 0.144372
H13   H     H_    0.900511 0.354481 0.987494 0.130062
H14   H     H_    0.407644 0.520870 0.174317 0.154818
H15   H     H_    0.161999 0.553320 0.830238 0.163320
H16   H     H_    0.073420 0.512312 0.012720 0.145593
H17   H     H_    0.650859 0.356163 0.733870 0.186516
H18   H     H_    0.725460 0.886030 0.479449 0.162686
N1    N     N_R   0.852480 0.498790 0.499000 -0.200662
N2    N     N_R   0.148360 0.498710 0.498970 -0.202623
O1    O     O_R   0.381190 0.680360 0.500010 -0.590145
O2    O     O_R   0.618760 0.680340 0.500000 -0.578906
O3    O     O_R   0.323240 0.499990 0.650990 -0.581790
O4    O     O_R   0.560820 0.499960 0.650980 -0.584095
O5    O     O_R   0.381240 0.319660 0.500000 -0.604823
O6    O     O_R   0.618810 0.319640 0.499990 -0.601774
O7    O     O_R   0.439180 0.500040 0.349020 -0.603145
O8    O     O_R   0.676760 0.500010 0.349010 -0.598529
N3    N     N_3   0.952709 0.133991 0.602630 -0.598530
H19   H     H_    0.889110 0.085930 0.663980 0.206996
H20   H     H_    0.963921 0.222882 0.632723 0.208058
C37   C     C_3   0.215867 0.366202 0.110922 -0.413447
C38   C     C_3   0.185868 0.242616 0.061460 -0.814904
H21   H     H_    0.141128 0.176383 0.121325 0.236435
H22   H     H_    0.106304 0.255161 0.016410 0.244379
H23   H     H_    0.288451 0.201422 0.008737 0.252926
H24   H     H_    0.289290 0.346470 0.158762 0.213344
H25   H     H_    0.113098 0.407620 0.163170 0.203025

loop_
_geom_bond_atom_site_label_1
_geom_bond_atom_site_label_2
_ccdc_geom_bond_type
C19   H18   S    
C31   O8    A    
C16   C21   A    
C35   C36   A    
C7    H17   S    
C4    C8    A    
C13   H3    S    
C28   N1    A    
C26   C27   A    
Cu1   Cu2   S    
C34   C35   A    
C3    C7    A    
C1    O1    A    
C5    C6    A    
C15   C16   A    
C9    H1    S    
C18   C19   A    
C9    C32   A    
Cu2   O8    S    
C16   C17   A    
Cu1   O7    S    
C14   N3    S    
C31   C33   S    
C37   C38   S    
C8    H14   S    
Cu1   N2    S    
C26   H10   S    
C5    C32   A    
C23   O5    A    
C30   H12   S    
C22   C28   A    
C13   C14   A    
C35   H16   S    
C9    C33   A    
Cu1   O5    S    
C36   C37   S    
Cu2   O6    S    
N3    H19   S    
C24   C25   A    
C1    O2    A    
C38   H22   S    
C25   C26   A    
N3    H20   S    
C2    C4    A    
C32   H13   S    
C29   C30   A    
Cu2   N1    S    
C12   O4    A    
C17   C18   A    
C1    C18   S    
C10   C34   A    
Cu1   O1    S    
C10   C12   S    
Cu2   O2    S    
C23   O6    A    
C29   N1    A    
C21   C23   S    
C29   H6    S    
C37   H25   S    
C22   C24   A    
C27   C28   A    
C20   H5    S    
C2    C36   A    
C31   O7    A    
C25   H9    S    
C11   C17   A    
C15   H4    S    
C4    C5    A    
C27   N2    A    
C38   H23   S    
Cu1   O3    S    
C6    C7    A    
C24   H8    S    
C19   C20   A    
C2    C3    A    
C38   H21   S    
C3    C10   A    
C12   O3    A    
C11   C13   A    
C30   N2    A    
C8    C33   A    
C6    H11   S    
C11   H2    S    
C22   H7    S    
C20   C21   A    
C34   H15   S    
C37   H24   S    
C14   C15   A    
Cu2   O4    S    
