data_mof_unit_25125.cif
_audit_creation_date              2012-12-10T17:35:46-0500
_audit_creation_method            fapswitch 2.2
_symmetry_space_group_name_H-M    P1
_symmetry_Int_Tables_number       1
_space_group_crystal_system       triclinic
_cell_length_a                    10.533463
_cell_length_b                    12.13509
_cell_length_c                    12.823483
_cell_angle_alpha                 94.861577
_cell_angle_beta                  92.51058
_cell_angle_gamma                 88.390994
_cell_volume                      1631.20189114

loop_
_atom_site_label
_atom_site_type_symbol
_atom_type_description
_atom_site_fract_x
_atom_site_fract_y
_atom_site_fract_z
_atom_type_partial_charge
C1    C     C_R   0.495421 0.522534 0.700225 0.921298
C2    C     C_R   0.499638 0.476755 0.300262 0.908370
C3    C     C_R   0.425327 0.463632 0.866259 0.481109
C4    C     C_R   0.569227 0.523579 0.132767 0.466559
C5    C     C_R   0.445683 0.462607 0.974832 -0.006744
C6    C     C_R   0.541489 0.529669 0.026594 0.009217
C7    C     C_R   0.394339 0.945249 0.387168 0.444495
C8    C     C_R   0.637383 0.051740 0.585402 0.435917
C9    C     C_R   0.392109 0.833611 0.408742 0.261412
C10   C     C_R   0.611724 0.165998 0.587813 0.216094
C11   C     C_R   0.565204 0.860541 0.531846 0.611794
C12   C     C_R   0.459846 0.138173 0.446342 0.603017
C13   C     C_R   0.556042 0.977424 0.525629 -0.306880
C14   C     C_R   0.467289 0.020996 0.453276 -0.312910
C15   C     C_R   0.741848 0.502125 0.500026 0.957831
C16   C     C_R   0.257812 0.498193 0.501438 0.963223
C17   C     C_3   0.960315 0.497681 0.600606 -0.384381
C18   C     C_3   0.037792 0.502839 0.401601 -0.456871
C19   C     C_3   0.043781 0.586046 0.560479 0.547496
C20   C     C_3   0.954226 0.414351 0.441903 0.521423
C21   C     C_3   0.122487 0.494658 0.502373 -0.222863
C22   C     C_3   0.876498 0.506020 0.500201 -0.240859
C23   C     C_3   0.039266 0.405248 0.541309 0.254121
C24   C     C_3   0.958933 0.595070 0.461242 0.263979
C25   C     C_R   0.492697 0.460135 0.188892 -0.125279
C26   C     C_R   0.495742 0.536009 0.812773 -0.103878
C27   C     C_R   0.607199 0.602909 0.972033 -0.153692
C28   C     C_R   0.373726 0.395700 0.032595 -0.178846
C29   C     C_R   0.583255 0.606635 0.866208 -0.321585
C30   C     C_R   0.397219 0.394724 0.139543 -0.272192
H1    H     H_    0.923490 0.496351 0.680293 0.199936
H2    H     H_    0.073724 0.503488 0.321546 0.191563
H3    H     H_    0.337134 0.347207 0.184414 0.171828
H4    H     H_    0.640179 0.659788 0.826346 0.144112
H5    H     H_    0.678921 0.656349 0.010402 0.201462
H6    H     H_    0.296717 0.346954 0.996611 0.187198
N1    N     N_R   0.523490 0.207800 0.519350 -0.196271
N2    N     N_R   0.476510 0.792200 0.480650 -0.195708
O1    O     O_R   0.506270 0.421700 0.658830 -0.579026
O2    O     O_R   0.493730 0.578300 0.341170 -0.554346
O3    O     O_R   0.491200 0.609310 0.646410 -0.648642
O4    O     O_R   0.508800 0.390690 0.353590 -0.590941
O5    O     O_R   0.693580 0.406210 0.506230 -0.544068
O6    O     O_R   0.306420 0.593790 0.493770 -0.546982
O7    O     O_R   0.678510 0.593830 0.493810 -0.572841
O8    O     O_R   0.321490 0.406170 0.506190 -0.631189
Zn1   Zn    Zn3+2 0.510060 0.374730 0.508290 1.028086
Zn2   Zn    Zn3+2 0.489940 0.625270 0.491710 1.048005
O9    O     O_3   0.102836 0.674660 0.620673 -0.564699
C31   C     C_3   0.012227 0.734378 0.681767 -0.269348
H7    H     H_    0.978293 0.684195 0.743088 0.150268
H8    H     H_    0.930934 0.763980 0.632719 0.206777
H9    H     H_    0.057978 0.808343 0.722171 0.193004
O10   O     O_3   0.887202 0.330545 0.381259 -0.585065
C32   C     C_3   0.972108 0.256552 0.328950 -0.314431
H10   H     H_    0.020588 0.203324 0.385215 0.193578
H11   H     H_    0.040541 0.299900 0.284087 0.132564
H12   H     H_    0.916783 0.201435 0.271528 0.205180
Br1   Br    Br    0.092946 0.273642 0.608376 -0.532198
Br2   Br    Br    0.901969 0.730805 0.402396 -0.433182
O11   O     O_3   0.666405 0.584747 0.183241 -0.597851
C33   C     C_3   0.776540 0.516048 0.186465 -0.276035
H13   H     H_    0.802349 0.481602 0.106679 0.153853
H14   H     H_    0.764560 0.447989 0.237758 0.190193
H15   H     H_    0.857243 0.566079 0.219649 0.233486
O12   O     O_3   0.333849 0.398382 0.811945 -0.600027
C34   C     C_3   0.376611 0.286360 0.799878 -0.180266
H16   H     H_    0.475048 0.270203 0.831805 0.148268
H17   H     H_    0.373312 0.257974 0.715293 0.217060
H18   H     H_    0.310453 0.234498 0.838197 0.165811
O13   O     O_3   0.408583 0.181408 0.356971 -0.582397
C35   C     C_3   0.277888 0.205792 0.366133 -0.167963
H19   H     H_    0.259376 0.293787 0.353270 0.153816
H20   H     H_    0.238901 0.186686 0.441578 0.168580
H21   H     H_    0.224098 0.159439 0.301299 0.189533
O14   O     O_3   0.676013 0.814148 0.571529 -0.562218
C36   C     C_3   0.663301 0.790442 0.675806 -0.196757
H22   H     H_    0.702735 0.705694 0.681624 0.157455
H23   H     H_    0.564399 0.797534 0.703916 0.145777
H24   H     H_    0.724012 0.845127 0.729174 0.190088
Br3   Br    Br    0.712327 0.260889 0.684491 -0.448719
Br4   Br    Br    0.273705 0.740494 0.327038 -0.405256
O15   O     O_3   0.321715 0.978654 0.302874 -0.579464
C37   C     C_3   0.395779 0.965269 0.213271 -0.186416
H25   H     H_    0.483807 0.014376 0.223847 0.176494
H26   H     H_    0.339149 0.995805 0.146166 0.177649
H27   H     H_    0.420835 0.876678 0.192552 0.175347
O16   O     O_3   0.740001 0.014556 0.644547 -0.590012
C38   C     C_3   0.849023 0.013333 0.584034 -0.126504
H28   H     H_    0.837281 0.958647 0.510321 0.199907
H29   H     H_    0.931039 0.980510 0.630095 0.180219
H30   H     H_    0.872600 0.097927 0.565121 0.201350

loop_
_geom_bond_atom_site_label_1
_geom_bond_atom_site_label_2
_ccdc_geom_bond_type
C7    O15   S    
C32   H10   S    
C16   C21   S    
C27   C29   A    
C18   C21   S    
C37   H27   S    
C4    C25   A    
C15   C22   S    
C36   H22   S    
C23   Br1   S    
C17   C23   S    
C10   N1    A    
C18   C24   S    
C19   C21   S    
C37   H26   S    
C11   O14   S    
C5    C6    A    
C36   H24   S    
O2    Zn2   S    
C12   N1    A    
C33   H14   S    
O10   C32   S    
C7    C14   A    
C6    C27   A    
C31   H8    S    
N1    Zn1   S    
C16   O6    A    
N2    Zn2   S    
C33   H15   S    
C9    Br4   S    
O12   C34   S    
C13   C14   A    
C20   O10   S    
C35   H21   S    
C36   H23   S    
C21   C23   S    
C31   H9    S    
C34   H16   S    
C37   H25   S    
C35   H20   S    
C16   O8    A    
C27   H5    S    
C29   H4    S    
C34   H17   S    
C11   N2    A    
C33   H13   S    
C5    C28   A    
C19   O9    S    
O15   C37   S    
C20   C23   S    
C24   Br2   S    
C31   H7    S    
O14   C36   S    
C38   H30   S    
C1    O3    A    
C12   O13   S    
C12   C14   A    
C32   H11   S    
C1    C26   S    
C17   H1    S    
C22   C24   S    
C4    C6    A    
C38   H29   S    
C15   O7    A    
O1    Zn1   S    
O7    Zn2   S    
C25   C30   A    
C7    C9    A    
O8    Zn1   S    
C30   H3    S    
C3    C26   A    
C20   C22   S    
C35   H19   S    
C3    C5    A    
C10   Br3   S    
C17   C22   S    
C34   H18   S    
C28   C30   A    
C19   C24   S    
C15   O5    A    
O13   C35   S    
C11   C13   A    
C2    O4    A    
C4    O11   S    
C9    N2    A    
C17   C19   S    
O3    Zn2   S    
C2    C25   S    
C18   C20   S    
O4    Zn1   S    
O11   C33   S    
C1    O1    A    
C3    O12   S    
C8    C13   A    
C2    O2    A    
C18   H2    S    
O16   C38   S    
C28   H6    S    
C26   C29   A    
C8    C10   A    
O9    C31   S    
C32   H12   S    
C8    O16   S    
C38   H28   S    
O5    Zn1   S    
O6    Zn2   S    
