data_mof_unit_26589.cif
_audit_creation_date              2012-10-26T21:12:34-0400
_audit_creation_method            fapswitch 2.2
_symmetry_space_group_name_H-M    P1
_symmetry_Int_Tables_number       1
_space_group_crystal_system       triclinic
_cell_length_a                    23.529252
_cell_length_b                    10.875997
_cell_length_c                    9.63831
_cell_angle_alpha                 89.012937
_cell_angle_beta                  89.192315
_cell_angle_gamma                 95.29462
_cell_volume                      2455.28998075

loop_
_atom_site_label
_atom_site_type_symbol
_atom_type_description
_atom_site_fract_x
_atom_site_fract_y
_atom_site_fract_z
_atom_type_partial_charge
C1    C     C_R   0.502820 0.262478 0.501997 0.576085
C2    C     C_R   0.124104 0.602959 0.509679 0.399242
C3    C     C_R   0.238881 0.519409 0.622742 -0.049565
C4    C     C_R   0.391065 0.499086 0.500756 0.545636
C5    C     C_R   0.298252 0.520849 0.623573 -0.144910
C6    C     C_R   0.328444 0.497710 0.501349 0.004062
C7    C     C_R   0.298233 0.473340 0.378503 -0.132356
C8    C     C_R   0.238981 0.471676 0.378047 -0.057608
C9    C     C_R   0.209097 0.494647 0.499997 0.237357
C10   C     C_R   0.759265 0.477870 0.363766 -0.067878
C11   C     C_R   0.700084 0.478668 0.370418 -0.176698
C12   C     C_R   0.960440 0.272871 0.453994 -0.119639
C13   C     C_R   0.672037 0.499070 0.496924 0.040857
C14   C     C_R   0.704991 0.518174 0.618030 0.074729
C15   C     C_R   0.764384 0.517465 0.609638 -0.048878
C16   C     C_R   0.495226 0.735917 0.499596 0.531184
C17   C     C_R   0.791518 0.497657 0.483242 0.223298
C18   C     C_R   0.497939 0.106465 0.768411 -0.106612
C19   C     C_R   0.474667 0.040012 0.883851 -0.124669
C20   C     C_R   0.448240 0.921851 0.868331 -0.112354
C21   C     C_R   0.449600 0.866251 0.739594 -0.071586
C22   C     C_R   0.477251 0.929312 0.623817 0.018180
C23   C     C_R   0.019776 0.269824 0.459030 0.091603
C24   C     C_R   0.493692 0.056764 0.633162 -0.019980
C25   C     C_R   0.505421 0.127287 0.507475 0.028473
C26   C     C_R   0.512997 0.065742 0.381520 0.229635
C27   C     C_R   0.505810 0.937358 0.379993 -0.153558
C28   C     C_R   0.609082 0.499893 0.499359 0.564306
C29   C     C_R   0.489838 0.868739 0.500071 -0.044720
C30   C     C_R   0.571780 0.694418 0.126826 0.158477
C31   C     C_R   0.595775 0.792831 0.041188 0.067908
C32   C     C_R   0.595680 0.781699 0.899947 -0.172117
C33   C     C_R   0.570181 0.676823 0.842582 -0.077353
C34   C     C_R   0.055454 0.380850 0.476165 0.063811
C35   C     C_R   0.535218 0.587758 0.920220 0.091601
C36   C     C_R   0.535140 0.591947 0.069776 0.096036
C37   C     C_R   0.465508 0.417320 0.079201 0.399803
C38   C     C_R   0.463184 0.421514 0.930940 0.172309
C39   C     C_R   0.885699 0.606267 0.491747 0.400829
C40   C     C_R   0.875918 0.387650 0.463427 0.403585
C41   C     C_R   0.935407 0.384303 0.465910 0.008738
C42   C     C_R   0.970323 0.495015 0.482534 -0.036251
C43   C     C_R   0.945326 0.607386 0.494757 0.034990
C44   C     C_R   0.030247 0.493536 0.487665 -0.056989
C45   C     C_R   0.064773 0.605224 0.504720 0.028640
C46   C     C_R   0.039372 0.716667 0.515804 -0.117995
C47   C     C_R   0.980294 0.717736 0.510894 -0.123801
C48   C     C_R   0.115543 0.384037 0.482325 0.421160
Cu1   Cu    Cu3+1 0.500000 0.499990 0.640660 0.917560
Cu2   Cu    Cu3+1 0.500000 0.500010 0.359340 1.053291
H1    H     H_    0.934050 0.186871 0.441200 0.167327
H2    H     H_    0.578944 0.672013 0.735094 0.210199
H3    H     H_    0.065047 0.803532 0.528588 0.174855
H4    H     H_    0.962152 0.805265 0.520267 0.162179
H5    H     H_    0.215968 0.537504 0.717331 0.134012
H6    H     H_    0.320439 0.541181 0.719271 0.118807
H7    H     H_    0.320301 0.454942 0.282770 0.156569
H8    H     H_    0.216193 0.452930 0.282760 0.133284
H9    H     H_    0.780128 0.462259 0.265613 0.136843
H10   H     H_    0.696328 0.624610 0.785307 0.227085
H11   H     H_    0.689488 0.470908 0.819581 0.233982
H12   H     H_    0.676272 0.462826 0.276046 0.141111
H13   H     H_    0.534615 0.074895 0.184840 0.310394
H14   H     H_    0.413198 0.267476 0.098156 0.330932
H15   H     H_    0.025555 0.094448 0.526481 0.230549
H16   H     H_    0.030107 0.114905 0.352238 0.234887
H17   H     H_    0.592330 0.778396 0.309385 0.248372
H18   H     H_    0.638736 0.682608 0.251393 0.222206
H19   H     H_    0.669291 0.901925 0.065800 0.246883
H20   H     H_    0.609816 0.977768 0.061452 0.235806
H21   H     H_    0.429152 0.301564 0.785191 0.280504
H22   H     H_    0.386451 0.411544 0.837458 0.250437
H23   H     H_    0.789642 0.532251 0.702026 0.125213
H24   H     H_    0.521281 0.193692 0.789950 0.160807
H25   H     H_    0.476440 0.081251 0.985155 0.131037
H26   H     H_    0.428261 0.871751 0.956898 0.118564
H27   H     H_    0.428167 0.774394 0.731564 0.145830
H28   H     H_    0.513560 0.891051 0.283997 0.134230
H29   H     H_    0.618619 0.851988 0.834149 0.129753
N1    N     N_R   0.852401 0.497372 0.477258 -0.397204
N2    N     N_R   0.148115 0.493746 0.498394 -0.412106
N3    N     N_R   0.500540 0.501210 0.147910 -0.217311
N4    N     N_R   0.500560 0.501290 0.852040 -0.257642
N5    N     N_3   0.678871 0.539289 0.749518 -0.616565
N6    N     N_3   0.043053 0.153183 0.446755 -0.542707
N7    N     N_3   0.595151 0.693496 0.261901 -0.526789
N8    N     N_3   0.626788 0.898734 0.100001 -0.648296
N9    N     N_3   0.416095 0.351458 0.868491 -0.653350
O1    O     O_R   0.500000 0.319640 0.618810 -0.553386
O2    O     O_R   0.582120 0.500020 0.618760 -0.484661
O3    O     O_R   0.582120 0.500050 0.381190 -0.482150
O4    O     O_2   0.861097 0.712982 0.503467 -0.494803
O5    O     O_3   0.529794 0.132278 0.261934 -0.667870
O6    O     O_3   0.430281 0.333759 0.157804 -0.644195
O7    O     O_2   0.841780 0.282025 0.449379 -0.488847
O8    O     O_2   0.141535 0.278948 0.473085 -0.434575
O9    O     O_2   0.157719 0.709254 0.524325 -0.483063
O10   O     O_R   0.500000 0.319660 0.381240 -0.376820
O11   O     O_R   0.417880 0.499950 0.618810 -0.527051
O12   O     O_R   0.417880 0.499980 0.381240 -0.461902
O13   O     O_R   0.500000 0.680340 0.618760 -0.537615
O14   O     O_R   0.500000 0.680360 0.381190 -0.491621

loop_
_geom_bond_atom_site_label_1
_geom_bond_atom_site_label_2
_ccdc_geom_bond_type
C22   C29   A    
C38   N4    A    
C27   C29   A    
H18   N7    S    
C41   C42   A    
C5    H6    S    
C19   C20   A    
C14   N5    S    
Cu1   O2    S    
C11   H12   S    
H16   N6    S    
C7    C8    A    
C45   C46   A    
C33   H2    S    
C12   C23   A    
C26   C27   A    
C37   C38   A    
C18   C24   A    
Cu1   O13   S    
C30   C31   A    
C10   C17   A    
C11   C13   A    
C48   N2    A    
C20   H26   S    
C18   C19   A    
C8    H8    S    
C3    H5    S    
C35   C36   A    
C2    O9    S    
C36   N3    A    
C8    C9    A    
C40   N1    A    
C13   C28   S    
C30   N7    S    
H19   N8    S    
C27   H28   S    
C26   O5    S    
C18   H24   S    
C13   C14   A    
C1    C25   S    
C42   C44   A    
H20   N8    S    
H22   N9    S    
C2    C45   A    
Cu2   O10   S    
C31   N8    S    
C34   C44   A    
C24   C25   A    
C4    C6    S    
C35   N4    A    
C39   C43   A    
C16   C29   S    
C17   N1    S    
C38   N9    S    
C12   C41   A    
C3    C9    A    
Cu1   O11   S    
Cu2   O3    S    
C31   C32   A    
C23   C34   A    
C47   H4    S    
C16   O14   A    
C40   C41   A    
C15   H23   S    
Cu2   O14   S    
C4    O12   A    
C22   C24   A    
C37   N3    A    
C34   C48   A    
C42   C43   A    
C40   O7    S    
C39   O4    S    
C12   H1    S    
C44   C45   A    
Cu2   N3    S    
C15   C17   A    
C46   C47   A    
H17   N7    S    
C1    O1    A    
C48   O8    S    
Cu1   O1    S    
C3    C5    A    
H11   N5    S    
C1    O10   A    
H15   N6    S    
C6    C7    A    
H13   O5    S    
Cu2   O12   S    
C30   C36   A    
C39   N1    A    
Cu1   N4    S    
C19   H25   S    
C10   H9    S    
C25   C26   A    
H14   O6    S    
C32   C33   A    
C32   H29   S    
H10   N5    S    
C5    C6    A    
C46   H3    S    
C33   C35   A    
C37   O6    S    
C28   O3    A    
C10   C11   A    
H21   N9    S    
C16   O13   A    
C20   C21   A    
Cu1   Cu2   S    
C23   N6    S    
C4    O11   A    
C21   H27   S    
C14   C15   A    
C2    N2    A    
C28   O2    A    
C21   C22   A    
C43   C47   A    
C7    H7    S    
C9    N2    S    
