data_mof_unit_12490.cif
_audit_creation_date              2012-12-10T20:31:58-0500
_audit_creation_method            fapswitch 2.2
_symmetry_space_group_name_H-M    P1
_symmetry_Int_Tables_number       1
_space_group_crystal_system       triclinic
_cell_length_a                    9.893021
_cell_length_b                    10.640163
_cell_length_c                    15.559963
_cell_angle_alpha                 90.27216
_cell_angle_beta                  66.650443
_cell_angle_gamma                 89.994351
_cell_volume                      1503.73636251

loop_
_atom_site_label
_atom_site_type_symbol
_atom_type_description
_atom_site_fract_x
_atom_site_fract_y
_atom_site_fract_z
_atom_type_partial_charge
C1    C     C_R   0.499841 0.739456 0.500041 0.946685
C2    C     C_R   0.670526 0.406858 0.055946 -0.008285
C3    C     C_R   0.569607 0.508220 0.092692 -0.018199
C4    C     C_R   0.407161 0.495801 0.676199 0.970420
C5    C     C_R   0.792715 0.397952 0.080978 0.374572
C6    C     C_R   0.784445 0.454303 0.164700 -0.128988
C7    C     C_R   0.557390 0.560821 0.179498 -0.156407
C8    C     C_R   0.373869 0.936709 0.548591 -0.074458
C9    C     C_R   0.500954 0.870976 0.495315 -0.065221
C10   C     C_R   0.623953 0.932586 0.431041 -0.189166
C11   C     C_R   0.625047 0.062741 0.428590 0.387464
C12   C     C_R   0.389588 0.499000 0.921711 -0.028916
C13   C     C_R   0.502403 0.128415 0.492200 -0.166930
C14   C     C_R   0.374371 0.064761 0.546833 -0.035088
C15   C     C_3   0.277333 0.075042 0.649056 0.626516
C16   C     C_R   0.501266 0.260440 0.497797 0.977460
C17   C     C_3   0.278372 0.931248 0.651224 0.121082
C18   C     C_R   0.904327 0.597296 0.539572 0.246765
C19   C     C_R   0.946768 0.399790 0.467800 -0.082775
C20   C     C_R   0.091193 0.399646 0.465916 0.007559
C21   C     C_R   0.046613 0.597211 0.539862 0.175127
C22   C     C_3   0.070325 0.731090 0.509386 -0.426622
C23   C     C_R   0.286536 0.599064 0.955579 -0.010965
C24   C     C_3   0.917165 0.730979 0.509375 -0.439071
C25   C     C_R   0.592978 0.507050 0.323755 0.916558
C26   C     C_R   0.345173 0.501827 0.778450 -0.099793
C27   C     C_R   0.652414 0.516136 0.220766 -0.208071
C28   C     C_R   0.191591 0.626066 0.911011 -0.051657
C29   C     C_R   0.219463 0.575557 0.823343 -0.153500
C30   C     C_R   0.424826 0.454643 0.829122 0.372761
C31   C     C_2   0.184212 0.290557 0.420741 0.987181
C32   C     C_2   0.433228 0.645270 0.236631 0.965658
C33   C     C_2   0.910290 0.446630 0.193784 1.012025
C34   C     C_R   0.468411 0.460905 0.975987 0.079150
C35   C     C_2   0.704131 0.186950 0.985536 1.028295
C36   C     C_R   0.478490 0.543099 0.044832 -0.013868
C37   C     C_R   0.400815 0.657975 0.060633 -0.212008
C38   C     C_R   0.293335 0.678643 0.025796 0.425218
C39   C     C_R   0.533026 0.341435 0.965627 -0.131812
C40   C     C_R   0.641205 0.315886 0.999287 -0.060387
Cl1   Cl    Cl    0.185596 0.816313 0.062044 -0.472683
Cl2   Cl    Cl    0.961209 0.333096 0.001267 -0.487084
Cl3   Cl    Cl    0.780321 0.138695 0.346313 -0.530724
Cl4   Cl    Cl    0.360571 0.154250 0.717437 -0.436932
Cl5   Cl    Cl    0.101230 0.139487 0.667863 -0.463274
Cl6   Cl    Cl    0.370015 0.861837 0.718475 -0.535434
Cl7   Cl    Cl    0.585939 0.362438 0.768475 -0.495542
H1    H     H_    0.718893 0.879996 0.384595 0.194331
H2    H     H_    0.422558 0.734410 0.098864 0.201570
H3    H     H_    0.498429 0.266787 0.931442 0.231044
H4    H     H_    0.364659 0.223776 0.314801 0.354110
H5    H     H_    0.276027 0.522007 0.239447 0.331346
H6    H     H_    0.071919 0.341749 0.205538 0.346612
H7    H     H_    0.772909 0.040578 0.039933 0.379267
H8    H     H_    0.169555 0.888121 0.665402 0.131169
H9    H     H_    0.908971 0.321169 0.439006 0.200185
H10   H     H_    0.079572 0.793595 0.563983 0.206907
H11   H     H_    0.159091 0.742512 0.438481 0.271538
H12   H     H_    0.838590 0.792971 0.564194 0.237713
H13   H     H_    0.917063 0.742029 0.438352 0.241105
H14   H     H_    0.104271 0.694887 0.939034 0.205811
H15   H     H_    0.154345 0.608232 0.785911 0.183975
N1    N     N_R   0.856900 0.500860 0.500610 -0.110240
N2    N     N_R   0.142540 0.500820 0.500610 -0.132944
O1    O     O_R   0.385310 0.683210 0.499990 -0.622906
O2    O     O_R   0.311754 0.306106 0.339819 -0.795869
O3    O     O_2   0.460046 0.745273 0.265322 -0.576977
O4    O     O_R   0.286333 0.609695 0.261762 -0.744566
O5    O     O_2   0.946360 0.539566 0.226137 -0.595957
O6    O     O_R   0.988719 0.334325 0.183324 -0.680799
O7    O     O_2   0.727587 0.130130 0.912454 -0.522628
O8    O     O_R   0.731454 0.128579 0.057443 -0.733133
O9    O     O_R   0.614650 0.683240 0.500000 -0.629704
O10   O     O_R   0.319830 0.499970 0.632240 -0.614080
O11   O     O_R   0.549170 0.500000 0.632250 -0.556906
O12   O     O_R   0.385350 0.316760 0.500000 -0.607237
O13   O     O_R   0.614690 0.316790 0.500010 -0.574076
O14   O     O_R   0.450830 0.500000 0.367750 -0.575939
O15   O     O_R   0.680170 0.500030 0.367760 -0.595737
O16   O     O_2   0.143923 0.185079 0.450836 -0.567331
Zn1   Zn    Zn3+2 0.346870 0.499980 0.499990 1.030092
Zn2   Zn    Zn3+2 0.653130 0.500020 0.500010 1.053620

loop_
_geom_bond_atom_site_label_1
_geom_bond_atom_site_label_2
_ccdc_geom_bond_type
C19   H9    S    
C31   O2    S    
C5    Cl2   S    
C18   C21   A    
C19   C20   A    
C22   H10   S    
C31   O16   D    
C12   C23   A    
C18   C24   S    
C3    C36   A    
C36   C37   A    
C15   Cl4   S    
C3    C7    A    
C5    C6    A    
C18   N1    A    
C7    C27   A    
C16   O13   A    
C4    O11   A    
C19   N1    A    
C8    C9    A    
C21   N2    A    
C1    O1    A    
C11   Cl3   S    
C9    C10   A    
C17   H8    S    
C4    O10   A    
H5    O4    S    
C33   O5    D    
C32   O4    S    
C28   H14   S    
C35   O7    D    
C16   O12   A    
C13   C14   A    
H6    O6    S    
N1    Zn2   S    
C34   C39   A    
C30   Cl7   S    
C1    C9    S    
C17   Cl6   S    
C38   Cl1   S    
C39   C40   A    
C25   O14   A    
H4    O2    S    
C20   N2    A    
C37   C38   A    
C37   H2    S    
O1    Zn1   S    
C6    C27   A    
C24   H13   S    
C23   C28   A    
C33   O6    S    
C32   O3    D    
C35   O8    S    
C26   C30   A    
C10   H1    S    
C22   C24   S    
C2    C5    A    
C15   Cl5   S    
O10   Zn1   S    
C12   C34   A    
O9    Zn2   S    
C15   C17   S    
C29   H15   S    
C28   C29   A    
C8    C14   A    
C7    C32   S    
C12   C30   A    
C25   O15   A    
O12   Zn1   S    
C22   H11   S    
O15   Zn2   S    
C4    C26   S    
O11   Zn2   S    
C25   C27   S    
C23   C38   A    
C8    C17   S    
C6    C33   S    
C1    O9    A    
C2    C3    A    
C11   C13   A    
O14   Zn1   S    
O13   Zn2   S    
C24   H12   S    
C35   C40   S    
C34   C36   A    
N2    Zn1   S    
C10   C11   A    
C2    C40   A    
C39   H3    S    
H7    O8    S    
C26   C29   A    
C13   C16   S    
C14   C15   S    
C21   C22   S    
C20   C31   S    
