data_mof_unit_50962.cif
_audit_creation_date              2013-03-05T16:09:23-0500
_audit_creation_method            fapswitch 2.2
_symmetry_space_group_name_H-M    P1
_symmetry_Int_Tables_number       1
_space_group_crystal_system       triclinic
_cell_length_a                    11.001856
_cell_length_b                    12.684742
_cell_length_c                    13.901962
_cell_angle_alpha                 98.308546
_cell_angle_beta                  90.357963
_cell_angle_gamma                 92.493164
_cell_volume                      1917.76397617

loop_
_atom_site_label
_atom_site_type_symbol
_atom_site_description
_atom_site_fract_x
_atom_site_fract_y
_atom_site_fract_z
_atom_type_partial_charge
O1    O     O_R   0.492240 0.399110 0.356330 -0.539863
O2    O     O_R   0.505790 0.575900 0.366540 -0.554242
C1    C     C_R   0.497709 0.483332 0.315748 0.852033
O3    O     O_R   0.310920 0.411610 0.494880 -0.566155
O4    O     O_R   0.324460 0.588390 0.505090 -0.540018
C2    C     C_R   0.259969 0.501980 0.504941 0.867228
Cu1   Cu    Cu3+1 0.491980 0.395330 0.493960 1.072491
Cu2   Cu    Cu3+1 0.508020 0.604670 0.506040 1.158993
O5    O     O_R   0.494210 0.424100 0.633460 -0.646792
O6    O     O_R   0.507760 0.600890 0.643670 -0.507570
O7    O     O_R   0.675540 0.411610 0.494910 -0.548921
O8    O     O_R   0.689080 0.588390 0.505120 -0.502475
C3    C     C_R   0.500184 0.516787 0.684250 0.865332
C4    C     C_R   0.740727 0.498182 0.500101 1.012975
C5    C     C_3   0.069255 0.408925 0.430139 -0.080794
H1    H     H_    0.102821 0.429096 0.361682 0.166238
C6    C     C_3   0.925722 0.401796 0.418187 0.380183
C7    C     C_3   0.076457 0.495052 0.620130 0.278159
C8    C     C_3   0.080299 0.617470 0.471772 0.213904
C9    C     C_3   0.122714 0.506322 0.509912 -0.358097
C10   C     C_3   0.878492 0.495762 0.502950 -0.452003
C11   C     C_3   0.925107 0.476642 0.614174 0.231280
C12   C     C_3   0.931959 0.614010 0.476263 0.341569
C13   C     C_1   0.496695 0.527405 0.787491 -0.069767
C14   C     C_2   0.486327 0.552178 0.978668 0.345644
C15   C     C_2   0.490407 0.464201 0.022104 -0.274707
C16   C     C_1   0.493185 0.468162 0.125633 0.160418
C17   C     C_1   0.492394 0.538460 0.874504 -0.015475
C18   C     C_1   0.495462 0.474012 0.212510 -0.015001
H2    H     H_    0.496163 0.386242 0.978448 0.151890
N1    N     N_1   0.479930 0.238040 0.484880 -0.138319
C19   C     C_2   0.474176 0.027263 0.465101 0.234390
C20   C     C_2   0.534578 0.972199 0.527473 -0.062592
C21   C     C_1   0.525522 0.854760 0.519694 0.393720
C22   C     C_1   0.477596 0.145056 0.477558 0.261841
N2    N     N_1   0.520070 0.761960 0.515120 -0.123277
N3    N     N_R   0.125049 0.303889 0.429474 0.197191
O9    O     O_R   0.092452 0.237218 0.488093 -0.334491
O10   O     O_R   0.195065 0.269058 0.357517 -0.250778
N4    N     N_R   0.889370 0.702090 0.550854 0.199698
O11   O     O_R   0.811790 0.768986 0.526789 -0.252205
O12   O     O_R   0.940964 0.727221 0.635634 -0.216924
N5    N     N_R   0.125409 0.591899 0.685999 0.198586
O13   O     O_R   0.243043 0.604011 0.698246 -0.348765
O14   O     O_R   0.062787 0.645383 0.753548 -0.182697
N6    N     N_R   0.865832 0.546961 0.694766 0.187558
O15   O     O_R   0.770784 0.600177 0.680519 -0.331329
O16   O     O_R   0.883758 0.531344 0.784355 -0.309581
N7    N     N_R   0.478139 0.658619 0.031179 0.177094
O17   O     O_R   0.502211 0.740671 0.986948 -0.250414
O18   O     O_R   0.435007 0.674954 0.118764 -0.313170
C23   C     C_3   0.610369 0.030275 0.611707 -0.422136
C24   C     C_3   0.531175 0.066616 0.698947 -0.755355
H3    H     H_    0.463851 0.123314 0.680074 0.243548
H4    H     H_    0.482253 0.996867 0.723249 0.287493
H5    H     H_    0.589446 0.107440 0.759855 0.257524
H6    H     H_    0.679531 0.976881 0.634064 0.265958
H7    H     H_    0.661559 0.100040 0.589570 0.227585
N8    N     N_R   0.405993 0.971503 0.382893 0.124831
O19   O     O_R   0.315982 0.017062 0.346773 -0.246171
O20   O     O_R   0.445097 0.884189 0.334493 -0.315441
N9    N     N_R   0.884966 0.422777 0.320715 0.140069
O21   O     O_R   0.770691 0.401557 0.297349 -0.285708
O22   O     O_R   0.959595 0.424371 0.248562 -0.327220
N10   N     N_R   0.884084 0.287342 0.416386 0.184442
O23   O     O_R   0.922771 0.218972 0.345192 -0.179548
O24   O     O_R   0.786619 0.255883 0.457532 -0.355820
C25   C     C_3   0.142751 0.401898 0.664874 -0.415844
C26   C     C_3   0.147230 0.410766 0.777083 -0.711805
H8    H     H_    0.221745 0.467222 0.808634 0.272483
H9    H     H_    0.061999 0.437075 0.812048 0.299337
H10   H     H_    0.166431 0.331845 0.798108 0.232107
H11   H     H_    0.108066 0.321412 0.638355 0.235440
H12   H     H_    0.239695 0.400093 0.646673 0.237311
C27   C     C_3   0.885643 0.360446 0.638819 -0.345822
C28   C     C_3   0.753425 0.335374 0.669281 -0.647085
H13   H     H_    0.708907 0.405956 0.706350 0.256446
H14   H     H_    0.694712 0.295804 0.609400 0.273871
H15   H     H_    0.753871 0.277007 0.721812 0.209735
H16   H     H_    0.918895 0.294617 0.587858 0.250130
H17   H     H_    0.932704 0.350042 0.706491 0.220397
N11   N     N_R   0.125839 0.722823 0.527674 0.197213
O25   O     O_R   0.082169 0.810579 0.506065 -0.253531
O26   O     O_R   0.218616 0.735949 0.586608 -0.255083
C29   C     C_3   0.135019 0.618806 0.363365 -0.438761
C30   C     C_3   0.197292 0.722071 0.337422 -0.436380
H18   H     H_    0.133215 0.786272 0.334100 0.303932
H19   H     H_    0.272551 0.750597 0.389501 0.257044
H20   H     H_    0.237950 0.705338 0.264116 0.239987
H21   H     H_    0.209955 0.563606 0.348676 0.158885
H22   H     H_    0.068842 0.589380 0.304890 0.262016
N12   N     N_R   0.884411 0.640905 0.381459 0.134387
O27   O     O_R   0.923437 0.730023 0.353882 -0.256304
O28   O     O_R   0.780286 0.603487 0.343778 -0.286145

loop_
_geom_bond_atom_site_label_1
_geom_bond_atom_site_label_2
_geom_bond_distance
_ccdc_geom_bond_type
C16   C18   1.199319 T    
C8    C9    1.660377 S    
C28   H15   1.112665 S    
N5    O13   1.303805 A    
C29   H22   1.100682 S    
Cu1   Cu2   2.634502 S    
C24   H3    1.110477 S    
C20   C23   1.514692 S    
Cu1   O7    2.020841 S    
C15   C16   1.432952 S    
N9    O21   1.303378 A    
C4    C10   1.517707 S    
C28   H14   1.098417 S    
O4    C2    1.279261 A    
O7    C4    1.278046 A    
C30   H19   1.109682 S    
C25   H12   1.098142 S    
C12   N4    1.503305 S    
Cu1   O5    1.920636 S    
Cu2   N2    1.979457 S    
C26   H9    1.101341 S    
O5    C3    1.279825 A    
C5    N3    1.489882 S    
N9    O22   1.302068 A    
C25   C26   1.548000 S    
N10   O24   1.293319 A    
C8    N11   1.509182 S    
C27   H16   1.091728 S    
C21   N2    1.168547 T    
N4    O12   1.296254 A    
N8    O19   1.301622 A    
C7    C11   1.671203 S    
C10   C11   1.679872 S    
C11   C27   1.603254 S    
O3    Cu1   2.011517 S    
C24   H4    1.110787 S    
C5    C9    1.623210 S    
N6    O16   1.304211 A    
N8    O20   1.301616 A    
Cu1   N1    1.979460 S    
C19   C22   1.477912 S    
C28   H13   1.102258 S    
O3    C2    1.287775 A    
C30   H18   1.105776 S    
C27   H17   1.098303 S    
N7    O18   1.301358 A    
C25   H11   1.086011 S    
C29   C30   1.541692 S    
N11   O25   1.304445 A    
C6    C10   1.653755 S    
C3    C13   1.422971 S    
C30   H20   1.111379 S    
O1    C1    1.277606 A    
C26   H10   1.111049 S    
C8    C12   1.632525 S    
C27   C28   1.550116 S    
N3    O9    1.297834 A    
C6    N9    1.488315 S    
Cu2   O8    2.011517 S    
N12   O28   1.298207 A    
C20   C21   1.476876 S    
N5    O14   1.296688 A    
C23   H7    1.110194 S    
N4    O11   1.304580 A    
C11   N6    1.499019 S    
O8    C4    1.292692 A    
C15   H2    1.087526 S    
N11   O26   1.294671 A    
C10   C12   1.679374 S    
N1    C22   1.168252 T    
C23   C24   1.526143 S    
C24   H5    1.110733 S    
C5    C6    1.584102 S    
N6    O15   1.298407 A    
O1    Cu1   1.920859 S    
O2    Cu2   1.920635 S    
C13   C17   1.198927 T    
C8    C29   1.628434 S    
O6    C3    1.276747 A    
O4    Cu2   2.020841 S    
C29   H21   1.105747 S    
C2    C9    1.515099 S    
C6    N10   1.499913 S    
C19   C20   1.374606 D    
O2    C1    1.278965 A    
C14   C15   1.345659 D    
N3    O10   1.304133 A    
C7    N5    1.499629 S    
C1    C18   1.422915 S    
N12   O27   1.301652 A    
C7    C9    1.641318 S    
N10   O23   1.304668 A    
C26   H8    1.109475 S    
C14   N7    1.445878 S    
C23   H6    1.112225 S    
C14   C17   1.435645 S    
Cu2   O6    1.920860 S    
N7    O17   1.301738 A    
C12   N12   1.504636 S    
C19   N8    1.441736 S    
C7    C25   1.611493 S    
C5    H1    1.083555 S    
