data_mof_unit_32383.cif
_audit_creation_date              2012-12-10T16:52:04-0500
_audit_creation_method            fapswitch 2.2
_symmetry_space_group_name_H-M    P1
_symmetry_Int_Tables_number       1
_space_group_crystal_system       triclinic
_cell_length_a                    7.800985
_cell_length_b                    8.604011
_cell_length_c                    14.947057
_cell_angle_alpha                 92.133025
_cell_angle_beta                  84.968414
_cell_angle_gamma                 93.236866
_cell_volume                      997.257244989

loop_
_atom_site_label
_atom_site_type_symbol
_atom_type_description
_atom_site_fract_x
_atom_site_fract_y
_atom_site_fract_z
_atom_type_partial_charge
C1    C     C_R   0.544710 0.794222 0.499532 0.880278
C2    C     C_R   0.650746 0.549401 0.808472 -0.197213
C3    C     C_R   0.498320 0.501539 0.231286 -0.105759
C4    C     C_R   0.501685 0.498456 0.768713 -0.105751
C5    C     C_R   0.647424 0.552430 0.180037 -0.181369
C6    C     C_R   0.352587 0.447549 0.819962 -0.181383
C7    C     C_R   0.648748 0.553088 0.087587 0.090082
C8    C     C_R   0.351268 0.446878 0.912411 0.090072
C9    C     C_R   0.499081 0.500385 0.046534 -0.023451
C10   C     C_R   0.500933 0.499588 0.953464 -0.023437
C11   C     C_R   0.347850 0.448355 0.098755 0.085397
C12   C     C_R   0.455291 0.205777 0.500470 0.880271
C13   C     C_R   0.652165 0.551617 0.901243 0.085374
C14   C     C_R   0.797563 0.605648 0.036097 -0.321605
C15   C     C_R   0.202467 0.394290 0.963900 -0.321705
C16   C     C_R   0.800816 0.605446 0.942378 0.418215
C17   C     C_R   0.199214 0.394492 0.057619 0.418205
C18   C     C_2   0.564086 0.957497 0.511941 0.184286
C19   C     C_2   0.435917 0.042501 0.488064 0.184278
C20   C     C_R   0.500728 0.499758 0.673082 0.884259
C21   C     C_R   0.499273 0.500243 0.326917 0.884278
C22   C     C_R   0.349262 0.450587 0.191525 -0.197217
H1    H     H_    0.235911 0.410330 0.233132 0.200187
H2    H     H_    0.228824 0.059460 0.424228 0.340771
H3    H     H_    0.974394 0.239587 0.437097 0.201981
H4    H     H_    0.998538 0.367464 0.354528 0.183371
H5    H     H_    0.025561 0.760393 0.562877 0.201989
H6    H     H_    0.001552 0.632550 0.645473 0.183392
H7    H     H_    0.764095 0.589660 0.766865 0.200196
H8    H     H_    0.761879 0.592836 0.212264 0.173062
H9    H     H_    0.238134 0.407138 0.787734 0.173073
H10   H     H_    0.911203 0.646343 0.068817 0.167791
H11   H     H_    0.088835 0.353574 0.931179 0.167800
H12   H     H_    0.037696 0.692011 0.929835 0.342495
H13   H     H_    0.962413 0.307759 0.070155 0.342504
H14   H     H_    0.771158 0.940536 0.575801 0.340754
N1    N     N_2   0.950330 0.457950 0.475660 0.005213
N2    N     N_2   0.049670 0.542050 0.524340 0.005191
N3    N     N_3   0.031279 0.348145 0.419305 -0.327256
N4    N     N_3   0.968718 0.651846 0.580703 -0.327279
O1    O     O_R   0.389250 0.738570 0.505970 -0.567930
O2    O     O_3   0.053566 0.342622 0.109824 -0.791069
O3    O     O_3   0.700519 0.023574 0.556788 -0.774897
O4    O     O_3   0.299497 0.976426 0.443211 -0.774908
O5    O     O_R   0.610750 0.261430 0.494030 -0.567922
O6    O     O_R   0.678390 0.711620 0.490370 -0.631809
O7    O     O_R   0.321610 0.288380 0.509630 -0.631807
O8    O     O_R   0.355420 0.513510 0.639950 -0.631467
O9    O     O_R   0.644580 0.486490 0.360050 -0.631459
O10   O     O_R   0.644560 0.486560 0.624350 -0.606425
O11   O     O_R   0.355440 0.513440 0.375650 -0.606437
O12   O     O_3   0.946484 0.657276 0.890171 -0.791061
Zn1   Zn    Zn3+2 0.306940 0.517990 0.510420 1.002920
Zn2   Zn    Zn3+2 0.693060 0.482010 0.489580 1.002932

loop_
_geom_bond_atom_site_label_1
_geom_bond_atom_site_label_2
_ccdc_geom_bond_type
C2    C4    A    
C15   C17   A    
N1    N2    D    
C9    C10   A    
C11   C22   A    
H12   O12   S    
H5    N4    S    
O7    Zn1   S    
O6    Zn2   S    
C21   O9    A    
C6    H9    S    
N1    N3    S    
O10   Zn2   S    
C18   O3    S    
H3    N3    S    
N2    N4    S    
C9    C11   A    
O1    Zn1   S    
C1    C18   S    
C20   O8    A    
N2    Zn1   S    
C2    H7    S    
C6    C8    A    
N1    Zn2   S    
C12   C19   S    
C1    O6    A    
H13   O2    S    
O5    Zn2   S    
C18   C19   D    
C8    C15   A    
C5    C7    A    
C12   O7    A    
O8    Zn1   S    
H2    O4    S    
C14   C16   A    
H4    N3    S    
C3    C21   S    
C4    C6    A    
H6    N4    S    
O9    Zn2   S    
C4    C20   S    
C3    C5    A    
C21   O11   A    
C19   O4    S    
C8    C10   A    
C5    H8    S    
C13   C16   A    
C1    O1    A    
C7    C9    A    
C2    C13   A    
C17   O2    S    
C11   C17   A    
H14   O3    S    
C20   O10   A    
O11   Zn1   S    
C22   H1    S    
C15   H11   S    
C7    C14   A    
C16   O12   S    
C14   H10   S    
C12   O5    A    
C3    C22   A    
C10   C13   A    
