data_mof_unit_60952.cif
_audit_creation_date              2012-12-10T16:52:01-0500
_audit_creation_method            fapswitch 2.2
_symmetry_space_group_name_H-M    P1
_symmetry_Int_Tables_number       1
_space_group_crystal_system       triclinic
_cell_length_a                    18.388128
_cell_length_b                    18.388018
_cell_length_c                    18.379743
_cell_angle_alpha                 90.803505
_cell_angle_beta                  119.580967
_cell_angle_gamma                 119.512464
_cell_volume                      4423.37732356

loop_
_atom_site_label
_atom_site_type_symbol
_atom_type_description
_atom_site_fract_x
_atom_site_fract_y
_atom_site_fract_z
_atom_type_partial_charge
C1    C     C_R   0.777021 0.638199 0.638591 0.511277
C2    C     C_2   0.112307 0.307758 0.309311 -0.090461
C3    C     C_2   0.440057 0.162600 0.718689 -0.156342
C4    C     C_R   0.223008 0.361588 0.361916 0.520641
C5    C     C_2   0.504428 0.195409 0.807704 -0.091373
C6    C     C_2   0.442568 0.218815 0.662537 -0.155916
C7    C     C_2   0.498769 0.307779 0.695501 -0.089870
C8    C     C_2   0.056134 0.775980 0.718695 -0.150352
C9    C     C_2   0.112350 0.809014 0.807723 -0.090380
C10   C     C_2   0.943756 0.722271 0.662553 -0.152773
C11   C     C_2   0.887760 0.691081 0.695506 -0.091335
C12   C     C_3   0.592005 0.826626 0.799748 -0.129848
C13   C     C_2   0.436977 0.161096 0.220219 -0.159250
C14   C     C_2   0.508205 0.195339 0.203964 -0.084560
C15   C     C_2   0.441461 0.216776 0.280346 -0.158934
C16   C     C_R   0.500387 0.638828 0.361855 0.508497
C17   C     C_2   0.491552 0.304200 0.296247 -0.084086
C18   C     C_2   0.442750 0.780138 0.223888 -0.155585
C19   C     C_2   0.498873 0.803350 0.191055 -0.091074
C20   C     C_2   0.440229 0.721485 0.277602 -0.156513
C21   C     C_2   0.504425 0.696708 0.309018 -0.091973
C22   C     C_R   0.500441 0.138583 0.861590 0.511839
C23   C     C_3   0.521552 0.789896 0.696708 -0.153299
C24   C     C_R   0.499857 0.861228 0.138205 0.514265
C25   C     C_R   0.777077 0.138596 0.138191 0.511859
C26   C     C_R   0.223071 0.861845 0.861593 0.516590
C27   C     C_R   0.501234 0.140874 0.142184 0.517813
C28   C     C_R   0.499770 0.361591 0.638588 0.517701
C29   C     C_R   0.500010 0.858326 0.858255 0.517286
C30   C     C_R   0.498749 0.359028 0.357902 0.517976
C31   C     C_R   0.499780 0.641443 0.641770 0.547183
C32   C     C_3   0.569298 0.733859 0.801609 -0.132999
C33   C     C_3   0.476560 0.708649 0.803555 -0.125766
C34   C     C_3   0.428671 0.764764 0.698356 -0.113196
C35   C     C_3   0.499286 0.800576 0.800695 0.047476
C36   C     C_2   0.302716 0.587462 0.647252 0.573031
C37   C     C_3   0.407267 0.672937 0.701012 0.065084
C38   C     C_3   0.498892 0.697824 0.699178 0.043323
C39   C     C_2   0.943923 0.162628 0.222664 -0.156607
C40   C     C_2   0.887786 0.195439 0.190978 -0.091262
C41   C     C_2   0.056268 0.218820 0.276277 -0.157432
H1    H     H_    0.457717 0.675800 0.847819 0.128846
H2    H     H_    0.921782 0.702335 0.765743 0.107847
H3    H     H_    0.374611 0.090936 0.189845 0.160140
H4    H     H_    0.627186 0.720797 0.843587 0.137351
H5    H     H_    0.574657 0.263726 0.237574 0.109026
H6    H     H_    0.401965 0.184852 0.310958 0.159399
H7    H     H_    0.526069 0.336970 0.262441 0.107532
H8    H     H_    0.395270 0.803931 0.210307 0.157366
H9    H     H_    0.544944 0.779226 0.200906 0.107785
H10   H     H_    0.383809 0.699037 0.292388 0.158079
H11   H     H_    0.563480 0.719502 0.297950 0.108338
H12   H     H_    0.078325 0.343933 0.299830 0.111456
H13   H     H_    0.668299 0.890934 0.841339 0.121827
H14   H     H_    0.540187 0.822679 0.652331 0.121241
H15   H     H_    0.370591 0.777630 0.656341 0.140581
H16   H     H_    0.906660 0.091437 0.208104 0.157404
H17   H     H_    0.921709 0.265538 0.201748 0.109757
H18   H     H_    0.093619 0.184924 0.289598 0.156263
H19   H     H_    0.207909 0.464618 0.556570 0.337007
H20   H     H_    0.383521 0.091393 0.684702 0.156673
H21   H     H_    0.563601 0.265530 0.843969 0.108876
H22   H     H_    0.395024 0.184900 0.591211 0.155830
H23   H     H_    0.544871 0.344015 0.765748 0.108644
H24   H     H_    0.093355 0.789377 0.684693 0.161302
H25   H     H_    0.078500 0.799320 0.844021 0.106092
H26   H     H_    0.906333 0.707281 0.591234 0.159566
O1    O     O_3   0.500000 0.500000 0.500000 -0.449007
O2    O     O_R   0.270900 0.886160 0.946260 -0.541631
O3    O     O_R   0.560160 0.177420 0.117340 -0.539631
O4    O     O_R   0.729180 0.615300 0.675360 -0.543645
O5    O     O_R   0.440020 0.882760 0.822680 -0.541064
O6    O     O_R   0.439990 0.057240 0.117340 -0.545762
O7    O     O_R   0.560190 0.882760 0.942820 -0.542488
O8    O     O_R   0.729270 0.053840 0.113900 -0.542015
O9    O     O_R   0.270910 0.884750 0.824690 -0.537665
O10   O     O_R   0.560170 0.175430 0.946260 -0.539235
O11   O     O_R   0.440000 0.886160 0.115330 -0.540251
O12   O     O_R   0.439910 0.615300 0.386140 -0.545257
O13   O     O_R   0.270820 0.446200 0.386140 -0.525123
O14   O     O_R   0.560090 0.613880 0.384720 -0.542265
O15   O     O_R   0.439920 0.324620 0.553780 -0.541097
O16   O     O_R   0.560100 0.442800 0.382710 -0.540458
O17   O     O_R   0.560070 0.617290 0.677370 -0.547578
O18   O     O_R   0.439930 0.322630 0.382710 -0.547513
O19   O     O_R   0.439900 0.617290 0.557220 -0.509445
O20   O     O_2   0.236739 0.578334 0.655086 -0.515172
O21   O     O_R   0.281084 0.518678 0.588964 -0.687311
O22   O     O_R   0.560080 0.446200 0.675360 -0.537428
O23   O     O_R   0.729180 0.613880 0.553780 -0.539756
O24   O     O_R   0.270820 0.324620 0.384720 -0.542735
O25   O     O_3   0.500090 0.000040 0.000040 -0.446448
O26   O     O_R   0.440010 0.053840 0.824690 -0.542995
O27   O     O_R   0.560180 0.884750 0.113900 -0.540583
O28   O     O_R   0.729260 0.175430 0.115330 -0.539242
Zn1   Zn    Zn3+2 0.414150 0.543930 0.458110 0.966925
Zn2   Zn    Zn3+2 0.585850 0.541910 0.456060 0.939912
Zn3   Zn    Zn3+2 0.414160 0.370220 0.456060 0.941420
Zn4   Zn    Zn3+2 0.585840 0.543930 0.629770 0.950335
Zn5   Zn    Zn3+2 0.585940 0.956110 0.041940 0.940516
Zn6   Zn    Zn3+2 0.585930 0.129820 0.043980 0.945929
Zn7   Zn    Zn3+2 0.414240 0.958130 0.043980 0.939883
Zn8   Zn    Zn3+2 0.414250 0.956110 0.870280 0.942992

loop_
_geom_bond_atom_site_label_1
_geom_bond_atom_site_label_2
_ccdc_geom_bond_type
C34   H15   S    
C1    O23   A    
O11   Zn7   S    
C34   C37   S    
C32   H4    S    
O10   Zn6   S    
C1    C11   S    
C17   H7    S    
C15   H6    S    
C3    C6    S    
O26   Zn8   S    
H19   O21   S    
O3    Zn6   S    
C14   H5    S    
C10   H26   S    
C36   O21   S    
C12   C23   S    
C1    O4    A    
O22   Zn4   S    
C33   H1    S    
C36   C37   S    
C4    O13   A    
C20   H10   S    
C25   C40   S    
C2    C41   D    
C39   H16   S    
C34   C35   S    
C30   O16   A    
C9    H25   S    
C16   O14   A    
O18   Zn3   S    
O25   Zn8   S    
O1    Zn2   S    
C5    C22   S    
C8    C9    D    
C26   O9    A    
C11   H2    S    
C28   O22   A    
C32   C38   S    
C14   C27   S    
O13   Zn1   S    
O23   Zn2   S    
O25   Zn7   S    
C29   O5    A    
O9    Zn8   S    
C8    H24   S    
C31   O19   A    
C13   C14   D    
C12   C32   S    
C17   C30   S    
O15   Zn3   S    
C9    C26   S    
C3    H20   S    
C36   O20   D    
C40   H17   S    
C28   O15   A    
C41   H18   S    
C39   C41   S    
C39   C40   D    
C18   C19   D    
O7    Zn5   S    
C29   O7    A    
O2    Zn7   S    
O4    Zn4   S    
C33   C37   S    
C7    C28   S    
C30   O18   A    
C6    H22   S    
C2    C4    S    
C37   C38   S    
C24   O27   A    
O27   Zn5   S    
C23   C34   S    
O1    Zn1   S    
C12   C35   S    
C27   O3    A    
O19   Zn1   S    
O25   Zn6   S    
C24   O11   A    
O6    Zn7   S    
C25   O28   A    
C13   C15   S    
C22   O26   A    
O25   Zn5   S    
C15   C17   D    
O17   Zn4   S    
C22   O10   A    
C3    C5    D    
C2    H12   S    
C16   C21   S    
C23   H14   S    
C6    C7    D    
O5    Zn8   S    
C23   C38   S    
C29   C35   S    
C31   C38   S    
C16   O12   A    
C32   C33   S    
C4    O24   A    
C19   C24   S    
O1    Zn4   S    
O12   Zn1   S    
C19   H9    S    
O14   Zn2   S    
O8    Zn5   S    
C33   C35   S    
C5    H21   S    
C18   C20   S    
C13   H3    S    
O24   Zn3   S    
O1    Zn3   S    
C7    H23   S    
C10   C11   D    
C31   O17   A    
C20   C21   D    
C8    C10   S    
O16   Zn2   S    
C26   O2    A    
C25   O8    A    
C27   O6    A    
C21   H11   S    
C12   H13   S    
O28   Zn6   S    
C18   H8    S    
