data_mof_unit_41286.cif
_audit_creation_date              2012-12-10T18:50:44-0500
_audit_creation_method            fapswitch 2.2
_symmetry_space_group_name_H-M    P1
_symmetry_Int_Tables_number       1
_space_group_crystal_system       triclinic
_cell_length_a                    10.548021
_cell_length_b                    10.104371
_cell_length_c                    15.697931
_cell_angle_alpha                 91.334962
_cell_angle_beta                  93.118418
_cell_angle_gamma                 88.53766
_cell_volume                      1669.67913104

loop_
_atom_site_label
_atom_site_type_symbol
_atom_type_description
_atom_site_fract_x
_atom_site_fract_y
_atom_site_fract_z
_atom_type_partial_charge
C1    C     C_R   0.261192 0.501230 0.499303 1.071975
C2    C     C_3   0.645903 0.446126 0.959546 0.095006
C3    C     C_3   0.630325 0.446964 0.061339 0.688118
C4    C     C_1   0.508588 0.498692 0.825818 0.172473
C5    C     C_1   0.487437 0.497969 0.174865 0.097277
C6    C     C_1   0.491994 0.497177 0.250258 -0.171203
C7    C     C_R   0.058636 0.538578 0.424981 0.228518
C8    C     C_R   0.073200 0.460575 0.572837 0.268114
C9    C     C_R   0.926720 0.529188 0.423375 0.268712
C10   C     C_R   0.941123 0.463980 0.573897 0.235249
C11   C     C_R   0.871511 0.495797 0.498681 -0.204483
C12   C     C_R   0.128306 0.502833 0.499531 -0.209754
C13   C     C_R   0.582237 0.071472 0.554132 0.148811
C14   C     C_R   0.578176 0.928624 0.556734 0.183206
C15   C     C_R   0.498061 0.498875 0.339026 0.929708
C16   C     C_R   0.416902 0.928769 0.447119 0.122211
C17   C     C_R   0.427701 0.069599 0.440109 0.175397
C18   C     C_R   0.738668 0.498594 0.499622 1.078170
C19   C     C_R   0.501046 0.501024 0.661171 0.928002
C20   C     C_3   0.466455 0.653189 0.052578 0.099259
C21   C     C_3   0.381212 0.397452 0.040400 0.161195
C22   C     C_3   0.398944 0.394638 0.939196 0.608132
C23   C     C_3   0.468335 0.643244 0.949552 0.725047
C24   C     C_1   0.504920 0.501716 0.750263 -0.154539
C25   C     C_3   0.488870 0.499868 0.082922 -0.126244
C26   C     C_3   0.507587 0.495299 0.918101 -0.079839
N1    N     N_R   0.499970 0.857200 0.499980 -0.137397
N2    N     N_R   0.499970 0.142800 0.499980 -0.133293
O1    O     O_R   0.316750 0.614620 0.499990 -0.624131
O2    O     O_R   0.316750 0.385380 0.499990 -0.601715
O3    O     O_R   0.499990 0.614720 0.377140 -0.623312
O4    O     O_R   0.499990 0.385280 0.377140 -0.636158
O5    O     O_R   0.683220 0.614710 0.500000 -0.633951
O6    O     O_R   0.683220 0.385290 0.500000 -0.628402
O7    O     O_R   0.499980 0.614620 0.622860 -0.627341
O8    O     O_R   0.499980 0.385380 0.622860 -0.632843
Zn1   Zn    Zn3+2 0.499980 0.653120 0.500000 0.949416
Zn2   Zn    Zn3+2 0.499980 0.346880 0.500000 0.954302
O9    O     O_3   0.351735 0.681705 0.907527 -0.749582
H1    H     H_    0.281638 0.641189 0.934465 0.369095
O10   O     O_3   0.284439 0.430810 0.893019 -0.801033
H2    H     H_    0.230134 0.352062 0.885202 0.349545
C27   C     C_3   0.298991 0.863203 0.407717 -0.335537
C28   C     C_3   0.191298 0.875713 0.469130 -0.787617
H3    H     H_    0.108217 0.819635 0.443274 0.254673
H4    H     H_    0.221780 0.837761 0.532991 0.274566
H5    H     H_    0.160971 0.981021 0.477086 0.234276
H6    H     H_    0.262233 0.905919 0.346937 0.176086
H7    H     H_    0.319124 0.759659 0.389616 0.270066
C29   C     C_3   0.382650 0.128294 0.355094 -0.351681
C30   C     C_3   0.254267 0.202329 0.356098 -0.757183
H8    H     H_    0.189863 0.165083 0.303023 0.217890
H9    H     H_    0.266328 0.309415 0.346281 0.267047
H10   H     H_    0.207344 0.188802 0.416761 0.257630
H11   H     H_    0.457664 0.185176 0.328769 0.224776
H12   H     H_    0.377310 0.050929 0.303906 0.144043
C31   C     C_3   0.344602 0.718370 0.096468 -0.345298
C32   C     C_3   0.251254 0.813072 0.048413 -0.870938
H13   H     H_    0.297949 0.870810 0.000519 0.303831
H14   H     H_    0.169781 0.759655 0.017726 0.245720
H15   H     H_    0.207410 0.882205 0.094984 0.237252
H16   H     H_    0.290265 0.647904 0.128853 0.209800
H17   H     H_    0.375058 0.772537 0.156192 0.202089
C33   C     C_3   0.236373 0.435382 0.057940 -0.324987
C34   C     C_3   0.191149 0.425708 0.150019 -0.890008
H18   H     H_    0.266665 0.393159 0.196726 0.269884
H19   H     H_    0.149184 0.521048 0.172603 0.256452
H20   H     H_    0.112852 0.354561 0.151732 0.238583
H21   H     H_    0.204240 0.530356 0.031109 0.192574
H22   H     H_    0.173510 0.368361 0.019132 0.221980
C35   C     C_3   0.401794 0.251926 0.077129 -0.174506
C36   C     C_3   0.295043 0.153471 0.058646 -0.938457
H23   H     H_    0.210130 0.176104 0.094934 0.263137
H24   H     H_    0.268066 0.144631 0.989511 0.297028
H25   H     H_    0.330677 0.056995 0.081562 0.247418
H26   H     H_    0.483869 0.199511 0.050555 0.266001
H27   H     H_    0.421328 0.255317 0.147273 0.200751
C37   C     C_3   0.577170 0.747654 0.090454 -0.236221
C38   C     C_3   0.555539 0.898799 0.084599 -0.881921
H28   H     H_    0.648506 0.948582 0.089195 0.250296
H29   H     H_    0.502256 0.938449 0.138940 0.241976
H30   H     H_    0.506192 0.927823 0.023826 0.281996
H31   H     H_    0.598302 0.727354 0.159123 0.226573
H32   H     H_    0.666388 0.731209 0.059792 0.251251
O11   O     O_3   0.431282 0.265231 0.910278 -0.848164
H33   H     H_    0.424376 0.261929 0.846911 0.347743
O12   O     O_3   0.559274 0.729378 0.920516 -0.810619
H34   H     H_    0.517356 0.813666 0.901816 0.371240
O13   O     O_3   0.721097 0.527787 0.105511 -0.827976
H35   H     H_    0.807649 0.488358 0.101492 0.318657
O14   O     O_3   0.648452 0.319030 0.095384 -0.829576
H36   H     H_    0.739661 0.296143 0.105649 0.342668
C39   C     C_3   0.759492 0.538085 0.935758 -0.268587
C40   C     C_3   0.784839 0.551554 0.840989 -0.835856
H37   H     H_    0.883956 0.583352 0.835047 0.240818
H38   H     H_    0.772448 0.457578 0.804318 0.266904
H39   H     H_    0.722185 0.629145 0.811610 0.276406
H40   H     H_    0.754239 0.638566 0.962204 0.236059
H41   H     H_    0.849984 0.501252 0.966727 0.190987
C41   C     C_3   0.684974 0.300869 0.925499 -0.279962
C42   C     C_3   0.825727 0.255672 0.935995 -0.929982
H42   H     H_    0.868126 0.278869 0.000474 0.243291
H43   H     H_    0.833449 0.146741 0.925296 0.256375
H44   H     H_    0.883427 0.301153 0.888013 0.270670
H45   H     H_    0.634587 0.223380 0.957345 0.266248
H46   H     H_    0.657377 0.289531 0.856543 0.201435
O15   O     O_3   0.122346 0.579299 0.355840 -0.817256
H47   H     H_    0.065771 0.639462 0.321373 0.343091
O16   O     O_3   0.150727 0.418242 0.641277 -0.753597
H48   H     H_    0.105470 0.351126 0.672234 0.342994
O17   O     O_3   0.849467 0.549865 0.350595 -0.760579
H49   H     H_    0.898101 0.527075 0.299857 0.350982
O18   O     O_3   0.877238 0.440228 0.646409 -0.814919
H50   H     H_    0.934222 0.458195 0.697278 0.348993
C43   C     C_3   0.690920 0.141096 0.602741 -0.341546
C44   C     C_3   0.814095 0.124281 0.555701 -0.834202
H51   H     H_    0.802068 0.165631 0.490817 0.274626
H52   H     H_    0.891800 0.176647 0.591865 0.269099
H53   H     H_    0.843137 0.018543 0.548735 0.233848
H54   H     H_    0.671079 0.246311 0.612633 0.279625
H55   H     H_    0.706584 0.106153 0.668807 0.181812
C45   C     C_3   0.649196 0.858886 0.630191 -0.374423
C46   C     C_3   0.577031 0.875756 0.711971 -0.834785
H56   H     H_    0.481967 0.831225 0.703806 0.293256
H57   H     H_    0.631725 0.826973 0.765154 0.260770
H58   H     H_    0.563094 0.981701 0.729934 0.238912
H59   H     H_    0.665754 0.753856 0.616615 0.264521
H60   H     H_    0.746932 0.894556 0.641917 0.186986

loop_
_geom_bond_atom_site_label_1
_geom_bond_atom_site_label_2
_ccdc_geom_bond_type
C9    O17   S    
O12   H34   S    
C11   C18   S    
C42   H42   S    
C14   C45   S    
O10   H2    S    
O17   H49   S    
C35   H27   S    
C46   H56   S    
O11   H33   S    
C41   H45   S    
C39   C40   S    
C21   C35   S    
C43   H55   S    
O7    Zn1   S    
N1    Zn1   S    
C19   O8    A    
C5    C6    T    
C4    C24   T    
C23   C26   S    
C22   O10   S    
C20   C25   S    
C32   H14   S    
C43   C44   S    
C44   H51   S    
O2    Zn2   S    
C3    O14   S    
C22   O11   S    
C45   H59   S    
C41   C42   S    
C21   C33   S    
C13   C14   A    
C6    C15   S    
C37   H31   S    
C16   C17   A    
C34   H19   S    
O15   H47   S    
C13   N2    A    
O4    Zn2   S    
C14   N1    A    
C27   H6    S    
C39   H41   S    
C28   H5    S    
C32   H15   S    
C2    C41   S    
C42   H43   S    
C23   O12   S    
C21   C22   S    
C1    C12   S    
C36   H25   S    
C28   H4    S    
C31   H17   S    
C7    C12   A    
C30   H8    S    
C3    C25   S    
C36   H24   S    
O9    H1    S    
C38   H29   S    
C37   C38   S    
C27   H7    S    
C46   H58   S    
C40   H39   S    
C31   H16   S    
C32   H13   S    
C29   H12   S    
O3    Zn1   S    
C30   H9    S    
C27   C28   S    
C18   O6    A    
C20   C23   S    
N2    Zn2   S    
C8    C12   A    
C34   H20   S    
C1    O1    A    
C29   C30   S    
C2    C26   S    
C33   H21   S    
C40   H38   S    
C9    C11   A    
C16   C27   S    
C13   C43   S    
C10   O18   S    
C5    C25   S    
C43   H54   S    
C42   H44   S    
C33   H22   S    
C7    O15   S    
O14   H36   S    
C28   H3    S    
O18   H50   S    
C7    C9    A    
C21   C25   S    
O6    Zn2   S    
C17   N2    A    
C2    C39   S    
C36   H23   S    
C15   O4    A    
C17   C29   S    
C38   H30   S    
C4    C26   S    
C15   O3    A    
C41   H46   S    
C29   H11   S    
C44   H53   S    
C20   C37   S    
C3    O13   S    
C30   H10   S    
C33   C34   S    
O8    Zn2   S    
C19   C24   S    
C20   C31   S    
C35   C36   S    
C19   O7    A    
O16   H48   S    
C31   C32   S    
C35   H26   S    
C16   N1    A    
C23   O9    S    
C1    O2    A    
C44   H52   S    
C2    C3    S    
C45   H60   S    
C40   H37   S    
C18   O5    A    
O5    Zn1   S    
C46   H57   S    
C10   C11   A    
C38   H28   S    
C37   H32   S    
C8    C10   A    
C34   H18   S    
C22   C26   S    
O1    Zn1   S    
C45   C46   S    
O13   H35   S    
C8    O16   S    
C39   H40   S    
