data_mof_unit_6382.cif
_audit_creation_date              2012-12-11T16:32:21-0500
_audit_creation_method            fapswitch 2.2
_symmetry_space_group_name_H-M    P1
_symmetry_Int_Tables_number       1
_space_group_crystal_system       triclinic
_cell_length_a                    6.95849
_cell_length_b                    14.324261
_cell_length_c                    15.985133
_cell_angle_alpha                 90.020428
_cell_angle_beta                  89.77027
_cell_angle_gamma                 89.932099
_cell_volume                      1593.3077289

loop_
_atom_site_label
_atom_site_type_symbol
_atom_type_description
_atom_site_fract_x
_atom_site_fract_y
_atom_site_fract_z
_atom_type_partial_charge
O1    O     O_R   0.361630 0.167340 0.164570 -0.528843
O2    O     O_R   0.638370 0.832660 0.835430 -0.546028
O3    O     O_R   0.690860 0.157560 0.338690 -0.538541
O4    O     O_R   0.309140 0.842440 0.661310 -0.540018
O5    O     O_R   0.861260 0.336420 0.339380 -0.540390
O6    O     O_R   0.138740 0.663580 0.660620 -0.541393
C1    C     C_R   0.521667 0.134597 0.367868 0.661260
C2    C     C_R   0.478310 0.865335 0.632071 0.662818
O7    O     O_R   0.691330 0.156310 0.165190 -0.548105
O8    O     O_R   0.308670 0.843690 0.834810 -0.532550
O9    O     O_R   0.861730 0.335160 0.164640 -0.541321
O10   O     O_R   0.138270 0.664840 0.835360 -0.525316
C3    C     C_R   0.523122 0.137190 0.134115 0.757549
C4    C     C_R   0.476624 0.861901 0.866533 0.751434
O11   O     O_R   0.361150 0.168600 0.339320 -0.539079
O12   O     O_R   0.638850 0.831400 0.660680 -0.537129
O13   O     O_3   0.527950 0.310560 0.252000 -0.364543
O14   O     O_3   0.472050 0.689440 0.748000 -0.365058
V1    V     V_3+5 0.802770 0.240990 0.251980 1.402252
V2    V     V_3+5 0.197230 0.759010 0.748020 1.424255
O15   O     O_R   0.191450 0.346190 0.165260 -0.531055
O16   O     O_R   0.808550 0.653810 0.834740 -0.546091
C5    C     C_R   0.022488 0.369475 0.137873 0.702456
C6    C     C_R   0.977740 0.629587 0.861277 0.701735
O17   O     O_R   0.190980 0.347440 0.338770 -0.542206
O18   O     O_R   0.809020 0.652560 0.661230 -0.542143
C7    C     C_R   0.021684 0.369823 0.367419 0.666743
C8    C     C_R   0.978368 0.629756 0.633019 0.665866
V3    V     V_3+5 0.302780 0.262760 0.251980 1.422777
V4    V     V_3+5 0.697220 0.737240 0.748020 1.401302
O19   O     O_3   0.027730 0.193200 0.251960 -0.368574
O20   O     O_3   0.972270 0.806800 0.748040 -0.368193
C9    C     C_3   0.821816 0.479976 0.474039 -0.113937
C10   C     C_3   0.178217 0.519095 0.527075 -0.110956
C11   C     C_3   0.897461 0.462340 0.563601 -0.140784
C12   C     C_3   0.102510 0.536837 0.437532 -0.152370
H1    H     H_    0.810130 0.433483 0.615656 0.099182
H2    H     H_    0.188398 0.566797 0.385414 0.108097
H3    H     H_    0.674585 0.463786 0.451811 0.110515
H4    H     H_    0.325412 0.535310 0.549333 0.109281
C13   C     C_3   0.990113 0.559753 0.563145 0.002584
C14   C     C_3   0.009958 0.439328 0.437882 -0.001950
C15   C     C_3   0.914348 0.578219 0.474548 -0.153541
C16   C     C_3   0.085532 0.420807 0.526671 -0.145776
H5    H     H_    0.841999 0.643845 0.455353 0.103169
H6    H     H_    0.156684 0.355242 0.546798 0.102143
C17   C     C_R   0.973426 0.693353 0.031151 -0.189037
C18   C     C_R   0.046788 0.306136 0.967749 -0.202529
C19   C     C_R   0.960554 0.726741 0.112581 -0.110573
C20   C     C_R   0.058487 0.272791 0.886243 -0.104198
C21   C     C_R   0.956536 0.664844 0.179712 0.215884
C22   C     C_R   0.048729 0.334319 0.818802 0.218243
C23   C     C_R   0.972906 0.568572 0.165057 -0.167099
C24   C     C_R   0.023889 0.430090 0.833528 -0.173470
C25   C     C_R   0.988282 0.533006 0.082718 -0.003567
C26   C     C_R   0.011699 0.465743 0.915992 0.000720
C27   C     C_R   0.981599 0.596389 0.014474 0.046896
C28   C     C_R   0.023969 0.402579 0.984322 0.046005
C29   C     C_R   0.012154 0.436206 0.067481 -0.149792
C30   C     C_R   0.988670 0.562608 0.931363 -0.147101
H7    H     H_    0.976961 0.744623 0.981486 0.119263
H8    H     H_    0.058631 0.255399 0.017606 0.122136
H9    H     H_    0.951613 0.801332 0.123271 0.135470
H10   H     H_    0.077175 0.198566 0.875971 0.131532
H11   H     H_    0.973851 0.522011 0.218399 0.097919
H12   H     H_    0.015885 0.476185 0.779953 0.100896
C31   C     C_3   0.322013 0.026825 0.478663 -0.107085
C32   C     C_3   0.677867 0.973002 0.521165 -0.105663
C33   C     C_3   0.399569 0.925370 0.474116 -0.142879
C34   C     C_3   0.600295 0.074457 0.525729 -0.140959
H13   H     H_    0.316370 0.863865 0.452567 0.097472
H14   H     H_    0.683481 0.135967 0.547273 0.098359
H15   H     H_    0.174323 0.048780 0.461378 0.108964
H16   H     H_    0.825564 0.951051 0.538443 0.108881
C35   C     C_3   0.489754 0.937155 0.561521 -0.009476
C36   C     C_3   0.510133 0.062682 0.438327 -0.010138
C37   C     C_3   0.412250 0.037960 0.566685 -0.145432
C38   C     C_3   0.587599 0.961868 0.433140 -0.147117
H17   H     H_    0.339218 0.069526 0.621722 0.097840
H18   H     H_    0.660233 0.930261 0.378007 0.101922
H19   H     H_    0.442741 0.834898 0.259199 0.121869
H20   H     H_    0.508616 0.166687 0.741681 0.126487
C39   C     C_R   0.540311 0.193133 0.953036 0.265350
C40   C     C_R   0.482645 0.804854 0.048134 0.272588
C41   C     C_R   0.535937 0.215673 0.867305 -0.106725
C42   C     C_R   0.462713 0.783637 0.133925 -0.109174
C43   C     C_R   0.511588 0.147570 0.807205 -0.204103
C44   C     C_R   0.456569 0.853100 0.193687 -0.212465
C45   C     C_R   0.494954 0.054934 0.830293 -0.149467
C46   C     C_R   0.474600 0.945542 0.170500 -0.142645
C47   C     C_R   0.499987 0.027139 0.915317 0.040160
C48   C     C_R   0.492018 0.972163 0.085498 0.038674
C49   C     C_R   0.519223 0.096974 0.978743 -0.008356
C50   C     C_R   0.488433 0.901587 0.022117 -0.014801
C51   C     C_R   0.487910 0.930631 0.936232 -0.171435
C52   C     C_R   0.513365 0.068222 0.064559 -0.171542
H21   H     H_    0.554607 0.286541 0.845588 0.131410
H22   H     H_    0.457249 0.712600 0.156490 0.130346
H23   H     H_    0.478716 0.005361 0.779798 0.103176
H24   H     H_    0.473632 0.995915 0.220894 0.102340
N1    N     N_2   0.579998 0.265237 0.012364 -0.521540
H25   H     H_    0.711453 0.256702 0.040206 0.263887
C53   C     C_3   0.540100 0.361996 0.992236 -0.528167
H26   H     H_    0.543822 0.404544 0.050260 0.208426
H27   H     H_    0.397537 0.369465 0.963450 0.211214
H28   H     H_    0.648508 0.389539 0.947908 0.189233
N2    N     N_2   0.511467 0.730393 0.989433 -0.519825
H29   H     H_    0.638470 0.737162 0.957319 0.264036
C54   C     C_3   0.480246 0.634138 0.013886 -0.536071
H30   H     H_    0.481381 0.588959 0.957407 0.206874
H31   H     H_    0.340685 0.626173 0.045752 0.212505
H32   H     H_    0.595175 0.610308 0.056721 0.192488
C55   C     C_3   0.066860 0.298328 0.731044 -0.836135
H33   H     H_    0.097009 0.222149 0.729770 0.208945
H34   H     H_    0.930791 0.310856 0.697050 0.205227
H35   H     H_    0.186773 0.334731 0.698789 0.206939
C56   C     C_3   0.935310 0.702595 0.266600 -0.843996
H36   H     H_    0.804456 0.746819 0.270823 0.213105
H37   H     H_    0.920497 0.645222 0.312303 0.208224
H38   H     H_    0.063127 0.745161 0.282836 0.211125

loop_
_geom_bond_atom_site_label_1
_geom_bond_atom_site_label_2
_ccdc_geom_bond_type
N1    H25   S    
C19   H9    S    
C25   C29   A    
C20   H10   S    
C12   C14   S    
C31   C37   S    
O4    C2    A    
V1    O19   S    
C17   C19   A    
C22   C55   S    
C32   C35   S    
C5    C29   S    
O9    V1    S    
C24   H12   S    
C9    H3    S    
C45   H23   S    
C10   H4    S    
C9    C14   S    
C11   H1    S    
C36   C38   S    
O3    C1    A    
C54   H31   S    
C9    C11   S    
C38   H18   S    
C17   C27   A    
C32   H16   S    
H20   C43   S    
C39   C49   A    
C8    C13   S    
C48   C52   A    
C40   N2    S    
O13   V3    S    
C2    O12   A    
O9    C5    A    
C33   H13   S    
O7    C3    A    
C21   C56   S    
O5    C7    A    
C18   H8    S    
O7    V1    S    
O6    C8    A    
O8    V2    S    
C19   C21   A    
C20   C22   A    
N2    H29   S    
O3    V1    S    
O14   V4    S    
C45   C47   A    
C23   H11   S    
O14   V2    S    
C55   H35   S    
C37   H17   S    
N1    C53   S    
C34   C37   S    
O17   V3    S    
C13   C15   S    
C33   C38   S    
C10   C13   S    
C14   C16   S    
O2    C4    A    
C46   H24   S    
C22   C24   A    
O11   V3    S    
C23   C25   A    
O15   C5    A    
C32   C38   S    
C24   C26   A    
C3    C52   S    
C9    C15   S    
C10   C16   S    
O8    C4    A    
C54   H32   S    
C27   C30   A    
C1    O11   A    
C16   H6    S    
C28   C29   A    
O15   V3    S    
C2    C35   S    
C26   C30   A    
C21   C23   A    
C47   C49   A    
C15   H5    S    
C46   C48   A    
C6    C30   S    
O10   V2    S    
O1    V3    S    
C53   H27   S    
C40   C50   A    
C11   C16   S    
C35   C37   S    
C11   C13   S    
C31   H15   S    
C39   C41   A    
C44   C46   A    
O18   V4    S    
C49   C52   A    
C25   C27   A    
C34   C36   S    
O16   C6    A    
C56   H38   S    
O1    C3    A    
C12   H2    S    
C4    C51   S    
C55   H33   S    
V2    O20   S    
C39   N1    S    
C40   C42   A    
C17   H7    S    
C18   C28   A    
C1    C36   S    
O5    V1    S    
O17   C7    A    
O6    V2    S    
O10   C6    A    
O18   C8    A    
O2    V4    S    
C56   H37   S    
V3    O19   S    
O16   V4    S    
C56   H36   S    
V4    O20   S    
C7    C14   S    
C48   C50   A    
N2    C54   S    
C18   C20   A    
O13   V1    S    
C10   C12   S    
C26   C28   A    
C33   C35   S    
C53   H28   S    
C42   C44   A    
C50   C51   A    
C42   H22   S    
H19   C44   S    
C41   H21   S    
C47   C51   A    
O4    V2    S    
C41   C43   A    
C32   C34   S    
C53   H26   S    
C43   C45   A    
C12   C15   S    
C34   H14   S    
C31   C36   S    
C31   C33   S    
C54   H30   S    
O12   V4    S    
C55   H34   S    
