data_mof_unit_54880.cif
_audit_creation_date              2012-10-26T20:00:56-0400
_audit_creation_method            fapswitch 2.2
_symmetry_space_group_name_H-M    P1
_symmetry_Int_Tables_number       1
_space_group_crystal_system       triclinic
_cell_length_a                    11.644149
_cell_length_b                    12.9954
_cell_length_c                    13.427615
_cell_angle_alpha                 92.08603
_cell_angle_beta                  75.576606
_cell_angle_gamma                 100.483285
_cell_volume                      1934.89839306

loop_
_atom_site_label
_atom_site_type_symbol
_atom_type_description
_atom_site_fract_x
_atom_site_fract_y
_atom_site_fract_z
_atom_type_partial_charge
C1    C     C_R   0.523052 0.701285 0.498152 0.566290
C2    C     C_R   0.391342 0.495989 0.812039 -0.002519
C3    C     C_R   0.465182 0.185583 0.499803 0.004644
C4    C     C_R   0.434626 0.497939 0.697246 0.528819
C5    C     C_R   0.538927 0.815493 0.493088 0.002938
C6    C     C_R   0.662709 0.988412 0.462320 -0.106322
C7    C     C_R   0.654212 0.880429 0.465690 0.089653
C8    C     C_R   0.434850 0.860747 0.514009 -0.137768
C9    C     C_R   0.443980 0.968646 0.508654 0.042305
C10   C     C_R   0.558921 0.032733 0.483582 0.024256
C11   C     C_R   0.568802 0.140619 0.479592 -0.120130
C12   C     C_R   0.446857 0.506614 0.978252 0.041886
C13   C     C_R   0.350689 0.121913 0.522835 -0.131402
C14   C     C_R   0.340103 0.013639 0.527759 -0.111794
C15   C     C_R   0.952120 0.611707 0.578608 0.045665
C16   C     C_R   0.478391 0.299052 0.498989 0.546361
C17   C     C_R   0.831450 0.598062 0.573999 0.099272
C18   C     C_R   0.853415 0.450898 0.466577 0.054618
C19   C     C_R   0.975959 0.459299 0.469140 -0.000875
C20   C     C_R   0.025124 0.540640 0.527617 0.009996
C21   C     C_R   0.146032 0.548715 0.532791 0.052012
C22   C     C_R   0.171361 0.403956 0.422411 0.068917
C23   C     C_R   0.474566 0.534085 0.872766 0.021793
C24   C     C_R   0.050596 0.390000 0.414345 -0.020487
C25   C     C_R   0.565774 0.506480 0.303191 0.563485
C26   C     C_R   0.750430 0.597884 0.034017 0.103435
C27   C     C_R   0.607650 0.521319 0.190194 -0.024712
C28   C     C_R   0.270697 0.448361 0.862449 0.013944
C29   C     C_R   0.241237 0.434593 0.969564 -0.089498
C30   C     C_R   0.327260 0.460264 0.025593 -0.122224
C31   C     C_3   0.000439 0.303511 0.348592 -0.302668
C32   C     C_3   0.088474 0.234392 0.291304 -0.439065
C33   C     C_3   0.174741 0.412256 0.802577 -0.251179
C34   C     C_R   0.539473 0.528244 0.032701 0.011569
C35   C     C_3   0.049167 0.362401 0.865069 -0.443988
C36   C     C_R   0.655671 0.582956 0.983082 0.031286
C37   C     C_R   0.673802 0.623293 0.884005 -0.112099
C38   C     C_R   0.584166 0.601530 0.831206 -0.115075
C39   C     C_R   0.519609 0.496192 0.134939 -0.156895
C40   C     C_R   0.726727 0.567011 0.138100 0.104442
Cu1   Cu    Cu3+1 0.386470 0.492430 0.492410 0.932580
Cu2   Cu    Cu3+1 0.613530 0.507570 0.507590 0.987433
H1    H     H_    0.269694 0.155833 0.538746 0.132029
H2    H     H_    0.434507 0.451575 0.174940 0.125715
H3    H     H_    0.294987 0.445257 0.107002 0.106851
H4    H     H_    0.151407 0.400865 0.012157 0.132697
H5    H     H_    0.601344 0.640488 0.757935 0.137536
H6    H     H_    0.657477 0.189570 0.460508 0.110509
H7    H     H_    0.166123 0.282163 0.237035 0.140307
H8    H     H_    0.120581 0.192118 0.346537 0.157955
H9    H     H_    0.041756 0.175285 0.246077 0.165381
H10   H     H_    0.922649 0.251583 0.398731 0.137796
H11   H     H_    0.967314 0.339993 0.290060 0.162153
H12   H     H_    0.750895 0.037901 0.441566 0.127252
H13   H     H_    0.053366 0.290379 0.905109 0.153962
H14   H     H_    0.009444 0.418884 0.921425 0.187380
H15   H     H_    0.989053 0.340132 0.812320 0.154354
H16   H     H_    0.162634 0.481082 0.762077 0.188806
H17   H     H_    0.206545 0.353423 0.745080 0.168164
H18   H     H_    0.251190 0.965331 0.546693 0.151565
H19   H     H_    0.346152 0.811997 0.534628 0.149088
H20   H     H_    0.185352 0.608125 0.578820 0.157223
H21   H     H_    0.231426 0.353337 0.382572 0.136182
H22   H     H_    0.775895 0.652836 0.612546 0.148999
H23   H     H_    0.756744 0.673154 0.845853 0.173262
H24   H     H_    0.812361 0.391042 0.421984 0.123078
I1    I     I_    0.873326 0.589687 0.212071 -0.270757
I2    I     I_    0.822263 0.827769 0.420616 -0.292967
I3    I     I_    0.018082 0.745836 0.656747 -0.412041
I4    I     I_    0.930978 0.664889 0.953161 -0.318014
N1    N     N_R   0.215880 0.481050 0.481000 -0.253643
N2    N     N_R   0.784100 0.518950 0.519000 -0.237000
O1    O     O_R   0.419710 0.645650 0.494620 -0.507738
O2    O     O_R   0.611450 0.658430 0.507430 -0.475581
O3    O     O_R   0.357340 0.490460 0.641450 -0.517156
O4    O     O_R   0.549080 0.503250 0.654260 -0.504934
O5    O     O_R   0.388550 0.341570 0.492570 -0.518988
O6    O     O_R   0.580290 0.354350 0.505380 -0.512197
O7    O     O_R   0.450920 0.496750 0.345740 -0.506190
O8    O     O_R   0.642660 0.509540 0.358550 -0.459938

loop_
_geom_bond_atom_site_label_1
_geom_bond_atom_site_label_2
_ccdc_geom_bond_type
Cu2   O8    S    
C33   H16   S    
C25   O8    A    
Cu1   Cu2   S    
C30   H3    S    
C19   C20   A    
C31   H10   S    
C12   C23   A    
C37   C38   A    
C21   N1    A    
C1    C5    S    
C1    O2    A    
C36   C37   A    
C18   C19   A    
C17   H22   S    
Cu1   O5    S    
C16   O5    A    
C4    O3    A    
C7    I2    S    
C27   C39   A    
C8    C9    A    
C40   I1    S    
C37   H23   S    
C9    C10   A    
C16   O6    A    
C3    C13   A    
C8    H19   S    
Cu1   N1    S    
C22   H21   S    
C33   H17   S    
C13   C14   A    
C11   H6    S    
C6    H12   S    
C18   N2    A    
C15   C20   A    
C15   I3    S    
Cu2   O2    S    
C35   H13   S    
C34   C39   A    
C5    C7    A    
C2    C4    S    
C9    C14   A    
C32   H9    S    
C6    C10   A    
C29   C30   A    
Cu1   O3    S    
C31   C32   S    
C27   C40   A    
Cu2   N2    S    
C21   H20   S    
C31   H11   S    
C32   H8    S    
C38   H5    S    
C39   H2    S    
C26   C36   A    
C28   C33   S    
Cu2   O6    S    
C26   I4    S    
C22   C24   A    
C25   C27   S    
C12   C34   A    
C22   N1    A    
C13   H1    S    
C15   C17   A    
C28   C29   A    
C12   C30   A    
C35   H14   S    
C25   O7    A    
Cu1   O7    S    
C5    C8    A    
C6    C7    A    
C18   H24   S    
C23   C38   A    
C14   H18   S    
Cu2   O4    S    
C29   H4    S    
C35   H15   S    
C1    O1    A    
C19   C24   A    
C24   C31   S    
C26   C40   A    
C33   C35   S    
C34   C36   A    
C32   H7    S    
C4    O4    A    
C3    C11   A    
C10   C11   A    
Cu1   O1    S    
C20   C21   A    
C17   N2    A    
C2    C23   A    
C2    C28   A    
C3    C16   S    
