data_mof_unit_57473.cif
_audit_creation_date              2012-12-11T16:43:16-0500
_audit_creation_method            fapswitch 2.2
_symmetry_space_group_name_H-M    P1
_symmetry_Int_Tables_number       1
_space_group_crystal_system       triclinic
_cell_length_a                    7.054205
_cell_length_b                    22.829306
_cell_length_c                    26.531861
_cell_angle_alpha                 105.99886
_cell_angle_beta                  91.037449
_cell_angle_gamma                 90.007088
_cell_volume                      4106.53253502

loop_
_atom_site_label
_atom_site_type_symbol
_atom_type_description
_atom_site_fract_x
_atom_site_fract_y
_atom_site_fract_z
_atom_type_partial_charge
O1    O     O_R   0.505750 0.453350 0.547660 -0.542522
O2    O     O_R   0.170990 0.432220 0.437590 -0.537557
O3    O     O_R   0.005600 0.546650 0.452340 -0.540611
C1    C     C_R   0.338159 0.415523 0.418104 0.702473
O4    O     O_R   0.175720 0.446240 0.546340 -0.541298
O5    O     O_R   0.010370 0.560770 0.561860 -0.533351
C2    C     C_R   0.344291 0.433203 0.561489 0.700789
O6    O     O_R   0.500990 0.439230 0.438140 -0.533344
O7    O     O_3   0.340820 0.537560 0.504970 -0.370461
V1    V     V_3+5 0.064050 0.493030 0.499080 1.405282
O8    O     O_R   0.680940 0.567780 0.562410 -0.536413
C3    C     C_R   0.850765 0.584574 0.581855 0.704919
O9    O     O_R   0.676210 0.553760 0.453660 -0.544136
C4    C     C_R   0.843909 0.565619 0.437498 0.683288
V2    V     V_3+5 0.564640 0.506970 0.500920 1.412140
O10   O     O_3   0.837740 0.462440 0.495030 -0.370558
C5    C     C_R   0.779555 0.883337 0.119077 -0.159532
H1    H     H_    0.649986 0.900745 0.106390 0.121966
C6    C     C_R   0.767018 0.848499 0.154954 -0.138735
H2    H     H_    0.626756 0.841417 0.167303 0.093864
C7    C     C_R   0.929902 0.824233 0.173748 0.094130
C8    C     C_R   0.105646 0.837271 0.154209 -0.133337
H3    H     H_    0.237340 0.820983 0.166085 0.092120
C9    C     C_R   0.117559 0.872274 0.118286 -0.163611
H4    H     H_    0.255732 0.880885 0.104837 0.118090
C10   C     C_R   0.954793 0.895991 0.100143 -0.053237
C11   C     C_R   0.079213 0.761746 0.231733 -0.143173
H5    H     H_    0.219410 0.768913 0.219422 0.096019
C12   C     C_R   0.066975 0.726856 0.267640 -0.142049
H6    H     H_    0.198723 0.710532 0.279468 0.094014
C13   C     C_R   0.891968 0.713862 0.287127 0.082281
C14   C     C_R   0.729842 0.738182 0.268272 -0.143140
H7    H     H_    0.589644 0.731015 0.280582 0.096009
C15   C     C_R   0.742079 0.773071 0.232365 -0.142047
H8    H     H_    0.610331 0.789396 0.220539 0.093992
C16   C     C_R   0.917083 0.786065 0.212877 0.082274
C17   C     C_R   0.703386 0.662659 0.345797 -0.133129
H9    H     H_    0.571697 0.678948 0.333918 0.092084
C18   C     C_R   0.691454 0.627661 0.381725 -0.163414
H10   H     H_    0.553283 0.619054 0.395176 0.118046
C19   C     C_R   0.854209 0.603945 0.399871 -0.053200
C20   C     C_R   0.029454 0.616589 0.380928 -0.159684
H11   H     H_    0.159026 0.599177 0.393610 0.122021
C21   C     C_R   0.042009 0.651422 0.345049 -0.138885
H12   H     H_    0.182274 0.658497 0.332697 0.093916
C22   C     C_R   0.879136 0.675693 0.326256 0.094135
C23   C     C_R   0.859122 0.619238 0.679170 -0.211928
C24   C     C_R   0.863508 0.633755 0.631227 -0.058978
C25   C     C_R   0.883252 0.694851 0.630714 -0.214177
C26   C     C_R   0.899523 0.741573 0.677987 0.105963
C27   C     C_R   0.896046 0.726697 0.726173 0.048460
C28   C     C_R   0.875461 0.665282 0.726697 0.105507
C29   C     C_R   0.919666 0.802751 0.678041 -0.183957
C30   C     C_R   0.936442 0.848907 0.725280 -0.183782
C31   C     C_R   0.933874 0.834719 0.773325 0.104517
C32   C     C_R   0.913324 0.773301 0.773847 0.048504
C33   C     C_R   0.909863 0.758422 0.822032 0.106253
C34   C     C_R   0.889720 0.697246 0.821980 -0.183976
C35   C     C_R   0.872903 0.651093 0.774743 -0.184861
C36   C     C_R   0.950165 0.880763 0.820855 -0.210476
C37   C     C_R   0.945829 0.866233 0.868794 -0.059163
C38   C     C_R   0.926141 0.805137 0.869304 -0.214756
H13   H     H_    0.844102 0.572047 0.679329 0.101730
H14   H     H_    0.886296 0.705924 0.593597 0.103451
H15   H     H_    0.922258 0.815105 0.641521 0.126423
H16   H     H_    0.951807 0.895723 0.724199 0.126814
H17   H     H_    0.965120 0.927959 0.820703 0.105434
H18   H     H_    0.923125 0.794060 0.906420 0.103416
H19   H     H_    0.887141 0.684892 0.858500 0.126349
H20   H     H_    0.857517 0.604279 0.775826 0.125901
C39   C     C_R   0.423061 0.195408 0.130840 -0.211111
C40   C     C_R   0.455705 0.134622 0.131548 -0.061716
C41   C     C_R   0.445446 0.119754 0.179435 -0.207928
C42   C     C_R   0.411397 0.165093 0.226451 0.104385
C43   C     C_R   0.386207 0.226371 0.225750 0.048504
C44   C     C_R   0.388896 0.241509 0.177674 0.104535
C45   C     C_R   0.404190 0.150620 0.274425 -0.184162
C46   C     C_R   0.382594 0.196672 0.321553 -0.183992
C47   C     C_R   0.366607 0.258080 0.321655 0.106046
C48   C     C_R   0.363446 0.272932 0.273401 0.048280
C49   C     C_R   0.343562 0.334540 0.272970 0.104868
C50   C     C_R   0.337720 0.348573 0.224820 -0.183483
C51   C     C_R   0.359789 0.302544 0.177659 -0.183654
C52   C     C_R   0.357030 0.305062 0.369034 -0.215244
C53   C     C_R   0.343053 0.366382 0.368627 -0.058593
C54   C     C_R   0.334055 0.380908 0.320639 -0.209891
H21   H     H_    0.423954 0.206803 0.093858 0.104123
H22   H     H_    0.463043 0.072749 0.179918 0.103533
H23   H     H_    0.419857 0.103848 0.275712 0.126442
H24   H     H_    0.381760 0.184244 0.358071 0.125875
H25   H     H_    0.362837 0.294040 0.406202 0.102014
H26   H     H_    0.322549 0.428305 0.320531 0.103485
H27   H     H_    0.319468 0.395300 0.223633 0.126645
H28   H     H_    0.358337 0.315088 0.141181 0.126508
C55   C     C_R   0.288004 0.119928 0.883925 -0.231935
H29   H     H_    0.167351 0.102283 0.897936 0.150983
C56   C     C_R   0.267666 0.154552 0.848011 -0.145993
H30   H     H_    0.126351 0.163019 0.836070 0.110420
C57   C     C_R   0.426496 0.176710 0.827843 0.063609
C58   C     C_R   0.604043 0.163522 0.846764 -0.144295
H31   H     H_    0.733571 0.179560 0.834674 0.104146
C59   C     C_R   0.625599 0.128913 0.882617 0.189739
C60   C     C_R   0.463403 0.105513 0.901556 -0.056111
C61   C     C_R   0.574823 0.233630 0.769203 -0.171555
H32   H     H_    0.716286 0.225532 0.781504 0.093314
C62   C     C_R   0.568239 0.267036 0.733131 -0.129254
H33   H     H_    0.707977 0.280140 0.726706 0.148445
C63   C     C_R   0.397329 0.281361 0.710431 0.110983
C64   C     C_R   0.231544 0.263174 0.731219 -0.163292
H34   H     H_    0.094245 0.276240 0.720032 0.109601
C65   C     C_R   0.236271 0.229385 0.768454 -0.141855
H35   H     H_    0.101032 0.217129 0.781360 0.093993
C66   C     C_R   0.410834 0.213221 0.788123 0.105030
C67   C     C_R   0.213375 0.321746 0.642170 -0.195155
H36   H     H_    0.100129 0.289736 0.642589 0.120126
C68   C     C_R   0.193273 0.360076 0.608381 0.152182
C69   C     C_R   0.353336 0.391378 0.596539 -0.092851
C70   C     C_R   0.528772 0.379055 0.615926 -0.234383
H37   H     H_    0.652486 0.400094 0.605813 0.146342
C71   C     C_R   0.546583 0.341901 0.650022 0.161411
C72   C     C_R   0.386732 0.316969 0.668439 0.056263
O11   O     O_R   0.308350 0.060850 0.061810 -0.532077
O12   O     O_R   0.633860 0.053770 0.953650 -0.543680
O13   O     O_R   0.798960 0.939210 0.938150 -0.533529
C73   C     C_R   0.466809 0.065894 0.937976 0.696897
O14   O     O_R   0.638360 0.067800 0.062400 -0.536195
O15   O     O_R   0.803500 0.953330 0.047670 -0.540592
C74   C     C_R   0.470064 0.084979 0.081906 0.701454
O16   O     O_R   0.303810 0.046730 0.952290 -0.545740
O17   O     O_3   0.468430 0.962490 0.995010 -0.370476
V3    V     V_3+5 0.745300 0.006960 0.000930 1.409470
O18   O     O_R   0.132880 0.946160 0.046390 -0.544275
C75   C     C_R   0.965132 0.934326 0.062526 0.683100
O19   O     O_R   0.128380 0.932130 0.937650 -0.536509
C76   C     C_R   0.958564 0.915395 0.918169 0.706716
V4    V     V_3+5 0.244670 0.992930 0.999140 1.410502
O20   O     O_3   0.971670 0.037510 0.005000 -0.374646
C77   C     C_3   0.828187 0.119583 0.895657 -0.814922
H38   H     H_    0.866176 0.094877 0.924304 0.242390
H39   H     H_    0.894695 0.094337 0.858341 0.190570
H40   H     H_    0.896861 0.165080 0.910662 0.198168
C78   C     C_3   0.007438 0.363145 0.580688 -0.741485
H41   H     H_    0.905452 0.328545 0.582498 0.195634
H42   H     H_    0.948554 0.409925 0.596256 0.212153
H43   H     H_    0.030903 0.351123 0.537665 0.206682
C79   C     C_3   0.738331 0.324688 0.662097 -0.622743
H44   H     H_    0.783414 0.372523 0.687062 0.145156
H45   H     H_    0.780851 0.283394 0.630829 0.186681
H46   H     H_    0.874576 0.348586 0.671771 0.096821

loop_
_geom_bond_atom_site_label_1
_geom_bond_atom_site_label_2
_ccdc_geom_bond_type
C31   C32   A    
C19   C20   A    
C71   C79   S    
C11   C12   A    
C41   C42   A    
C2    C69   S    
C55   H29   S    
C63   C72   S    
C1    O6    A    
C70   C71   A    
C61   C62   A    
C67   H36   S    
C33   C38   A    
C18   C19   A    
C7    C16   S    
C45   C46   A    
C46   H24   S    
C45   H23   S    
C12   H6    S    
C40   C74   S    
C5    C10   A    
C8    C9    A    
C7    C8    A    
C6    C7    A    
C9    C10   A    
C27   C32   A    
C64   C65   A    
C23   H13   S    
C47   C52   A    
C48   C49   A    
O12   C73   A    
C62   H33   S    
V2    O10   S    
O16   V4    S    
C32   C33   A    
C15   H8    S    
C59   C77   S    
C70   H37   S    
C67   C72   A    
O8    V2    S    
C65   H35   S    
C36   H17   S    
C55   C60   A    
O18   C75   A    
C13   C22   S    
O1    V2    S    
C52   H25   S    
C63   C64   A    
C29   H15   S    
C43   C48   A    
C49   C54   A    
C3    C24   S    
C50   H27   S    
O9    C4    A    
C78   H43   S    
C37   C38   A    
C20   C21   A    
C44   C51   A    
C61   H32   S    
C56   C57   A    
C21   C22   A    
C56   H30   S    
C79   H45   S    
C26   C29   A    
C78   H41   S    
C42   C43   A    
C27   C28   A    
C9    H4    S    
C18   H10   S    
O4    C2    A    
C46   C47   A    
V4    O20   S    
O19   V4    S    
C1    C53   S    
C26   C27   A    
C34   C35   A    
C53   C54   A    
C51   H28   S    
C42   C45   A    
C49   C50   A    
C61   C66   A    
O13   V3    S    
C36   C37   A    
C14   C15   A    
O2    C1    A    
C43   C44   A    
C41   H22   S    
C57   C66   S    
C17   H9    S    
V3    O20   S    
C28   C35   A    
C79   H46   S    
C23   C24   A    
O18   V4    S    
C58   C59   A    
C5    H1    S    
C65   C66   A    
C52   C53   A    
O11   V4    S    
C23   C28   A    
O3    C4    A    
C77   H39   S    
C4    C19   S    
C68   C78   S    
C24   C25   A    
C25   C26   A    
O6    V2    S    
O9    V2    S    
C39   H21   S    
C25   H14   S    
C20   H11   S    
O2    V1    S    
C78   H42   S    
C71   C72   A    
C37   C76   S    
C79   H44   S    
O7    V1    S    
C30   C31   A    
O14   C74   A    
O13   C76   A    
O12   V3    S    
O1    C2    A    
C13   C14   A    
O17   V4    S    
C21   H12   S    
O15   C75   A    
C40   C41   A    
C77   H40   S    
O5    V1    S    
C67   C68   A    
O8    C3    A    
C55   C56   A    
C34   H19   S    
C29   C30   A    
O19   C76   A    
C30   H16   S    
C11   C16   A    
C57   C58   A    
C38   H18   S    
C14   H7    S    
C6    H2    S    
O17   V3    S    
O7    V2    S    
O4    V1    S    
C12   C13   A    
C10   C75   S    
V1    O10   S    
C69   C70   A    
O5    C3    A    
C33   C34   A    
C39   C44   A    
C62   C63   A    
O14   V3    S    
C58   H31   S    
C5    C6    A    
C68   C69   A    
C15   C16   A    
O11   C74   A    
C59   C60   A    
C60   C73   S    
O15   V3    S    
C77   H38   S    
C35   H20   S    
C47   C48   A    
C73   O16   A    
C39   C40   A    
C17   C18   A    
C50   C51   A    
C64   H34   S    
C11   H5    S    
O3    V1    S    
C8    H3    S    
C54   H26   S    
C17   C22   A    
C31   C36   A    
