data_mof_unit_50063.cif
_audit_creation_date              2013-03-05T16:12:05-0500
_audit_creation_method            fapswitch 2.2
_symmetry_space_group_name_H-M    P1
_symmetry_Int_Tables_number       1
_space_group_crystal_system       triclinic
_cell_length_a                    9.889108
_cell_length_b                    10.680714
_cell_length_c                    16.569297
_cell_angle_alpha                 90.646481
_cell_angle_beta                  84.45132
_cell_angle_gamma                 90.569768
_cell_volume                      1741.71442787

loop_
_atom_site_label
_atom_site_type_symbol
_atom_site_description
_atom_site_fract_x
_atom_site_fract_y
_atom_site_fract_z
_atom_type_partial_charge
O1    O     O_R   0.385380 0.683250 0.500010 -0.637917
O2    O     O_R   0.614620 0.316750 0.499990 -0.640191
O3    O     O_R   0.614710 0.683220 0.500000 -0.516375
O4    O     O_R   0.385290 0.316780 0.500000 -0.522749
C1    C     C_R   0.500698 0.739858 0.499656 0.963300
C2    C     C_R   0.499300 0.260162 0.500374 0.947649
O5    O     O_R   0.371780 0.500040 0.615800 -0.624054
O6    O     O_R   0.628220 0.499960 0.384200 -0.621487
O7    O     O_R   0.601110 0.500010 0.615800 -0.572933
O8    O     O_R   0.398890 0.499990 0.384200 -0.580151
C3    C     C_R   0.479913 0.496668 0.653357 0.861742
C4    C     C_R   0.519987 0.496017 0.346579 0.862216
Zn1   Zn    Zn3+2 0.346870 0.500020 0.500000 1.045477
Zn2   Zn    Zn3+2 0.653130 0.499980 0.500000 1.051617
C5    C     C_R   0.463472 0.461291 0.737654 -0.056568
C6    C     C_R   0.535691 0.461893 0.261476 -0.032127
C7    C     C_R   0.538329 0.521188 0.793981 -0.108497
C8    C     C_R   0.451487 0.513061 0.207946 -0.094021
C9    C     C_R   0.529506 0.477918 0.872974 -0.099730
C10   C     C_R   0.460599 0.470755 0.128148 -0.091316
C11   C     C_R   0.450282 0.371020 0.895106 0.096946
C12   C     C_R   0.549533 0.372735 0.102351 0.093660
C13   C     C_R   0.373357 0.312956 0.838721 -0.031208
C14   C     C_R   0.634698 0.322800 0.156105 -0.027445
C15   C     C_R   0.379145 0.358602 0.760314 -0.165958
C16   C     C_R   0.628670 0.368020 0.235240 -0.168533
C17   C     C_2   0.444216 0.324205 0.978617 0.120280
C18   C     C_2   0.558543 0.328420 0.017524 0.123169
H1    H     H_    0.602610 0.601133 0.776922 0.199517
H2    H     H_    0.379559 0.585566 0.227823 0.169082
H3    H     H_    0.692972 0.326370 0.276858 0.156259
H4    H     H_    0.321914 0.310836 0.716421 0.196793
H5    H     H_    0.310916 0.231486 0.854983 0.183238
H6    H     H_    0.704485 0.248203 0.137103 0.183314
H7    H     H_    0.397601 0.514233 0.086617 0.158879
H8    H     H_    0.585628 0.527201 0.916698 0.161544
C19   C     C_R   0.613061 0.937277 0.461859 0.692712
C20   C     C_R   0.387006 0.062820 0.538294 0.682964
C21   C     C_R   0.611295 0.065631 0.462217 -0.321607
C22   C     C_R   0.388699 0.934458 0.537849 -0.316618
H9    H     H_    0.696856 0.116386 0.431990 0.208571
H10   H     H_    0.303082 0.883715 0.568012 0.213597
C23   C     C_R   0.498567 0.127738 0.500290 -0.254620
C24   C     C_R   0.501445 0.872331 0.499795 -0.265792
C25   C     C_R   0.936458 0.445285 0.438122 -0.173010
C26   C     C_R   0.063600 0.554666 0.561852 -0.173890
H11   H     H_    0.888619 0.400682 0.389101 0.179838
H12   H     H_    0.111492 0.599194 0.610871 0.190107
C27   C     C_R   0.079830 0.444199 0.437890 0.380137
C28   C     C_R   0.920264 0.555682 0.562137 0.396516
N1    N     N_R   0.142790 0.500030 0.500020 -0.155916
N2    N     N_R   0.857210 0.499970 0.499980 -0.153465
N3    N     N_R   0.690855 0.314646 0.973186 0.205364
O9    O     O_R   0.796834 0.370705 0.998165 -0.321495
O10   O     O_R   0.706692 0.241763 0.909543 -0.327899
N4    N     N_R   0.313326 0.298072 0.022036 0.205035
O11   O     O_R   0.203003 0.343279 0.997233 -0.318556
O12   O     O_R   0.303429 0.223960 0.084214 -0.316442
F1    F     F_    0.721290 0.877078 0.422909 -0.617628
F2    F     F_    0.278887 0.123051 0.577353 -0.631501
N5    N     N_R   0.157162 0.382844 0.371936 0.221152
O13   O     O_R   0.137712 0.411724 0.297891 -0.365729
O14   O     O_R   0.219628 0.279516 0.384709 -0.329578
N6    N     N_R   0.843159 0.616525 0.628369 0.214715
O15   O     O_R   0.865284 0.589000 0.702216 -0.382443
O16   O     O_R   0.778968 0.718977 0.615787 -0.347944

loop_
_geom_bond_atom_site_label_1
_geom_bond_atom_site_label_2
_geom_bond_distance
_ccdc_geom_bond_type
C28   N2    1.380777 A    
O7    Zn2   1.937848 S    
C9    C11   1.409953 A    
C8    H2    1.083527 S    
O6    C4    1.289756 A    
C19   C21   1.371137 A    
C28   N6    1.428278 S    
C26   C28   1.417166 A    
C22   C24   1.396551 A    
C25   C27   1.417617 A    
C18   N3    1.445289 S    
N6    O15   1.301020 A    
O3    C1    1.285332 A    
C19   C24   1.398226 A    
C22   H10   1.084215 S    
C3    C5    1.444605 S    
C11   C17   1.472168 S    
C20   C23   1.398107 A    
C21   H9    1.084293 S    
C12   C18   1.472778 S    
N3    O9    1.301537 A    
C20   C22   1.371199 A    
O7    C3    1.296307 A    
C27   N5    1.428531 S    
N6    O16   1.299372 A    
C19   F1    1.358750 S    
O3    Zn2   1.997377 S    
O8    C4    1.296352 A    
C15   H4    1.083974 S    
O1    C1    1.284970 A    
C12   C14   1.397060 A    
C6    C8    1.393394 A    
C7    C9    1.387455 A    
C1    C24   1.414829 S    
C14   C16   1.388265 A    
O5    C3    1.289182 A    
C8    C10   1.387369 A    
C2    C23   1.414318 S    
N3    O10   1.301734 A    
C11   C13   1.396824 A    
C6    C16   1.403882 A    
N5    O13   1.301044 A    
O2    Zn2   1.990017 S    
C20   F2    1.358798 S    
C5    C15   1.403534 A    
O1    Zn1   1.990017 S    
C10   C12   1.409876 A    
C26   H12   1.082303 S    
C4    C6    1.446560 S    
O5    Zn1   1.957953 S    
C13   C15   1.388562 A    
C7    H1    1.083055 S    
N4    O11   1.301522 A    
O4    C2    1.285255 A    
C25   H11   1.082399 S    
C17   C18   1.354672 D    
C5    C7    1.392484 A    
C17   N4    1.445046 S    
C21   C23   1.396421 A    
O6    Zn2   1.957953 S    
C25   N2    1.358708 A    
C27   N1    1.380485 A    
C9    H8    1.083188 S    
Zn1   N1    2.018138 S    
C10   H7    1.083130 S    
C16   H3    1.084025 S    
C26   N1    1.357902 A    
N5    O14   1.299410 A    
Zn2   N2    2.018139 S    
O2    C2    1.284857 A    
O4    Zn1   1.997377 S    
N4    O12   1.301901 A    
C13   H5    1.083284 S    
O8    Zn1   1.937848 S    
C14   H6    1.083274 S    
