data_mof_unit_30687.cif
_audit_creation_date              2013-03-05T16:22:07-0500
_audit_creation_method            fapswitch 2.2
_symmetry_space_group_name_H-M    P1
_symmetry_Int_Tables_number       1
_space_group_crystal_system       triclinic
_cell_length_a                    13.393504
_cell_length_b                    13.916029
_cell_length_c                    15.122589
_cell_angle_alpha                 90.431293
_cell_angle_beta                  90.419227
_cell_angle_gamma                 72.657594
_cell_volume                      2690.36733788

loop_
_atom_site_label
_atom_site_type_symbol
_atom_site_description
_atom_site_fract_x
_atom_site_fract_y
_atom_site_fract_z
_atom_type_partial_charge
O1    O     O_R   0.499990 0.418570 0.628550 -0.565214
O2    O     O_R   0.499990 0.581440 0.628540 -0.584974
C1    C     C_R   0.502626 0.499216 0.669710 0.804495
O3    O     O_R   0.650980 0.378820 0.499990 -0.582943
O4    O     O_R   0.650980 0.541690 0.499970 -0.569223
C2    C     C_R   0.700180 0.446453 0.493057 0.807396
Cu1   Cu    Cu3+1 0.500000 0.403570 0.500010 0.940138
Cu2   Cu    Cu3+1 0.500000 0.596430 0.499990 0.949933
O5    O     O_R   0.500010 0.418560 0.371460 -0.590073
O6    O     O_R   0.500010 0.581430 0.371450 -0.578209
O7    O     O_R   0.349020 0.458310 0.500030 -0.595134
O8    O     O_R   0.349020 0.621180 0.500010 -0.584886
C3    C     C_R   0.498078 0.499863 0.330088 0.815402
C4    C     C_R   0.299547 0.553903 0.500894 0.805311
C5    C     C_R   0.024608 0.707294 0.441637 0.169588
H1    H     H_    0.170963 0.739272 0.460010 0.160505
H2    H     H_    0.834156 0.717058 0.372922 0.162152
C6    C     C_R   0.185085 0.585395 0.492257 -0.098652
C7    C     C_R   0.871731 0.317737 0.509921 -0.224713
C8    C     C_R   0.980887 0.283994 0.507469 0.162274
C9    C     C_R   0.035569 0.348762 0.474618 0.119714
C10   C     C_R   0.980589 0.453567 0.466938 0.053665
C11   C     C_R   0.871036 0.481144 0.453300 -0.005337
C12   C     C_R   0.030032 0.531333 0.468865 0.062131
C13   C     C_R   0.974747 0.630164 0.440287 0.104125
C14   C     C_R   0.873578 0.647404 0.406268 -0.282690
C15   C     C_R   0.823753 0.572851 0.408845 0.001845
C16   C     C_R   0.131924 0.513849 0.501654 -0.247022
C17   C     C_R   0.130449 0.682772 0.465323 -0.233261
C18   C     C_R   0.815340 0.414384 0.481774 -0.163975
H3    H     H_    0.171909 0.443670 0.533158 0.163529
H4    H     H_    0.830546 0.266801 0.532606 0.189905
C19   C     C_R   0.586877 0.495600 0.907771 -0.189911
H5    H     H_    0.654705 0.496944 0.946785 0.147393
C20   C     C_R   0.594578 0.490048 0.815877 0.136925
C21   C     C_R   0.503192 0.497600 0.765886 -0.071557
C22   C     C_R   0.411222 0.495497 0.808015 -0.262898
H6    H     H_    0.343548 0.495434 0.768192 0.133265
C23   C     C_R   0.407083 0.488777 0.900137 0.187393
C24   C     C_R   0.495459 0.492577 0.950511 0.064478
C25   C     C_R   0.424869 0.568320 0.093312 -0.205100
H7    H     H_    0.369005 0.626879 0.056281 0.132165
C26   C     C_R   0.420393 0.568909 0.185268 0.133769
C27   C     C_R   0.498672 0.496859 0.233268 -0.063143
C28   C     C_R   0.575612 0.419546 0.188045 0.069917
C29   C     C_R   0.571404 0.414972 0.094904 -0.029557
C30   C     C_R   0.496876 0.490881 0.047911 -0.000970
C31   C     C_R   0.451626 0.904851 0.430628 -0.317994
H8    H     H_    0.418881 0.949118 0.373092 0.143445
C32   C     C_R   0.451974 0.803569 0.433007 0.055618
H9    H     H_    0.416200 0.774361 0.379231 0.124543
N1    N     N_R   0.500000 0.741310 0.499980 -0.208448
C33   C     C_R   0.546258 0.779404 0.567201 0.136108
C34   C     C_R   0.533074 0.884307 0.575125 0.026074
C35   C     C_R   0.492613 0.947874 0.501574 0.077247
C36   C     C_R   0.578762 0.084151 0.536169 -0.321078
H10   H     H_    0.644693 0.027976 0.564197 0.164064
C37   C     C_R   0.575571 0.185564 0.542970 0.176145
N2    N     N_R   0.500060 0.258650 0.499980 -0.188274
C38   C     C_R   0.425101 0.232269 0.452378 0.035969
H11   H     H_    0.368486 0.289128 0.414874 0.142795
C39   C     C_R   0.419346 0.132550 0.452495 -0.289874
H12   H     H_    0.354973 0.116171 0.418402 0.129650
C40   C     C_R   0.496220 0.056032 0.496726 0.132247
C41   C     C_3   0.701911 0.469631 0.774961 -0.384883
C42   C     C_3   0.776249 0.369018 0.805651 -0.785269
H13   H     H_    0.738030 0.308587 0.800493 0.285850
H14   H     H_    0.847576 0.348436 0.764032 0.242461
H15   H     H_    0.800379 0.374484 0.875448 0.244138
H16   H     H_    0.698134 0.467589 0.701694 0.218090
H17   H     H_    0.735894 0.530183 0.795045 0.221266
C43   C     C_3   0.310167 0.472733 0.941096 -0.411538
C44   C     C_3   0.332390 0.366259 0.977424 -0.798289
H18   H     H_    0.364785 0.309859 0.924630 0.254552
H19   H     H_    0.388507 0.353560 0.033525 0.256503
H20   H     H_    0.258514 0.355199 0.001568 0.233801
H21   H     H_    0.278033 0.528624 0.993927 0.198709
H22   H     H_    0.246760 0.483753 0.890861 0.196156
C45   C     C_3   0.325222 0.640637 0.228840 -0.423141
C46   C     C_3   0.247114 0.585190 0.254433 -0.836691
H23   H     H_    0.281444 0.526982 0.304853 0.243909
H24   H     H_    0.175760 0.639348 0.282153 0.253009
H25   H     H_    0.224258 0.548530 0.195349 0.255658
H26   H     H_    0.346927 0.677660 0.287642 0.209629
H27   H     H_    0.285153 0.702408 0.182971 0.195982
C47   C     C_3   0.664269 0.344166 0.237777 -0.368252
C48   C     C_3   0.641693 0.243815 0.251073 -0.773400
H28   H     H_    0.704745 0.193520 0.292025 0.231551
H29   H     H_    0.566017 0.255001 0.285209 0.264450
H30   H     H_    0.638810 0.206054 0.186655 0.246464
H31   H     H_    0.738845 0.330793 0.201155 0.197393
H32   H     H_    0.679736 0.374091 0.302950 0.198253
C49   C     C_1   0.642588 0.331793 0.047329 0.224247
N3    N     N_1   0.699262 0.265451 0.009321 -0.297645
C50   C     C_1   0.617905 0.711963 0.625998 0.341023
N4    N     N_1   0.677857 0.659261 0.672813 -0.350291
C51   C     C_3   0.547239 0.927106 0.666119 -0.419182
C52   C     C_3   0.661978 0.902846 0.695838 -0.828824
H33   H     H_    0.681172 0.840796 0.744696 0.258145
H34   H     H_    0.716667 0.880085 0.639307 0.245291
H35   H     H_    0.675192 0.969836 0.728456 0.246122
H36   H     H_    0.509067 0.009546 0.669319 0.215215
H37   H     H_    0.504147 0.896082 0.715494 0.198968
C53   C     C_1   0.649318 0.210807 0.600962 0.275478
N5    N     N_1   0.708318 0.230013 0.648900 -0.342970
C54   C     C_3   0.969361 0.815430 0.416497 -0.422360
C55   C     C_3   0.977208 0.831527 0.317372 -0.844402
H38   H     H_    0.060244 0.818198 0.298483 0.248707
H39   H     H_    0.944307 0.779817 0.278741 0.254172
H40   H     H_    0.932882 0.910292 0.300532 0.245820
H41   H     H_    0.886266 0.838234 0.437410 0.198730
H42   H     H_    0.005230 0.867036 0.452403 0.199560
C56   C     C_3   0.139365 0.301386 0.427205 -0.434289
C57   C     C_3   0.147641 0.348867 0.337424 -0.828486
H43   H     H_    0.076028 0.355927 0.297289 0.255889
H44   H     H_    0.159710 0.423746 0.344779 0.262523
H45   H     H_    0.215880 0.300154 0.300807 0.229286
H46   H     H_    0.206340 0.299833 0.470665 0.193147
H47   H     H_    0.147624 0.221583 0.410624 0.198167
C58   C     C_3   0.036430 0.179115 0.541813 -0.436520
C59   C     C_3   0.014000 0.169392 0.639804 -0.820484
H48   H     H_    0.035555 0.228118 0.679064 0.252211
H49   H     H_    0.930240 0.176645 0.650535 0.264149
H50   H     H_    0.061053 0.094245 0.663927 0.240795
H51   H     H_    0.010815 0.122576 0.502838 0.202039
H52   H     H_    0.122626 0.160049 0.536284 0.201592
C60   C     C_1   0.741205 0.582653 0.344804 0.247767
N6    N     N_1   0.677615 0.591934 0.290789 -0.306160

loop_
_geom_bond_atom_site_label_1
_geom_bond_atom_site_label_2
_geom_bond_distance
_ccdc_geom_bond_type
C31   C35   1.410147 A    
C42   H14   1.110748 S    
C48   H28   1.110435 S    
C49   N3    1.157373 T    
C24   C30   1.473209 S    
C44   H19   1.108888 S    
C44   H18   1.110988 S    
C4    C6    1.468591 S    
C50   N4    1.154239 T    
C45   H27   1.112033 S    
C57   H43   1.110952 S    
Cu1   Cu2   2.683848 S    
C54   H42   1.112369 S    
C28   C29   1.410957 A    
N1    C33   1.369942 A    
Cu1   O7    1.936764 S    
C14   C15   1.391749 A    
C22   H6    1.084761 S    
H2    C14   1.082120 S    
C5    C54   1.515665 S    
C21   C22   1.399050 A    
C47   H31   1.111191 S    
O3    Cu1   1.947438 S    
C45   H26   1.104224 S    
O7    C4    1.297398 A    
C58   H52   1.108444 S    
C5    C13   1.423117 A    
C42   H15   1.110305 S    
C33   C50   1.433678 S    
C54   C55   1.526338 S    
C20   C41   1.515596 S    
C26   C45   1.516312 S    
C41   H16   1.109303 S    
C51   C52   1.536379 S    
C36   H10   1.076332 S    
C38   C39   1.412599 A    
C25   H7    1.083856 S    
O5    C3    1.290423 A    
C59   H50   1.110547 S    
C39   C40   1.410104 A    
C43   H21   1.106621 S    
C19   C20   1.394108 A    
C56   H47   1.109679 S    
C15   C60   1.440594 S    
C7    C8    1.396615 A    
C27   C28   1.423188 A    
C32   N1    1.364410 A    
C23   C43   1.518251 S    
C36   C40   1.405640 A    
C34   C51   1.528239 S    
C11   C15   1.416522 A    
Cu2   N1    2.016157 S    
C51   H36   1.108930 S    
C31   C32   1.408805 A    
C42   H13   1.109225 S    
N2    C38   1.366059 A    
C9    C10   1.429654 A    
C55   H39   1.110054 S    
C46   H25   1.111110 S    
C7    H4    1.078851 S    
Cu1   N2    2.016467 S    
C53   N5    1.155865 T    
C5    C17   1.400106 A    
C54   H41   1.110144 S    
C19   C24   1.400494 A    
C11   C18   1.424381 A    
C6    C16   1.394521 A    
C12   C13   1.422588 A    
C46   H24   1.108505 S    
C23   C24   1.416924 A    
C47   C48   1.529338 S    
C46   H23   1.109531 S    
C32   H9    1.077747 S    
H1    C17   1.083990 S    
C41   H17   1.110071 S    
C56   H46   1.103229 S    
C38   H11   1.079576 S    
O1    C1    1.288787 A    
C20   C21   1.411265 A    
C26   C27   1.415820 A    
C39   H12   1.081668 S    
Cu2   O8    1.947439 S    
C35   C40   1.522571 S    
C19   H5    1.084372 S    
C25   C30   1.393479 A    
C6    C17   1.396596 A    
C59   H48   1.111099 S    
C51   H37   1.112085 S    
C9    C56   1.530503 S    
C31   H8    1.081804 S    
C2    C18   1.483103 S    
O8    C4    1.298420 A    
C41   C42   1.529389 S    
C52   H34   1.111059 S    
C48   H29   1.109245 S    
C44   H20   1.110380 S    
C10   C12   1.427231 A    
C37   N2    1.366390 A    
O3    C2    1.305096 A    
C37   C53   1.434463 S    
C55   H38   1.110737 S    
C60   N6    1.155480 T    
C8    C58   1.520442 S    
C58   C59   1.529143 S    
C56   C57   1.533516 S    
C34   C35   1.426032 A    
Cu1   O5    1.956735 S    
C29   C30   1.410533 A    
O1    Cu1   1.953467 S    
C16   H3    1.076572 S    
O2    Cu2   1.956736 S    
C25   C26   1.392192 A    
C12   C16   1.400507 A    
C43   C44   1.527344 S    
O6    C3    1.298819 A    
O4    Cu2   1.936764 S    
C57   H44   1.105765 S    
C33   C34   1.421492 A    
C52   H35   1.110784 S    
C28   C47   1.527161 S    
C13   C14   1.398617 A    
C22   C23   1.399559 A    
C47   H32   1.109034 S    
O4    C2    1.296119 A    
C29   C49   1.451213 S    
C1    C21   1.454703 S    
C55   H40   1.110314 S    
C36   C37   1.402140 A    
O2    C1    1.297870 A    
C58   H51   1.111373 S    
C59   H49   1.109047 S    
C57   H45   1.110799 S    
C45   C46   1.526830 S    
C8    C9    1.414624 A    
Cu2   O6    1.953465 S    
C52   H33   1.110020 S    
C48   H30   1.109276 S    
C43   H22   1.111970 S    
C10   C11   1.415574 A    
C7    C18   1.399584 A    
C3    C27   1.464454 S    
