data_mof_unit_5546.cif
_audit_creation_date              2013-03-05T15:42:12-0500
_audit_creation_method            fapswitch 2.2
_symmetry_space_group_name_H-M    P1
_symmetry_Int_Tables_number       1
_space_group_crystal_system       triclinic
_cell_length_a                    7.832206
_cell_length_b                    8.556999
_cell_length_c                    16.299457
_cell_angle_alpha                 92.455873
_cell_angle_beta                  78.45761
_cell_angle_gamma                 93.766606
_cell_volume                      1067.49597397

loop_
_atom_site_label
_atom_site_type_symbol
_atom_site_description
_atom_site_fract_x
_atom_site_fract_y
_atom_site_fract_z
_atom_type_partial_charge
O1    O     O_R   0.388470 0.738640 0.505270 -0.604578
O2    O     O_R   0.611530 0.261360 0.494730 -0.607705
O3    O     O_R   0.679650 0.711510 0.491500 -0.581338
O4    O     O_R   0.320350 0.288490 0.508500 -0.583639
C1    C     C_R   0.546028 0.794651 0.498053 1.030364
C2    C     C_R   0.453944 0.205346 0.502090 0.947082
O5    O     O_R   0.337210 0.515200 0.623500 -0.608693
O6    O     O_R   0.662790 0.484800 0.376500 -0.602045
O7    O     O_R   0.628380 0.488060 0.609730 -0.568784
O8    O     O_R   0.371620 0.511940 0.390270 -0.565463
C3    C     C_R   0.474128 0.504690 0.655301 0.974916
C4    C     C_R   0.526557 0.498794 0.344671 0.986959
Zn1   Zn    Zn3+2 0.305580 0.518120 0.509190 1.160185
Zn2   Zn    Zn3+2 0.694420 0.481880 0.490810 1.164257
C5    C     C_R   0.459353 0.553047 0.742264 -0.267263
C6    C     C_R   0.558295 0.538868 0.257506 -0.280134
C7    C     C_R   0.488675 0.712708 0.761588 0.593461
C8    C     C_R   0.568195 0.697759 0.238157 0.582399
C9    C     C_R   0.475274 0.763606 0.844515 -0.337746
C10   C     C_R   0.609236 0.741143 0.155140 -0.230277
C11   C     C_R   0.434182 0.655074 0.907973 -0.062069
C12   C     C_R   0.636059 0.625895 0.091295 -0.063915
C13   C     C_R   0.394623 0.497028 0.889043 -0.196357
C14   C     C_R   0.636498 0.467860 0.110635 -0.229102
C15   C     C_R   0.406438 0.445726 0.806009 0.542437
C16   C     C_R   0.598843 0.424174 0.193968 0.550374
C17   C     C_2   0.468655 0.697459 0.991346 0.387938
C18   C     C_2   0.626094 0.664291 0.005850 0.383106
H1    H     H_    0.364695 0.412766 0.938299 0.170232
H2    H     H_    0.656113 0.378122 0.061235 0.188110
H3    H     H_    0.612373 0.863442 0.140334 0.177026
H4    H     H_    0.503829 0.886007 0.859010 0.185479
C19   C     C_2   0.570216 0.958231 0.496980 -0.223854
C20   C     C_2   0.429715 0.041766 0.503394 -0.274290
H5    H     H_    0.702887 0.009324 0.490843 0.195582
H6    H     H_    0.297042 0.990655 0.509549 0.202407
N1    N     N_2   0.953500 0.457650 0.478520 0.259742
N2    N     N_2   0.046500 0.542350 0.521480 0.258222
F1    F     F_    0.533833 0.818364 0.699977 -0.647997
F2    F     F_    0.537386 0.810423 0.299683 -0.656253
F3    F     F_    0.596089 0.270731 0.212512 -0.649861
F4    F     F_    0.372761 0.291873 0.787736 -0.662211
O9    O     O_3   0.756041 0.617128 0.940061 -0.638583
C21   C     C_3   0.901186 0.726770 0.932140 0.078220
H7    H     H_    0.019818 0.663186 0.905178 0.188553
H8    H     H_    0.921395 0.779697 0.993365 0.111283
C22   C     C_3   0.882825 0.855749 0.872530 -0.397623
H9    H     H_    0.856669 0.801242 0.812793 0.279189
H10   H     H_    0.771659 0.926675 0.901775 0.206311
C23   C     C_3   0.046526 0.965059 0.853336 -0.794275
H11   H     H_    0.069015 0.028437 0.911358 0.245400
H12   H     H_    0.029400 0.052791 0.807808 0.301229
H13   H     H_    0.161676 0.897956 0.825534 0.273714
O10   O     O_3   0.330325 0.719263 0.058291 -0.645385
C24   C     C_3   0.245058 0.855683 0.048082 0.045509
H14   H     H_    0.112030 0.844653 0.087606 0.184803
H15   H     H_    0.228012 0.868527 0.982731 0.134289
C25   C     C_3   0.340145 0.002825 0.078249 -0.346382
H16   H     H_    0.345617 0.991983 0.145356 0.278226
H17   H     H_    0.475665 0.015151 0.041268 0.201742
C26   C     C_3   0.246556 0.149905 0.068848 -0.859254
H18   H     H_    0.244519 0.166138 0.001883 0.252492
H19   H     H_    0.316369 0.253943 0.092589 0.282255
H20   H     H_    0.110425 0.141026 0.105252 0.279503
F5    F     F_    0.040247 0.349988 0.427931 -0.548671
F6    F     F_    0.959715 0.649916 0.572137 -0.549249

loop_
_geom_bond_atom_site_label_1
_geom_bond_atom_site_label_2
_geom_bond_distance
_ccdc_geom_bond_type
C15   F4    1.357839 S    
C26   H20   1.111167 S    
C23   H12   1.110449 S    
C24   H14   1.110484 S    
N1    N2    1.279623 D    
C18   O9    1.388791 S    
C8    C10   1.387594 A    
C22   H9    1.111722 S    
N1    F5    1.335361 S    
C21   C22   1.533444 S    
O6    C4    1.290590 A    
O9    C21   1.414475 S    
C25   C26   1.525599 S    
C11   C13   1.402725 A    
C19   C20   1.335563 D    
C11   C17   1.463858 S    
C17   O10   1.391144 S    
C22   H10   1.110040 S    
C12   C18   1.462785 S    
Zn2   N1    2.022297 S    
O5    C3    1.290681 A    
O7    C3    1.298447 A    
Zn1   N2    2.022296 S    
O2    C2    1.278843 A    
O3    Zn2   1.975338 S    
O8    C4    1.299030 A    
O1    C1    1.278827 A    
C9    H4    1.082591 S    
C13   H1    1.082350 S    
C6    C8    1.402559 A    
C7    C9    1.387984 A    
C14   C16   1.392973 A    
C23   H11   1.108907 S    
C22   C23   1.524353 S    
C20   H6    1.087865 S    
C24   H15   1.110588 S    
C6    C16   1.399588 A    
C26   H18   1.109576 S    
O2    Zn2   1.954243 S    
C12   C14   1.402033 A    
C5    C15   1.397892 A    
C23   H13   1.109335 S    
O1    Zn1   1.954244 S    
C10   C12   1.396929 A    
C14   H2    1.083777 S    
C25   H17   1.111653 S    
N2    F6    1.335462 S    
O5    Zn1   1.929508 S    
C13   C15   1.391867 A    
C21   H7    1.111308 S    
C16   F3    1.357757 S    
O4    C2    1.288254 A    
C7    F1    1.358161 S    
C24   C25   1.533630 S    
C17   C18   1.351057 D    
C5    C7    1.403335 A    
O7    Zn2   1.902908 S    
C8    F2    1.358021 S    
O10   C24   1.414178 S    
O6    Zn2   1.929506 S    
C4    C6    1.444677 S    
C19   H5    1.087828 S    
C25   H16   1.111238 S    
C9    C11   1.394899 A    
C3    C5    1.443666 S    
C10   H3    1.081636 S    
C26   H19   1.110163 S    
C2    C20   1.400652 S    
O4    Zn1   1.975338 S    
C21   H8    1.114048 S    
O3    C1    1.288182 A    
O8    Zn1   1.902906 S    
C1    C19   1.400510 S    
