data_mof_unit_20955.cif
_audit_creation_date              2012-12-10T18:02:06-0500
_audit_creation_method            fapswitch 2.2
_symmetry_space_group_name_H-M    P1
_symmetry_Int_Tables_number       1
_space_group_crystal_system       triclinic
_cell_length_a                    10.909935
_cell_length_b                    9.624716
_cell_length_c                    23.48303
_cell_angle_alpha                 89.823639
_cell_angle_beta                  92.098786
_cell_angle_gamma                 89.311591
_cell_volume                      2463.98888364

loop_
_atom_site_label
_atom_site_type_symbol
_atom_type_description
_atom_site_fract_x
_atom_site_fract_y
_atom_site_fract_z
_atom_type_partial_charge
C1    C     C_R   0.262464 0.500773 0.500858 0.939371
C2    C     C_R   0.737533 0.499255 0.499097 0.928453
C3    C     C_R   0.606442 0.474799 0.240763 0.271239
C4    C     C_R   0.397263 0.540042 0.759355 0.291394
C5    C     C_R   0.606926 0.469323 0.300436 0.114978
C6    C     C_R   0.395297 0.538951 0.699634 0.121176
C7    C     C_R   0.499058 0.501075 0.328999 -0.257004
C8    C     C_R   0.501679 0.501140 0.671064 -0.277729
C9    C     C_R   0.389755 0.534715 0.298134 0.322249
C10   C     C_R   0.611345 0.469268 0.701920 0.362706
C11   C     C_R   0.390738 0.546173 0.238088 0.371426
C12   C     C_R   0.614640 0.474156 0.761864 0.408661
C13   C     C_R   0.498035 0.510959 0.209685 0.092853
C14   C     C_R   0.506768 0.508623 0.790537 0.056637
C15   C     C_R   0.066341 0.376714 0.512058 0.341127
C16   C     C_R   0.933637 0.623493 0.487883 0.343553
C17   C     C_R   0.938895 0.373469 0.506704 0.349185
C18   C     C_R   0.061124 0.626685 0.493117 0.351812
C19   C     C_R   0.871536 0.498280 0.497648 -0.348400
C20   C     C_R   0.128457 0.501856 0.502237 -0.342965
C21   C     C_R   0.424470 0.075345 0.462923 0.289774
C22   C     C_R   0.575449 0.924588 0.537112 0.288899
C23   C     C_R   0.574502 0.072401 0.537504 0.277914
C24   C     C_R   0.425616 0.927510 0.462409 0.279322
C25   C     C_R   0.499655 0.500173 0.391332 0.954489
C26   C     C_R   0.500398 0.500003 0.608687 0.943282
C27   C     C_R   0.512870 0.384277 0.880467 0.654474
C28   C     C_R   0.495356 0.635324 0.119711 0.644564
C29   C     C_R   0.500812 0.632253 0.879916 0.602800
C30   C     C_R   0.498961 0.387267 0.120220 0.648871
C31   C     C_R   0.496453 0.634848 0.939434 -0.078974
C32   C     C_R   0.504462 0.384494 0.060705 -0.080674
C33   C     C_R   0.502797 0.508811 0.970000 -0.072543
C34   C     C_R   0.499756 0.510501 0.030132 -0.070690
C35   C     C_R   0.512694 0.381382 0.940556 -0.134984
C36   C     C_R   0.492051 0.638004 0.059620 -0.122597
C37   C     C_R   0.485042 0.760664 0.968731 -0.240883
C38   C     C_R   0.515805 0.258641 0.031449 -0.239958
C39   C     C_R   0.480945 0.763436 0.028180 0.490791
C40   C     C_R   0.522835 0.255916 0.972064 0.490779
Cu1   Cu    Cu3+1 0.500000 0.640660 0.500000 1.066685
Cu2   Cu    Cu3+1 0.500000 0.359340 0.500000 1.070091
H1    H     H_    0.477639 0.857944 0.945611 0.235378
H2    H     H_    0.521587 0.161361 0.054609 0.232696
N1    N     N_R   0.507390 0.508297 0.851758 -0.436275
N2    N     N_R   0.496545 0.511351 0.148438 -0.420348
N3    N     N_R   0.500000 0.852070 0.500000 -0.259644
N4    N     N_R   0.500000 0.147930 0.500000 -0.262134
O1    O     O_R   0.319640 0.618740 0.500000 -0.523471
O2    O     O_R   0.680360 0.381260 0.500000 -0.525611
O3    O     O_R   0.680360 0.618740 0.500000 -0.527582
O4    O     O_R   0.319640 0.381260 0.500000 -0.526400
O5    O     O_R   0.499960 0.618810 0.417880 -0.551272
O6    O     O_R   0.500040 0.381190 0.582120 -0.545951
O7    O     O_R   0.500040 0.618810 0.582120 -0.551241
O8    O     O_R   0.499960 0.381190 0.417880 -0.548930
O9    O     O_2   0.517356 0.264814 0.850690 -0.428816
O10   O     O_2   0.499466 0.754952 0.149399 -0.480731
O11   O     O_2   0.498691 0.752621 0.850209 -0.495774
O12   O     O_2   0.497337 0.266944 0.149862 -0.500049
O13   O     O_3   0.469503 0.890054 0.055185 -0.543242
C41   C     C_3   0.344446 0.929433 0.053347 -0.218144
H3    H     H_    0.286463 0.848248 0.072411 0.154793
H4    H     H_    0.311423 0.953441 0.008980 0.167143
H5    H     H_    0.333606 0.025234 0.078903 0.204372
O14   O     O_3   0.534488 0.129289 0.945054 -0.541541
C42   C     C_3   0.658260 0.085399 0.950229 -0.197102
H6    H     H_    0.721137 0.165364 0.933812 0.167492
H7    H     H_    0.670042 0.990600 0.924150 0.202599
H8    H     H_    0.684474 0.057920 0.995116 0.161340
Br1   Br    Br    0.754853 0.438231 0.200991 -0.390536
Br2   Br    Br    0.248768 0.577389 0.799032 -0.393081
Br3   Br    Br    0.755125 0.417883 0.342759 -0.549704
Br4   Br    Br    0.246058 0.585916 0.657215 -0.546442
O15   O     O_3   0.284053 0.560032 0.327617 -0.564852
C43   C     C_3   0.198731 0.453364 0.316538 -0.152219
H9    H     H_    0.136527 0.447712 0.352804 0.189642
H10   H     H_    0.242654 0.349018 0.312184 0.179911
H11   H     H_    0.141422 0.477655 0.277696 0.207601
O16   O     O_3   0.712919 0.425409 0.672776 -0.522726
C44   C     C_3   0.805325 0.526937 0.675703 -0.141119
H12   H     H_    0.770412 0.634501 0.683047 0.152256
H13   H     H_    0.852349 0.527646 0.634590 0.177954
H14   H     H_    0.874885 0.498496 0.709501 0.207431
O17   O     O_3   0.286365 0.583285 0.205885 -0.581622
C45   C     C_3   0.252373 0.722262 0.217519 -0.144958
H15   H     H_    0.332269 0.791329 0.225943 0.191573
H16   H     H_    0.190373 0.726679 0.253889 0.204279
H17   H     H_    0.200627 0.764825 0.179708 0.169090
O18   O     O_3   0.720759 0.432090 0.791604 -0.528780
C46   C     C_3   0.776030 0.547125 0.819090 -0.255824
H18   H     H_    0.744355 0.556271 0.863261 0.166156
H19   H     H_    0.760567 0.647362 0.795772 0.154394
H20   H     H_    0.876570 0.528319 0.822172 0.210289
O19   O     O_3   0.129317 0.253663 0.524091 -0.544194
C47   C     C_3   0.140916 0.236872 0.583708 -0.164307
H21   H     H_    0.050046 0.236541 0.603785 0.199977
H22   H     H_    0.200121 0.318394 0.603037 0.179101
H23   H     H_    0.186181 0.135185 0.593133 0.166880
O20   O     O_3   0.870649 0.746670 0.476086 -0.543316
C48   C     C_3   0.858576 0.763944 0.416503 -0.169213
H24   H     H_    0.814528 0.866382 0.407280 0.163244
H25   H     H_    0.797994 0.683589 0.397300 0.180331
H26   H     H_    0.949142 0.762829 0.396134 0.196038
O21   O     O_3   0.881020 0.249170 0.516622 -0.519145
C49   C     C_3   0.882230 0.167234 0.466937 -0.132965
H27   H     H_    0.977031 0.141602 0.454252 0.197251
H28   H     H_    0.830029 0.218736 0.431174 0.180648
H29   H     H_    0.836216 0.067779 0.475813 0.189460
O22   O     O_3   0.119039 0.750879 0.482990 -0.518551
C50   C     C_3   0.118034 0.833279 0.532555 -0.130786
H30   H     H_    0.163492 0.932929 0.523415 0.191436
H31   H     H_    0.170877 0.782364 0.568254 0.181134
H32   H     H_    0.023323 0.858527 0.545475 0.197225
Br5   Br    Br    0.311661 0.171033 0.411022 -0.430244
Br6   Br    Br    0.687766 0.828743 0.589287 -0.422161
Br7   Br    Br    0.678152 0.163127 0.593487 -0.289547
Br8   Br    Br    0.322578 0.836564 0.406069 -0.340718

loop_
_geom_bond_atom_site_label_1
_geom_bond_atom_site_label_2
_ccdc_geom_bond_type
C38   C40   A    
C48   H24   S    
O19   C47   S    
C8    C26   S    
Cu1   Cu2   S    
C50   H30   S    
C43   H11   S    
C21   Br5   S    
C26   O7    A    
C44   H12   S    
O17   C45   S    
C28   N2    A    
C12   O18   S    
C25   O5    A    
C15   O19   S    
C13   N2    S    
C45   H16   S    
C49   H27   S    
C47   H23   S    
C7    C9    A    
O22   C50   S    
Cu1   O7    S    
C41   H4    S    
C2    O2    A    
Cu2   O8    S    
C29   O11   S    
C47   H22   S    
C30   O12   S    
C25   O8    A    
C32   C38   A    
C18   C20   A    
C3    C13   A    
C21   N4    A    
C27   N1    A    
C22   Br6   S    
O14   C42   S    
C48   H25   S    
C40   O14   S    
C4    C14   A    
C26   O6    A    
Cu1   O1    S    
C44   H13   S    
C6    Br4   S    
C14   N1    S    
C15   C20   A    
C39   O13   S    
C42   H6    S    
C43   H9    S    
C4    C6    A    
C27   O9    S    
C46   H18   S    
C5    C7    A    
C10   O16   S    
C45   H15   S    
C16   O20   S    
C6    C8    A    
C27   C35   A    
C31   C37   A    
C29   N1    A    
C42   H7    S    
C32   C34   A    
C37   H1    S    
C3    Br1   S    
O15   C43   S    
C38   H2    S    
C41   H3    S    
C17   O21   S    
C46   H19   S    
C29   C31   A    
C47   H21   S    
C31   C33   A    
C33   C34   A    
Cu1   N3    S    
C50   H31   S    
Cu2   N4    S    
C9    C11   A    
Cu1   O5    S    
C10   C12   A    
Cu2   O2    S    
C16   C18   A    
C12   C14   A    
C48   H26   S    
C17   C19   A    
C4    Br2   S    
C44   H14   S    
C15   C17   A    
C1    C20   S    
C23   N4    A    
C41   H5    S    
C2    C19   S    
C24   N3    A    
C30   N2    A    
C36   C39   A    
C18   O22   S    
C43   H10   S    
O16   C44   S    
C3    C5    A    
C45   H17   S    
C23   Br7   S    
C28   O10   S    
O21   C49   S    
C24   Br8   S    
C7    C25   S    
C42   H8    S    
C35   C40   A    
C37   C39   A    
Cu2   O6    S    
C46   H20   S    
C30   C32   A    
C11   C13   A    
O18   C46   S    
C49   H28   S    
C11   O17   S    
C16   C19   A    
O20   C48   S    
C33   C35   A    
C22   N3    A    
C50   H32   S    
C34   C36   A    
C5    Br3   S    
O13   C41   S    
C1    O4    A    
C2    O3    A    
C28   C36   A    
C8    C10   A    
C21   C24   A    
C22   C23   A    
C9    O15   S    
C1    O1    A    
Cu1   O3    S    
Cu2   O4    S    
C49   H29   S    
