data_mof_unit_62117.cif
_audit_creation_date              2012-10-26T17:54:37-0400
_audit_creation_method            fapswitch 2.2
_symmetry_space_group_name_H-M    P1
_symmetry_Int_Tables_number       1
_space_group_crystal_system       triclinic
_cell_length_a                    18.712283
_cell_length_b                    18.744459
_cell_length_c                    18.935245
_cell_angle_alpha                 109.102568
_cell_angle_beta                  109.649731
_cell_angle_gamma                 109.135503
_cell_volume                      5145.48314903

loop_
_atom_site_label
_atom_site_type_symbol
_atom_type_description
_atom_site_fract_x
_atom_site_fract_y
_atom_site_fract_z
_atom_type_partial_charge
C1    C     C_R   0.618717 0.118091 0.999422 0.540317
C2    C     C_R   0.490990 0.754807 0.676623 -0.136348
C3    C     C_R   0.489532 0.817578 0.739657 -0.140905
C4    C     C_R   0.502279 0.120976 0.117187 0.565814
C5    C     C_R   0.500796 0.815309 0.815766 0.021379
C6    C     C_R   0.308968 0.832139 0.077295 0.131386
C7    C     C_R   0.244055 0.766919 0.075642 -0.093777
C8    C     C_R   0.186637 0.686195 0.000618 -0.012993
C9    C     C_R   0.193418 0.670620 0.926249 -0.146097
C10   C     C_R   0.256462 0.735738 0.926523 -0.159577
C11   C     C_R   0.314441 0.816090 0.001613 0.035869
C12   C     C_R   0.767481 0.227755 0.931078 -0.118229
C13   C     C_R   0.618930 0.502685 0.621476 0.544613
C14   C     C_R   0.505339 0.385833 0.390627 0.557128
C15   C     C_R   0.381070 0.503421 0.384397 0.549915
C16   C     C_R   0.381195 0.881416 0.000191 0.545690
C17   C     C_R   0.500113 0.621316 0.621404 0.545968
C18   C     C_R   0.880928 0.500984 0.882059 0.550044
C19   C     C_R   0.880645 0.380912 0.999771 0.549303
C20   C     C_R   0.118599 0.498755 0.117838 0.548830
C21   C     C_R   0.119062 0.618962 0.999993 0.548057
C22   C     C_R   0.757058 0.581017 0.758830 -0.132561
C23   C     C_R   0.813056 0.313268 0.999071 0.004590
C24   C     C_R   0.820256 0.580617 0.823480 -0.132087
C25   C     C_R   0.813727 0.501634 0.816073 0.027170
C26   C     C_R   0.743059 0.423074 0.744805 -0.131962
C27   C     C_R   0.678369 0.423457 0.681668 -0.132207
C28   C     C_R   0.500263 0.881741 0.882012 0.542736
C29   C     C_R   0.685750 0.502418 0.688197 0.027168
C30   C     C_R   0.323528 0.502947 0.245993 -0.132524
C31   C     C_R   0.258214 0.499331 0.179503 -0.134729
C32   C     C_R   0.184680 0.497485 0.184375 0.027243
C33   C     C_R   0.175614 0.497227 0.254780 -0.130322
C34   C     C_R   0.794422 0.333230 0.066445 -0.139872
C35   C     C_R   0.239431 0.497852 0.319731 -0.132969
C36   C     C_R   0.313967 0.501769 0.315968 0.025944
C37   C     C_2   0.467284 0.238329 0.296023 -0.167633
C38   C     C_2   0.522653 0.323306 0.340888 -0.125428
C39   C     C_2   0.482769 0.178970 0.237861 -0.145959
C40   C     C_2   0.503755 0.192585 0.179954 0.021427
C41   C     C_R   0.703249 0.161961 0.929627 0.005070
C42   C     C_3   0.428115 0.916154 0.224295 -0.297880
C43   C     C_3   0.516532 0.273621 0.170556 -0.284322
C44   C     C_3   0.512224 0.267411 0.086407 -0.413916
C45   C     C_R   0.731188 0.268308 0.066094 -0.152092
C46   C     C_3   0.657888 0.069986 0.856758 -0.286320
C47   C     C_3   0.699951 0.019055 0.883545 -0.430125
C48   C     C_R   0.685316 0.183252 0.998010 0.047635
C49   C     C_R   0.511657 0.748846 0.827686 -0.133825
C50   C     C_R   0.509837 0.684211 0.763169 -0.133300
C51   C     C_R   0.500250 0.687628 0.687967 0.029122
Cu1   Cu    Cu3+1 0.438200 0.000380 0.938580 0.913236
Cu2   Cu    Cu3+1 0.561800 0.999620 0.061420 0.914367
Cu3   Cu    Cu3+1 0.438220 0.441470 0.503160 0.932741
Cu4   Cu    Cu3+1 0.561830 0.565070 0.503150 0.926433
Cu5   Cu    Cu3+1 0.999900 0.438590 0.938490 0.925986
Cu6   Cu    Cu3+1 0.999930 0.561410 0.061340 0.927468
H1    H     H_    0.409176 0.211411 0.300722 0.154136
H2    H     H_    0.737433 0.361708 0.738799 0.119674
H3    H     H_    0.584179 0.348865 0.341943 0.110036
H4    H     H_    0.623505 0.362403 0.627069 0.121102
H5    H     H_    0.380744 0.505336 0.242318 0.121352
H6    H     H_    0.265909 0.500089 0.125498 0.120069
H7    H     H_    0.118810 0.495678 0.258923 0.121374
H8    H     H_    0.231550 0.496984 0.373626 0.122715
H9    H     H_    0.466663 0.117032 0.236099 0.119172
H10   H     H_    0.782126 0.211979 0.879120 0.128995
H11   H     H_    0.829266 0.398722 0.119781 0.134495
H12   H     H_    0.517331 0.632471 0.772373 0.119266
H13   H     H_    0.717587 0.284449 0.118762 0.105043
H14   H     H_    0.519822 0.746120 0.885996 0.125219
H15   H     H_    0.390251 0.966114 0.144277 0.255084
H16   H     H_    0.465851 0.981983 0.281449 0.137895
H17   H     H_    0.473913 0.900125 0.206494 0.160592
H18   H     H_    0.395528 0.869232 0.241901 0.146169
H19   H     H_    0.559963 0.249252 0.075642 0.160489
H20   H     H_    0.445353 0.220055 0.031120 0.177620
H21   H     H_    0.528658 0.331599 0.090187 0.126063
H22   H     H_    0.466301 0.290469 0.176235 0.159114
H23   H     H_    0.483350 0.757656 0.618455 0.117965
H24   H     H_    0.582085 0.328262 0.222670 0.133807
H25   H     H_    0.770490 0.052389 0.904576 0.156106
H26   H     H_    0.692095 0.012387 0.936974 0.178896
H27   H     H_    0.668555 0.953292 0.828037 0.143926
H28   H     H_    0.587451 0.036445 0.835821 0.161303
H29   H     H_    0.661905 0.070150 0.799536 0.132672
H30   H     H_    0.481311 0.868758 0.729803 0.119257
H31   H     H_    0.238433 0.779420 0.133062 0.139802
H32   H     H_    0.149123 0.608687 0.867647 0.137954
H33   H     H_    0.260876 0.723165 0.868477 0.122011
H34   H     H_    0.762939 0.642353 0.764487 0.122723
H35   H     H_    0.874961 0.641644 0.878258 0.123855
N1    N     N_2   0.364449 0.914568 0.153573 -0.519713
O1    O     O_R   0.537990 0.090490 0.948120 -0.522104
O2    O     O_R   0.909750 0.552440 0.962210 -0.507507
O3    O     O_R   0.909720 0.357980 0.948050 -0.516710
O4    O     O_R   0.642370 0.089850 0.051860 -0.508853
O5    O     O_R   0.909750 0.461690 0.051790 -0.513549
O6    O     O_R   0.090070 0.447560 0.037620 -0.507106
O7    O     O_R   0.090100 0.551270 0.141360 -0.512524
O8    O     O_R   0.090070 0.538310 0.948030 -0.510490
O9    O     O_R   0.090100 0.642020 0.051770 -0.513992
O10   O     O_R   0.447800 0.089920 0.037730 -0.508803
O11   O     O_R   0.552180 0.089280 0.141460 -0.514048
O12   O     O_R   0.642390 0.554900 0.592760 -0.510849
O13   O     O_R   0.357630 0.910150 0.948140 -0.505292
O14   O     O_R   0.462010 0.909510 0.051880 -0.510335
O15   O     O_R   0.447820 0.910720 0.858540 -0.512576
O16   O     O_R   0.552200 0.910080 0.962270 -0.514784
O17   O     O_R   0.538000 0.450530 0.592770 -0.513318
O18   O     O_R   0.447840 0.361480 0.413570 -0.505123
O19   O     O_R   0.552220 0.465860 0.413560 -0.511976
O20   O     O_R   0.357660 0.451630 0.413550 -0.507120
O21   O     O_R   0.462040 0.556010 0.413540 -0.511585
O22   O     O_R   0.447820 0.540680 0.592750 -0.509084
O23   O     O_R   0.552200 0.645050 0.592740 -0.511304
O24   O     O_R   0.909730 0.448730 0.858460 -0.511896

loop_
_geom_bond_atom_site_label_1
_geom_bond_atom_site_label_2
_ccdc_geom_bond_type
Cu3   O20   S    
Cu1   O10   S    
C22   C29   A    
Cu4   O19   S    
C27   C29   A    
C42   N1    S    
Cu5   O24   S    
C35   C36   A    
C17   C51   S    
C7    C8    A    
C14   O19   A    
Cu6   O9    S    
C12   C23   A    
C42   H18   S    
C13   O17   A    
Cu4   O12   S    
C13   C29   S    
C44   H20   S    
C50   H12   S    
Cu5   O8    S    
C30   C31   A    
Cu4   O23   S    
C35   H8    S    
Cu2   O11   S    
C43   H22   S    
C4    O10   A    
Cu5   Cu6   S    
Cu3   O17   S    
C47   H25   S    
C44   H19   S    
C27   H4    S    
C16   O14   A    
C46   C47   S    
C40   C43   S    
C4    C40   S    
C8    C9    A    
C41   C46   S    
C15   O20   A    
Cu1   O1    S    
C47   H26   S    
C26   H2    S    
C37   H1    S    
C16   O13   A    
C46   H28   S    
C21   O8    A    
C23   C34   A    
Cu1   O13   S    
C18   O2    A    
C5    C49   A    
C18   C25   S    
C24   H35   S    
C9    C10   A    
C19   O5    A    
C8    C21   S    
C14   O18   A    
C12   H10   S    
C42   H17   S    
C3    H30   S    
C31   H6    S    
C24   C25   A    
C13   O12   A    
C10   C11   A    
C9    H32   S    
C6    C11   A    
C1    O1    A    
Cu2   O4    S    
C25   C26   A    
Cu6   O7    S    
C19   C23   S    
C43   C44   S    
C37   C38   D    
C14   C38   S    
C5    C28   S    
C11   C16   S    
Cu2   O14   S    
C7    H31   S    
C20   O7    A    
C22   H34   S    
C6    N1    S    
Cu3   O22   S    
C50   C51   A    
C26   C27   A    
C15   O21   A    
C34   C45   A    
C47   H27   S    
C18   O24   A    
C10   H33   S    
C38   H3    S    
H15   N1    S    
C30   H5    S    
Cu6   O2    S    
C43   H24   S    
C39   H9    S    
C22   C24   A    
C21   O9    A    
C1    O4    A    
C15   C36   S    
C39   C40   D    
Cu1   Cu2   S    
C17   O22   A    
C12   C41   A    
C20   C32   S    
C45   C48   A    
Cu2   O16   S    
Cu5   O3    S    
Cu3   Cu4   S    
C42   H16   S    
C45   H13   S    
C31   C32   A    
C3    C5    A    
C1    C48   S    
C6    C7    A    
Cu4   O21   S    
C28   O16   A    
C30   C36   A    
C32   C33   A    
C44   H21   S    
C2    C3    A    
C37   C39   S    
C34   H11   S    
C20   O6    A    
C28   O15   A    
C33   H7    S    
Cu6   O5    S    
C4    O11   A    
C33   C35   A    
C41   C48   A    
Cu3   O18   S    
C2    H23   S    
C2    C51   A    
Cu1   O15   S    
C49   C50   A    
C49   H14   S    
Cu5   O6    S    
C19   O3    A    
C17   O23   A    
C46   H29   S    
