data_mof_unit_17436.cif
_audit_creation_date              2013-03-05T16:45:33-0500
_audit_creation_method            fapswitch 2.2
_symmetry_space_group_name_H-M    P1
_symmetry_Int_Tables_number       1
_space_group_crystal_system       triclinic
_cell_length_a                    15.802959
_cell_length_b                    10.682443
_cell_length_c                    9.866586
_cell_angle_alpha                 90.1355
_cell_angle_beta                  89.767668
_cell_angle_gamma                 90.067753
_cell_volume                      1665.60041154

loop_
_atom_site_label
_atom_site_type_symbol
_atom_site_description
_atom_site_fract_x
_atom_site_fract_y
_atom_site_fract_z
_atom_type_partial_charge
O1    O     O_R   0.500010 0.316790 0.614690 -0.628329
O2    O     O_R   0.500000 0.316760 0.385350 -0.621784
C1    C     C_R   0.497446 0.259936 0.499946 0.876718
O3    O     O_R   0.378030 0.499990 0.614640 -0.547073
O4    O     O_R   0.378020 0.499950 0.385300 -0.627772
C2    C     C_R   0.339275 0.500648 0.500174 0.899161
Zn1   Zn    Zn3+2 0.500010 0.500020 0.653130 0.995332
Zn2   Zn    Zn3+2 0.499990 0.499980 0.346870 0.961372
O5    O     O_R   0.500000 0.683240 0.614650 -0.616128
O6    O     O_R   0.499990 0.683210 0.385310 -0.629540
O7    O     O_R   0.621980 0.500050 0.614700 -0.622223
O8    O     O_R   0.621970 0.500010 0.385360 -0.606733
C3    C     C_R   0.497349 0.740060 0.500124 0.874434
C4    C     C_R   0.660722 0.500291 0.499793 0.893431
C5    C     C_R   0.954357 0.555383 0.617997 -0.336953
H1    H     H_    0.917878 0.573298 0.709310 0.192966
C6    C     C_R   0.912934 0.525871 0.497463 -0.008887
C7    C     C_R   0.957579 0.505563 0.376764 0.497202
C8    C     C_R   0.045464 0.507533 0.379765 -0.325024
H2    H     H_    0.080869 0.485204 0.288471 0.194401
C9    C     C_R   0.087399 0.534121 0.500802 -0.048150
C10   C     C_R   0.042490 0.561348 0.621108 0.342354
C11   C     C_1   0.824041 0.515604 0.498651 0.029908
C12   C     C_1   0.176260 0.521979 0.500897 0.091612
C13   C     C_1   0.250939 0.510890 0.500541 -0.076641
C14   C     C_1   0.749208 0.507391 0.499257 -0.175434
C15   C     C_R   0.482000 0.064233 0.622902 0.137651
C16   C     C_R   0.483942 0.128543 0.500345 -0.103443
C17   C     C_R   0.469629 0.064298 0.378465 -0.215973
H3    H     H_    0.464895 0.112754 0.282583 0.167969
C18   C     C_R   0.469338 0.934918 0.378628 -0.213194
H4    H     H_    0.464153 0.885815 0.282807 0.177410
C19   C     C_R   0.483635 0.871390 0.500668 -0.106404
C20   C     C_R   0.481786 0.936463 0.623099 0.173282
C21   C     C_3   0.539901 0.929788 0.742073 -0.494779
C22   C     C_3   0.540320 0.071670 0.741625 -0.481120
H5    H     H_    0.508143 0.889675 0.832869 0.212184
H6    H     H_    0.602393 0.887999 0.716382 0.198707
H7    H     H_    0.509156 0.113137 0.832356 0.198400
H8    H     H_    0.603012 0.112547 0.715273 0.209265
C23   C     C_R   0.470785 0.398477 0.071518 0.159382
N1    N     N_R   0.499440 0.499140 0.142800 -0.087468
C24   C     C_R   0.536977 0.594336 0.071924 -0.099601
H9    H     H_    0.565453 0.671677 0.126090 0.136391
C25   C     C_R   0.537310 0.594046 0.927963 -0.076919
H10   H     H_    0.566423 0.670746 0.873761 0.129609
N2    N     N_R   0.499440 0.499180 0.857150 -0.086217
C26   C     C_R   0.469537 0.399317 0.929131 0.087014
C27   C     C_3   0.381886 0.344781 0.928052 0.091011
C28   C     C_3   0.384888 0.341843 0.082210 -0.529360
H11   H     H_    0.378917 0.250271 0.880693 0.108756
H12   H     H_    0.338596 0.404446 0.133656 0.249544
H13   H     H_    0.387082 0.245241 0.123341 0.167883
N3    N     N_R   0.084753 0.592204 0.746059 0.238831
O9    O     O_R   0.156809 0.651283 0.745096 -0.326392
O10   O     O_R   0.047335 0.572556 0.861825 -0.396199
N4    N     N_R   0.317082 0.430644 0.877926 0.268012
O11   O     O_R   0.316026 0.547692 0.915132 -0.331137
O12   O     O_R   0.255075 0.386848 0.805600 -0.356649
O13   O     O_3   0.915535 0.472234 0.259393 -0.598440
C29   C     C_3   0.911028 0.578075 0.174312 0.113726
H14   H     H_    0.975414 0.607694 0.140768 0.185187
H15   H     H_    0.879136 0.657731 0.226974 0.126608
C30   C     C_3   0.859600 0.545168 0.049127 -0.734386
H16   H     H_    0.794494 0.516868 0.079222 0.242321
H17   H     H_    0.855767 0.627745 0.981211 0.203768
H18   H     H_    0.890166 0.466843 0.993171 0.276548

loop_
_geom_bond_atom_site_label_1
_geom_bond_atom_site_label_2
_geom_bond_distance
_ccdc_geom_bond_type
C29   C30   1.521541 S    
C28   H12   1.112026 S    
C24   H9    1.081529 S    
C18   C19   1.402826 A    
C3    C19   1.419818 S    
C17   H3    1.082344 S    
C20   C21   1.495259 S    
C15   C22   1.495327 S    
O4    Zn2   1.962917 S    
Zn1   N2    2.013006 S    
C23   N1    1.361571 A    
C21   C22   1.515669 S    
Zn2   O8    1.966207 S    
C30   H16   1.111464 S    
C8    H2    1.084673 S    
C19   C20   1.392497 A    
C17   C18   1.382104 A    
O1    Zn1   1.992869 S    
C9    C10   1.410414 A    
C4    C14   1.400284 S    
Zn1   O7    1.962917 S    
C24   C25   1.420389 A    
N4    O11   1.302407 A    
C6    C11   1.408915 S    
C5    C6    1.395098 A    
O3    Zn1   1.966207 S    
C26   C27   1.502102 S    
O4    C2    1.286045 A    
C7    O13   1.383127 S    
C16   C17   1.402210 A    
C8    C9    1.396554 A    
C23   C26   1.405145 A    
O8    C4    1.286628 A    
C6    C7    1.398343 A    
O2    C1    1.285049 A    
C25   N2    1.368175 A    
C15   C20   1.364897 A    
C29   H14   1.114414 S    
Zn2   O6    1.992870 S    
O7    C4    1.286313 A    
N3    O10   1.301433 A    
N4    O12   1.300502 A    
C28   H13   1.110398 S    
C27   H11   1.112507 S    
N1    C24   1.368801 A    
C9    C12   1.410408 S    
O3    C2    1.286982 A    
C5    H1    1.084389 S    
C2    C13   1.400363 S    
C30   H18   1.111215 S    
Zn1   O5    1.994604 S    
C23   C28   1.488954 S    
C22   H8    1.112311 S    
C21   H6    1.112341 S    
C27   N4    1.463951 S    
C12   C13   1.186215 T    
C10   N3    1.441825 S    
C27   C28   1.522335 S    
C11   C14   1.185736 T    
C15   C16   1.392367 A    
C29   H15   1.115725 S    
C7    C8    1.389404 A    
O5    C3    1.284802 A    
N3    O9    1.301246 A    
C1    C16   1.419492 S    
C21   H5    1.111610 S    
N2    C26   1.365791 A    
C25   H10   1.080813 S    
C22   H7    1.111404 S    
C5    C10   1.394598 A    
O2    Zn2   1.994602 S    
C18   H4    1.083448 S    
Zn2   N1    2.013527 S    
O13   C29   1.411836 S    
O1    C1    1.284242 A    
O6    C3    1.284627 A    
C30   H17   1.110900 S    
