data_mof_unit_26734.cif
_audit_creation_date              2012-12-10T16:52:03-0500
_audit_creation_method            fapswitch 2.2
_symmetry_space_group_name_H-M    P1
_symmetry_Int_Tables_number       1
_space_group_crystal_system       triclinic
_cell_length_a                    7.852361
_cell_length_b                    8.552497
_cell_length_c                    14.962078
_cell_angle_alpha                 92.695442
_cell_angle_beta                  84.986453
_cell_angle_gamma                 93.623753
_cell_volume                      998.096137

loop_
_atom_site_label
_atom_site_type_symbol
_atom_type_description
_atom_site_fract_x
_atom_site_fract_y
_atom_site_fract_z
_atom_type_partial_charge
C1    C     C_R   0.545352 0.794347 0.497732 0.961244
C2    C     C_R   0.652400 0.539251 0.808843 -0.241270
C3    C     C_R   0.498719 0.503467 0.231213 -0.063409
C4    C     C_R   0.501281 0.496533 0.768787 -0.063409
C5    C     C_R   0.649906 0.547363 0.179826 -0.248605
C6    C     C_R   0.350094 0.452637 0.820174 -0.248604
C7    C     C_R   0.651232 0.547580 0.087329 0.112573
C8    C     C_R   0.348768 0.452420 0.912671 0.112573
C9    C     C_R   0.499630 0.501263 0.046509 0.066823
C10   C     C_R   0.500370 0.498737 0.953491 0.066823
C11   C     C_R   0.347273 0.457467 0.098729 0.110671
C12   C     C_R   0.454648 0.205652 0.502268 0.961245
C13   C     C_R   0.652727 0.542532 0.901271 0.110671
C14   C     C_R   0.801335 0.592762 0.035143 -0.218290
C15   C     C_R   0.198665 0.407238 0.964857 -0.218290
C16   C     C_R   0.802196 0.589955 0.942194 -0.217783
C17   C     C_R   0.197804 0.410045 0.057806 -0.217783
C18   C     C_2   0.569172 0.957962 0.496471 -0.357478
C19   C     C_2   0.430828 0.042038 0.503529 -0.357478
C20   C     C_R   0.500553 0.499127 0.672999 0.885618
C21   C     C_R   0.499447 0.500873 0.327001 0.885618
C22   C     C_R   0.347600 0.460749 0.191157 -0.241269
H1    H     H_    0.231113 0.427551 0.231603 0.181941
H2    H     H_    0.299972 0.991356 0.510215 0.206075
H3    H     H_    0.768886 0.572449 0.768397 0.181941
H4    H     H_    0.766002 0.582205 0.211814 0.167429
H5    H     H_    0.233998 0.417795 0.788186 0.167429
H6    H     H_    0.917599 0.630006 0.066183 0.161649
H7    H     H_    0.082401 0.369994 0.933817 0.161649
H8    H     H_    0.919261 0.624813 0.902379 0.161648
H9    H     H_    0.080739 0.375187 0.097620 0.161648
H10   H     H_    0.700028 0.008643 0.489785 0.206075
I1    I     I_    0.033945 0.275743 0.390097 -0.281089
I2    I     I_    0.966055 0.724256 0.609903 -0.281089
N1    N     N_2   0.950330 0.457950 0.475660 0.023399
N2    N     N_2   0.049670 0.542050 0.524340 0.023398
O1    O     O_R   0.389250 0.738570 0.505970 -0.603658
O2    O     O_R   0.610750 0.261430 0.494030 -0.603658
O3    O     O_R   0.678390 0.711620 0.490370 -0.604769
O4    O     O_R   0.321610 0.288380 0.509630 -0.604770
O5    O     O_R   0.355420 0.513510 0.639950 -0.615467
O6    O     O_R   0.644580 0.486490 0.360050 -0.615467
O7    O     O_R   0.644560 0.486560 0.624350 -0.611787
O8    O     O_R   0.355440 0.513440 0.375650 -0.611787
Zn1   Zn    Zn3+2 0.306940 0.517990 0.510420 1.024536
Zn2   Zn    Zn3+2 0.693060 0.482010 0.489580 1.024536

loop_
_geom_bond_atom_site_label_1
_geom_bond_atom_site_label_2
_ccdc_geom_bond_type
C12   O4    A    
C2    C4    A    
C15   C17   A    
C2    H3    S    
C21   O8    A    
C9    C10   A    
C11   C22   A    
C6    H5    S    
C1    O1    A    
C19   H2    S    
N2    Zn1   S    
C9    C11   A    
C1    C18   S    
O3    Zn2   S    
C20   O5    A    
C12   C19   S    
C8    C10   A    
I1    N1    S    
C15   H7    S    
C8    C15   A    
I2    N2    S    
C12   O2    A    
O4    Zn1   S    
C17   H9    S    
O7    Zn2   S    
C14   C16   A    
C3    C21   S    
O2    Zn2   S    
C1    O3    A    
O1    Zn1   S    
C5    H4    S    
C4    C20   S    
C7    C9    A    
C20   O7    A    
C18   H10   S    
O8    Zn1   S    
C4    C6    A    
C18   C19   D    
O6    Zn2   S    
C13   C16   A    
C5    C7    A    
C2    C13   A    
O5    Zn1   S    
C22   H1    S    
C11   C17   A    
C3    C22   A    
C6    C8    A    
C14   H6    S    
N1    Zn2   S    
C16   H8    S    
C10   C13   A    
C7    C14   A    
C21   O6    A    
C3    C5    A    
N1    N2    D    
