data_mof_unit_24620.cif
_audit_creation_date              2012-12-10T18:31:49-0500
_audit_creation_method            fapswitch 2.2
_symmetry_space_group_name_H-M    P1
_symmetry_Int_Tables_number       1
_space_group_crystal_system       triclinic
_cell_length_a                    10.692264
_cell_length_b                    14.999665
_cell_length_c                    15.410161
_cell_angle_alpha                 81.886863
_cell_angle_beta                  89.913874
_cell_angle_gamma                 104.974566
_cell_volume                      2361.79744809

loop_
_atom_site_label
_atom_site_type_symbol
_atom_type_description
_atom_site_fract_x
_atom_site_fract_y
_atom_site_fract_z
_atom_type_partial_charge
C1    C     C_R   0.483132 0.441539 0.662336 0.837581
C2    C     C_3   0.121589 0.496815 0.503558 -0.006898
C3    C     C_3   0.091574 0.548369 0.413863 0.354590
C4    C     C_3   0.090349 0.543306 0.582543 -0.508862
C5    C     C_R   0.485114 0.405687 0.755287 -0.046821
C6    C     C_R   0.548022 0.593538 0.244590 -0.169947
C7    C     C_R   0.435414 0.280686 0.877819 -0.177722
C8    C     C_R   0.432352 0.311496 0.788377 -0.240107
C9    C     C_R   0.543578 0.468036 0.811249 -0.231083
C10   C     C_R   0.546550 0.439373 0.901145 0.019815
C11   C     C_R   0.488973 0.344285 0.935263 0.067590
C12   C     C_R   0.742276 0.500137 0.501641 0.865987
C13   C     C_R   0.594526 0.505056 0.958422 0.062318
C14   C     C_R   0.561985 0.478318 0.048423 -0.003116
C15   C     C_R   0.520302 0.382562 0.081960 -0.298265
C16   C     C_R   0.481874 0.315332 0.026184 0.417422
C17   C     C_R   0.671048 0.596841 0.929245 -0.204503
C18   C     C_R   0.703631 0.661998 0.986949 -0.214147
C19   C     C_R   0.653545 0.639312 0.073168 0.119152
C20   C     C_R   0.575200 0.548312 0.102650 -0.007591
C21   C     C_R   0.680200 0.706021 0.130510 -0.218607
C22   C     C_R   0.631845 0.681904 0.217108 -0.281654
C23   C     C_R   0.518746 0.558408 0.337594 0.901796
C24   C     C_R   0.507696 0.531519 0.184154 0.395677
C25   C     C_R   0.694445 0.839206 0.639998 -0.306243
C26   C     C_R   0.661853 0.751307 0.615015 0.032279
C27   C     C_R   0.510652 0.793595 0.515627 -0.059208
C28   C     C_R   0.536429 0.883535 0.540314 -0.007101
C29   C     C_R   0.633822 0.906145 0.601267 0.110139
C30   C     C_R   0.472097 0.951497 0.504745 0.027808
C31   C     C_R   0.514424 0.045310 0.524087 -0.046978
C32   C     C_R   0.613572 0.064637 0.586809 0.454248
C33   C     C_R   0.671473 0.995334 0.622779 -0.306302
C34   C     C_R   0.257887 0.498047 0.502313 0.922729
C35   C     C_R   0.365325 0.927178 0.451178 -0.226446
C36   C     C_R   0.308753 0.993230 0.409224 -0.215970
C37   C     C_R   0.352867 0.085750 0.421341 0.194619
C38   C     C_R   0.453964 0.113498 0.479950 -0.009901
C39   C     C_R   0.293376 0.150545 0.376379 -0.331570
C40   C     C_R   0.331752 0.242419 0.390572 0.021805
C41   C     C_R   0.487606 0.208607 0.490569 -0.034951
C42   C     C_3   0.894279 0.395853 0.519008 0.330173
C43   C     C_3   0.036946 0.394905 0.516383 -0.576514
C44   C     C_3   0.949617 0.554424 0.415893 -0.472376
C45   C     C_3   0.947682 0.550172 0.580168 0.323427
C46   C     C_3   0.879442 0.500082 0.502870 -0.121809
H1    H     H_    0.162361 0.610231 0.585426 0.201864
H2    H     H_    0.945183 0.628249 0.408854 0.220086
H3    H     H_    0.662260 0.731240 0.262817 0.182871
H4    H     H_    0.764478 0.731104 0.963264 0.138423
H5    H     H_    0.391921 0.207783 0.902096 0.178202
H6    H     H_    0.387650 0.262078 0.745415 0.157995
H7    H     H_    0.580508 0.540423 0.783999 0.155104
H8    H     H_    0.860715 0.369774 0.588382 0.114065
H9    H     H_    0.519516 0.359239 0.151655 0.207199
H10   H     H_    0.711191 0.618898 0.863019 0.138042
H11   H     H_    0.742572 0.775233 0.109450 0.149430
H12   H     H_    0.749204 0.012607 0.667674 0.162187
H13   H     H_    0.559878 0.239530 0.532501 0.237732
H14   H     H_    0.284660 0.293012 0.358279 0.160120
H15   H     H_    0.228585 0.971335 0.367264 0.138588
H16   H     H_    0.767003 0.854936 0.688578 0.138394
H17   H     H_    0.707591 0.698558 0.644435 0.167477
H18   H     H_    0.443428 0.770767 0.466495 0.146534
H19   H     H_    0.059789 0.356189 0.578966 0.177575
H20   H     H_    0.320719 0.856446 0.441738 0.154804
H21   H     H_    0.216289 0.129925 0.331892 0.143479
H22   H     H_    0.058434 0.356745 0.463881 0.210431
H23   H     H_    0.900313 0.528542 0.357752 0.103684
H24   H     H_    0.103081 0.504129 0.363448 0.029365
H25   H     H_    0.899279 0.507497 0.641994 0.073391
H26   H     H_    0.102808 0.499176 0.644747 0.134940
N1    N     N_R   0.573860 0.731700 0.552730 -0.106344
N2    N     N_R   0.426060 0.268290 0.447230 -0.120119
O1    O     O_R   0.462770 0.383110 0.605620 -0.627695
O2    O     O_R   0.510160 0.531900 0.639510 -0.627636
O3    O     O_R   0.661510 0.425600 0.483070 -0.603165
O4    O     O_R   0.708900 0.574390 0.516960 -0.565742
O5    O     O_R   0.489840 0.468100 0.360490 -0.566712
O6    O     O_R   0.537230 0.616890 0.394380 -0.624489
O7    O     O_R   0.291100 0.425610 0.483040 -0.644472
O8    O     O_R   0.338490 0.574400 0.516930 -0.593484
Zn1   Zn    Zn3+2 0.468350 0.400660 0.477370 0.951780
Zn2   Zn    Zn3+2 0.531650 0.599340 0.522630 0.953230
O9    O     O_3   0.815353 0.327210 0.472591 -0.545362
C47   C     C_3   0.833187 0.344622 0.380155 0.163727
H27   H     H_    0.933474 0.381183 0.356760 0.101615
H28   H     H_    0.766373 0.385489 0.351524 0.161566
C48   C     C_3   0.798872 0.251906 0.344956 -0.817254
H29   H     H_    0.696644 0.213839 0.363414 0.264871
H30   H     H_    0.811287 0.264257 0.272308 0.203224
H31   H     H_    0.863345 0.208467 0.372407 0.254497
O10   O     O_3   0.177220 0.639175 0.394882 -0.620924
C49   C     C_3   0.207532 0.662650 0.303837 0.089648
H32   H     H_    0.118247 0.650692 0.265146 0.134675
H33   H     H_    0.271274 0.620531 0.283972 0.141525
C50   C     C_3   0.279963 0.765044 0.282737 -0.840961
H34   H     H_    0.372926 0.778473 0.316745 0.252888
H35   H     H_    0.301359 0.783782 0.210963 0.213429
H36   H     H_    0.219831 0.809134 0.303579 0.245951
O11   O     O_3   0.441298 0.221180 0.059569 -0.613249
C51   C     C_3   0.325257 0.203096 0.110789 0.097971
H37   H     H_    0.251670 0.232870 0.074437 0.133649
H38   H     H_    0.343897 0.231954 0.173547 0.163173
C52   C     C_3   0.269282 0.098162 0.133074 -0.839749
H39   H     H_    0.338946 0.066524 0.171491 0.266118
H40   H     H_    0.177443 0.083092 0.172761 0.197979
H41   H     H_    0.249088 0.066566 0.071880 0.253174
O12   O     O_3   0.403037 0.454448 0.206662 -0.620798
C53   C     C_3   0.293433 0.469792 0.161999 0.097461
H42   H     H_    0.302110 0.462474 0.091588 0.152929
H43   H     H_    0.280185 0.540241 0.166638 0.115405
C54   C     C_3   0.172976 0.397394 0.202685 -0.891177
H44   H     H_    0.163035 0.401900 0.273509 0.245696
H45   H     H_    0.085597 0.409928 0.169621 0.213206
H46   H     H_    0.179989 0.326268 0.195351 0.242698
O13   O     O_3   0.664326 0.151946 0.609964 -0.602749
C55   C     C_3   0.617887 0.153968 0.695482 0.072624
H47   H     H_    0.632929 0.095402 0.743811 0.137481
H48   H     H_    0.512759 0.150873 0.695151 0.131910
C56   C     C_3   0.691249 0.244375 0.726221 -0.812388
H49   H     H_    0.670278 0.304826 0.684156 0.247938
H50   H     H_    0.661481 0.244632 0.795169 0.225266
H51   H     H_    0.797043 0.250838 0.722957 0.246404
O14   O     O_3   0.924552 0.640105 0.582328 -0.589239
C57   C     C_3   0.028802 0.719367 0.555360 0.114559
H52   H     H_    0.082075 0.712836 0.496275 0.205912
H53   H     H_    0.095982 0.732185 0.609924 0.141637
C58   C     C_3   0.977354 0.804867 0.532882 -0.850584
H54   H     H_    0.938794 0.822205 0.593306 0.249704
H55   H     H_    0.057018 0.865357 0.503939 0.214428
H56   H     H_    0.899720 0.791730 0.484851 0.267895

loop_
_geom_bond_atom_site_label_1
_geom_bond_atom_site_label_2
_ccdc_geom_bond_type
O10   C49   S    
C33   H12   S    
C40   H14   S    
C45   H25   S    
C19   C20   A    
C32   O13   S    
O6    Zn2   S    
O2    Zn2   S    
C50   H34   S    
C7    C8    A    
O9    C47   S    
C7    C11   A    
C52   H40   S    
C57   H52   S    
C30   C35   A    
C1    C5    S    
C36   C37   A    
C19   C21   A    
C58   H54   S    
C30   C31   A    
C47   H28   S    
O3    Zn1   S    
C15   C16   A    
C6    C22   A    
C29   C33   A    
C26   N1    A    
C51   C52   S    
C18   C19   A    
C42   C46   S    
C55   H47   S    
C56   H51   S    
C50   H35   S    
C41   N2    A    
C53   H42   S    
C20   C24   A    
C45   O14   S    
C43   H22   S    
C12   O4    A    
C34   O7    A    
C23   O6    A    
C48   H30   S    
C9    C10   A    
C8    H6    S    
N1    Zn2   S    
C49   H33   S    
C54   H46   S    
C2    C34   S    
C13   C14   A    
C51   H37   S    
O7    Zn1   S    
O11   C51   S    
C44   C46   S    
C53   H43   S    
C4    C45   S    
C25   C29   A    
C52   H41   S    
C3    C44   S    
C1    O1    A    
N2    Zn1   S    
C14   C20   A    
C3    H24   S    
C41   H13   S    
C38   C41   A    
C12   C46   S    
C10   C11   A    
C39   C40   A    
C47   H27   S    
C49   C50   S    
C25   C26   A    
C45   C46   S    
C47   C48   S    
C54   H45   S    
C55   C56   S    
C15   H9    S    
C2    C4    S    
C26   H17   S    
C5    C9    A    
C37   C38   A    
C11   C16   A    
C31   C32   A    
C17   H10   S    
C2    C43   S    
C43   H19   S    
C6    C24   A    
C12   O3    A    
C17   C18   A    
C44   H23   S    
C3    O10   S    
C42   O9    S    
C48   H31   S    
C51   H38   S    
C53   C54   S    
C56   H49   S    
C22   H3    S    
O8    Zn2   S    
O14   C57   S    
C9    H7    S    
C42   C43   S    
C36   H15   S    
C4    H26   S    
C50   H36   S    
C18   H4    S    
C54   H44   S    
C52   H39   S    
C28   C29   A    
C57   H53   S    
C57   C58   S    
C1    O2    A    
C39   H21   S    
C24   O12   S    
C10   C13   A    
C5    C8    A    
C21   H11   S    
C35   H20   S    
C31   C38   A    
C13   C17   A    
C32   C33   A    
C58   H56   S    
C28   C30   A    
C2    C3    S    
C7    H5    S    
C37   C39   A    
C27   N1    A    
O13   C55   S    
C42   H8    S    
O5    Zn1   S    
O1    Zn1   S    
C6    C23   S    
C40   N2    A    
C25   H16   S    
C49   H32   S    
C55   H48   S    
C56   H50   S    
C27   H18   S    
O4    Zn2   S    
C16   O11   S    
O12   C53   S    
C27   C28   A    
C14   C15   A    
C35   C36   A    
C34   O8    A    
C23   O5    A    
C48   H29   S    
C21   C22   A    
C44   H2    S    
C58   H55   S    
C4    H1    S    
