data_mof_unit_40208.cif
_audit_creation_date              2012-12-10T16:52:40-0500
_audit_creation_method            fapswitch 2.2
_symmetry_space_group_name_H-M    P1
_symmetry_Int_Tables_number       1
_space_group_crystal_system       triclinic
_cell_length_a                    7.839838
_cell_length_b                    8.56921
_cell_length_c                    13.79471
_cell_angle_alpha                 93.31584
_cell_angle_beta                  93.17706
_cell_angle_gamma                 94.245877
_cell_volume                      920.994201718

loop_
_atom_site_label
_atom_site_type_symbol
_atom_type_description
_atom_site_fract_x
_atom_site_fract_y
_atom_site_fract_z
_atom_type_partial_charge
C1    C     C_R   0.045183 0.794678 0.497549 0.964570
C2    C     C_R   0.936227 0.486122 0.318113 0.866344
C3    C     C_R   0.092486 0.517944 0.787021 -0.058729
C4    C     C_R   0.899353 0.452619 0.214654 -0.069122
C5    C     C_R   0.033901 0.620692 0.947190 -0.189850
C6    C     C_R   0.920167 0.285228 0.069683 -0.191219
C7    C     C_R   0.985784 0.595523 0.848590 -0.194843
C8    C     C_R   0.986106 0.342145 0.161903 -0.190022
C9    C     C_R   0.237993 0.454510 0.824823 -0.275376
C10   C     C_R   0.752261 0.509400 0.174467 -0.278091
C11   C     C_R   0.288248 0.476560 0.923443 0.087210
C12   C     C_R   0.954798 0.205315 0.502379 0.965851
C13   C     C_R   0.673089 0.440806 0.087920 0.091623
C14   C     C_R   0.187800 0.567156 0.984199 0.179671
C15   C     C_R   0.762491 0.331826 0.032984 0.174181
C16   C     C_R   0.442838 0.421525 0.961063 0.062515
C17   C     C_R   0.507180 0.477144 0.055505 0.062494
C18   C     C_R   0.401637 0.563260 0.115555 -0.236648
C19   C     C_R   0.535009 0.313007 0.907497 -0.230476
C20   C     C_R   0.244047 0.606210 0.080361 -0.222250
C21   C     C_R   0.691635 0.268354 0.943485 -0.225579
C22   C     C_2   0.068621 0.958444 0.496091 -0.387915
C23   C     C_2   0.931335 0.041542 0.503738 -0.385359
C24   C     C_R   0.063109 0.510884 0.682007 0.867834
H1    H     H_    0.167463 0.673114 0.128189 0.149923
H2    H     H_    0.802048 0.989952 0.511038 0.179009
H3    H     H_    0.487099 0.374477 0.427630 0.189504
H4    H     H_    0.512896 0.625566 0.572336 0.188737
H5    H     H_    0.434798 0.595335 0.191325 0.157104
H6    H     H_    0.486081 0.255281 0.839016 0.148094
H7    H     H_    0.757451 0.183677 0.901036 0.146594
H8    H     H_    0.698183 0.603310 0.214917 0.149579
H9    H     H_    0.316740 0.397271 0.774324 0.159093
H10   H     H_    0.100721 0.296542 0.193032 0.159621
H11   H     H_    0.870717 0.643402 0.819869 0.157881
H12   H     H_    0.954284 0.686545 0.993732 0.140746
H13   H     H_    0.988525 0.200539 0.028876 0.138392
H14   H     H_    0.197906 0.010036 0.488781 0.179178
N1    N     N_2   0.440860 0.456490 0.474790 -0.174643
N2    N     N_2   0.559140 0.543510 0.525210 -0.173916
O1    O     O_R   0.891570 0.738930 0.506190 -0.611465
O2    O     O_R   0.108430 0.261070 0.493810 -0.611942
O3    O     O_R   0.174650 0.711050 0.490030 -0.625064
O4    O     O_R   0.825350 0.288950 0.509970 -0.624257
O5    O     O_R   0.909850 0.521900 0.644940 -0.615929
O6    O     O_R   0.090150 0.478100 0.355060 -0.618965
O7    O     O_R   0.192930 0.494020 0.628780 -0.622142
O8    O     O_R   0.807070 0.505980 0.371220 -0.616994
Zn1   Zn    Zn3+2 0.810990 0.518620 0.510790 0.934357
Zn2   Zn    Zn3+2 0.189010 0.481380 0.489210 0.930693

loop_
_geom_bond_atom_site_label_1
_geom_bond_atom_site_label_2
_ccdc_geom_bond_type
O4    Zn1   S    
C2    C4    S    
O3    Zn2   S    
C3    C9    A    
O5    Zn1   S    
C9    C11   A    
C11   C16   A    
O6    Zn2   S    
C18   C20   A    
C13   C17   A    
C4    C8    A    
C17   C18   A    
C5    C14   A    
C6    H13   S    
C1    C22   S    
C12   O4    A    
C18   H5    S    
C8    H10   S    
C2    O6    A    
C9    H9    S    
C21   H7    S    
C12   C23   S    
C3    C24   S    
C19   H6    S    
O2    Zn2   S    
C16   C19   A    
C6    C8    A    
C24   O5    A    
O1    Zn1   S    
O8    Zn1   S    
C19   C21   A    
O7    Zn2   S    
C3    C7    A    
C13   C15   A    
C11   C14   A    
C20   H1    S    
H4    N2    S    
C4    C10   A    
N2    Zn1   S    
C22   H14   S    
C5    H12   S    
C10   H8    S    
C15   C21   A    
N1    Zn2   S    
C14   C20   A    
C23   H2    S    
C1    O1    A    
N1    N2    D    
C5    C7    A    
C22   C23   D    
C12   O2    A    
C2    O8    A    
C6    C15   A    
C24   O7    A    
C7    H11   S    
C1    O3    A    
H3    N1    S    
C16   C17   A    
C10   C13   A    
