data_mof_unit_40428.cif
_audit_creation_date              2012-12-10T17:42:39-0500
_audit_creation_method            fapswitch 2.2
_symmetry_space_group_name_H-M    P1
_symmetry_Int_Tables_number       1
_space_group_crystal_system       triclinic
_cell_length_a                    9.891677
_cell_length_b                    10.636419
_cell_length_c                    13.111183
_cell_angle_alpha                 91.637835
_cell_angle_beta                  69.753082
_cell_angle_gamma                 90.361043
_cell_volume                      1293.6793131

loop_
_atom_site_label
_atom_site_type_symbol
_atom_type_description
_atom_site_fract_x
_atom_site_fract_y
_atom_site_fract_z
_atom_type_partial_charge
C1    C     C_R   0.506804 0.737859 0.484088 0.914315
C2    C     C_R   0.432222 0.482526 0.984104 0.086862
C3    C     C_R   0.458313 0.443569 0.875474 0.085563
C4    C     C_R   0.541863 0.462889 0.028260 0.070558
C5    C     C_R   0.664312 0.387861 0.970734 0.171169
C6    C     C_R   0.677566 0.335110 0.869320 -0.244094
C7    C     C_R   0.575793 0.362388 0.822163 -0.208349
C8    C     C_R   0.533451 0.516904 0.128075 -0.250595
C9    C     C_R   0.750958 0.409329 0.121979 -0.210709
C10   C     C_R   0.367290 0.488781 0.822258 -0.114613
C11   C     C_R   0.283472 0.879682 0.422089 0.482001
C12   C     C_R   0.419777 0.494673 0.704095 0.841400
C13   C     C_R   0.145833 0.935170 0.454033 -0.247946
C14   C     C_R   0.116427 0.044415 0.518747 -0.209488
C15   C     C_R   0.227189 0.105884 0.542605 -0.174064
C16   C     C_R   0.369346 0.056676 0.503567 0.023237
C17   C     C_R   0.389946 0.934119 0.459850 0.057384
C18   C     C_R   0.514248 0.869613 0.460883 -0.090729
C19   C     C_R   0.634210 0.935176 0.465804 -0.261861
C20   C     C_R   0.624791 0.062423 0.484965 -0.224076
C21   C     C_R   0.493040 0.124063 0.505406 -0.108619
C22   C     C_R   0.798095 0.668250 0.641340 -0.207808
C23   C     C_R   0.496058 0.259303 0.506238 0.867202
C24   C     C_R   0.836461 0.747780 0.713993 0.031564
C25   C     C_R   0.976642 0.742783 0.714827 -0.250481
C26   C     C_R   0.076916 0.661017 0.644283 -0.182307
C27   C     C_R   0.041047 0.580473 0.570701 0.164341
C28   C     C_R   0.896879 0.582132 0.569891 0.151976
C29   C     C_R   0.958610 0.421900 0.433042 -0.141331
C30   C     C_R   0.101968 0.422245 0.432802 -0.121884
C31   C     C_R   0.580281 0.499293 0.295690 0.895182
C32   C     C_R   0.769937 0.364307 0.016982 -0.197674
C33   C     C_R   0.629393 0.482222 0.178451 -0.066228
C34   C     C_R   0.235348 0.545976 0.882366 -0.200388
C35   C     C_R   0.198751 0.566817 0.993643 -0.144556
C36   C     C_R   0.297347 0.538896 0.044075 -0.190488
H1    H     H_    0.826081 0.381584 0.160891 0.152806
H2    H     H_    0.061139 0.893071 0.429907 0.131089
H3    H     H_    0.008749 0.084011 0.547349 0.156381
H4    H     H_    0.198789 0.189729 0.594091 0.171605
H5    H     H_    0.720573 0.111778 0.485855 0.170375
H6    H     H_    0.929242 0.358124 0.378459 0.142765
H7    H     H_    0.689868 0.675724 0.644223 0.211128
H8    H     H_    0.009947 0.804124 0.769111 0.147736
H9    H     H_    0.181635 0.663414 0.649884 0.208099
H10   H     H_    0.767520 0.273959 0.825788 0.152720
H11   H     H_    0.180581 0.358656 0.378017 0.156224
H12   H     H_    0.863159 0.306363 0.974136 0.139228
H13   H     H_    0.448195 0.581804 0.171522 0.174970
H14   H     H_    0.162880 0.578585 0.842843 0.152808
H15   H     H_    0.263591 0.559254 0.130356 0.132853
H16   H     H_    0.096253 0.609950 0.040199 0.144775
H17   H     H_    0.589081 0.317984 0.743977 0.167628
H18   H     H_    0.733200 0.887593 0.460279 0.168586
N1    N     N_R   0.856860 0.501200 0.500990 -0.111777
N2    N     N_R   0.142450 0.501280 0.501020 -0.113129
O1    O     O_R   0.385310 0.683220 0.500000 -0.593319
O2    O     O_R   0.614640 0.683250 0.500010 -0.654395
O3    O     O_R   0.328400 0.499950 0.653610 -0.639172
O4    O     O_R   0.557730 0.499970 0.653620 -0.622532
O5    O     O_R   0.385360 0.316750 0.499990 -0.621447
O6    O     O_R   0.614690 0.316780 0.500000 -0.623715
O7    O     O_R   0.442270 0.500030 0.346380 -0.587826
O8    O     O_R   0.671600 0.500050 0.346390 -0.620337
Zn1   Zn    Zn3+2 0.346880 0.499980 0.499990 0.943330
Zn2   Zn    Zn3+2 0.653120 0.500020 0.500010 0.919820
O9    O     O_3   0.318791 0.778251 0.349297 -0.775483
H19   H     H_    0.232570 0.752396 0.331845 0.318547
C37   C     C_R   0.730454 0.837126 0.788701 0.128528
C38   C     C_R   0.639547 0.909089 0.750931 -0.179480
C39   C     C_R   0.543374 0.996312 0.820128 -0.134275
C40   C     C_R   0.536095 0.012009 0.928029 -0.101036
C41   C     C_R   0.624630 0.940139 0.966958 -0.132128
C42   C     C_R   0.721455 0.853167 0.897828 -0.147961
H20   H     H_    0.644806 0.899398 0.667508 0.137506
H21   H     H_    0.475032 0.052203 0.789854 0.130013
H22   H     H_    0.461959 0.079905 0.981421 0.133896
H23   H     H_    0.618474 0.951990 0.050724 0.141470
H24   H     H_    0.788635 0.797935 0.929727 0.128661

loop_
_geom_bond_atom_site_label_1
_geom_bond_atom_site_label_2
_ccdc_geom_bond_type
O7    Zn1   S    
C16   C21   A    
C29   H6    S    
C41   C42   A    
C35   C36   A    
C4    C8    A    
C20   H5    S    
C1    C18   S    
C29   C30   A    
C18   C19   A    
C3    C7    A    
C39   H21   S    
N2    Zn1   S    
C34   C35   A    
C9    C32   A    
C14   H3    S    
C12   O3    A    
O2    Zn2   S    
C23   O6    A    
C19   C20   A    
C16   C17   A    
C41   H23   S    
C31   C33   S    
C38   C39   A    
C26   H9    S    
C5    C32   A    
O4    Zn2   S    
C22   C28   A    
C13   C14   A    
C9    C33   A    
C32   H12   S    
C25   H8    S    
C28   N1    A    
C11   O9    S    
C24   C37   S    
C34   H14   S    
O6    Zn2   S    
O9    H19   S    
C31   O7    A    
C30   H11   S    
C24   C25   A    
C27   N2    A    
C4    C5    A    
C29   N1    A    
C25   C26   A    
C30   N2    A    
O8    Zn2   S    
C2    C4    A    
C40   H22   S    
C1    O1    A    
C22   H7    S    
C9    H1    S    
C17   C18   A    
C26   C27   A    
C37   C42   A    
C10   C34   A    
C13   H2    S    
C36   H15   S    
C10   C12   S    
C19   H18   S    
C42   H24   S    
C21   C23   S    
C22   C24   A    
C7    H17   S    
C35   H16   S    
N1    Zn2   S    
C2    C36   A    
C11   C17   A    
C6    H10   S    
C31   O8    A    
O1    Zn1   S    
C40   C41   A    
C6    C7    A    
C2    C3    A    
C39   C40   A    
C3    C10   A    
C1    O2    A    
O3    Zn1   S    
C11   C13   A    
C5    C6    A    
C8    C33   A    
C37   C38   A    
C15   H4    S    
C12   O4    A    
O5    Zn1   S    
C23   O5    A    
C20   C21   A    
C38   H20   S    
C27   C28   A    
C14   C15   A    
C8    H13   S    
C15   C16   A    
