data_mof_unit_39816.cif
_audit_creation_date              2013-03-05T15:42:55-0500
_audit_creation_method            fapswitch 2.2
_symmetry_space_group_name_H-M    P1
_symmetry_Int_Tables_number       1
_space_group_crystal_system       triclinic
_cell_length_a                    15.079805
_cell_length_b                    10.934622
_cell_length_c                    9.696888
_cell_angle_alpha                 90.255363
_cell_angle_beta                  90.302862
_cell_angle_gamma                 90.364135
_cell_volume                      1598.86819091

loop_
_atom_site_label
_atom_site_type_symbol
_atom_site_description
_atom_site_fract_x
_atom_site_fract_y
_atom_site_fract_z
_atom_type_partial_charge
O1    O     O_R   0.500020 0.321960 0.617040 -0.575991
O2    O     O_R   0.499980 0.321920 0.382900 -0.577046
C1    C     C_R   0.499010 0.265367 0.499835 0.851424
O3    O     O_R   0.370270 0.499990 0.617090 -0.602020
O4    O     O_R   0.370240 0.499950 0.382940 -0.587127
C2    C     C_R   0.328604 0.500186 0.499782 0.812333
Cu1   Cu    Cu3+1 0.500020 0.500020 0.638630 0.966443
Cu2   Cu    Cu3+1 0.499980 0.499980 0.361370 0.938469
O5    O     O_R   0.500020 0.678080 0.617100 -0.614380
O6    O     O_R   0.499980 0.678040 0.382960 -0.585201
O7    O     O_R   0.629760 0.500050 0.617060 -0.571140
O8    O     O_R   0.629730 0.500010 0.382910 -0.578455
C3    C     C_R   0.501393 0.734647 0.500324 0.841402
C4    C     C_R   0.671367 0.500846 0.500238 0.806494
C5    C     C_R   0.814206 0.505239 0.374965 -0.238112
C6    C     C_R   0.768260 0.502623 0.500474 -0.075941
C7    C     C_R   0.815087 0.501742 0.625892 -0.245118
C8    C     C_R   0.907497 0.502300 0.626639 0.106969
C9    C     C_R   0.953461 0.503967 0.500200 0.062806
C10   C     C_R   0.906559 0.505791 0.373937 0.106170
C11   C     C_R   0.954676 0.500705 0.751579 -0.206323
C12   C     C_R   0.047131 0.500139 0.751380 -0.211209
C13   C     C_R   0.093323 0.501271 0.626246 0.108553
C14   C     C_R   0.046421 0.503444 0.500003 0.063098
C15   C     C_R   0.092375 0.504762 0.373560 0.108394
C16   C     C_R   0.045180 0.507103 0.248636 -0.211025
C17   C     C_R   0.952731 0.507664 0.248821 -0.207333
C18   C     C_R   0.185688 0.500118 0.625158 -0.247043
C19   C     C_R   0.231655 0.501156 0.499621 -0.070708
C20   C     C_R   0.184791 0.503582 0.374260 -0.246601
H1    H     H_    0.778259 0.506512 0.277813 0.160863
H2    H     H_    0.779783 0.500094 0.723003 0.165836
H3    H     H_    0.920088 0.499603 0.849291 0.137930
H4    H     H_    0.082488 0.498613 0.848968 0.135840
H5    H     H_    0.221637 0.498303 0.722278 0.150441
H6    H     H_    0.220074 0.504569 0.277108 0.153626
H7    H     H_    0.079742 0.508292 0.150916 0.136312
H8    H     H_    0.917356 0.509267 0.151237 0.138697
C21   C     C_2   0.500050 0.932549 0.386951 -0.149946
C22   C     C_2   0.506231 0.866685 0.502866 -0.315513
H9    H     H_    0.493144 0.887364 0.287421 0.162590
H10   H     H_    0.516910 0.908119 0.603140 0.141908
C23   C     C_2   0.503810 0.066549 0.386760 -0.158406
C24   C     C_2   0.494783 0.133360 0.501867 -0.314174
H11   H     H_    0.512825 0.110899 0.287729 0.165657
H12   H     H_    0.482363 0.092616 0.601410 0.146277
C25   C     C_2   0.446457 0.432945 0.922328 0.075386
N1    N     N_2   0.499020 0.498660 0.846910 -0.011096
H13   H     H_    0.391528 0.385240 0.872884 0.074218
C26   C     C_2   0.457406 0.419105 0.076725 -0.039145
N2    N     N_2   0.499000 0.498630 0.153040 -0.268097
H14   H     H_    0.426027 0.341222 0.125733 0.127223
H15   H     H_    0.513065 0.581603 0.109301 0.222937
O9    O     O_3   0.580100 0.518026 0.903344 -0.513868
C27   C     C_3   0.602272 0.642769 0.886905 0.172311
H16   H     H_    0.545295 0.702990 0.913086 0.104649
H17   H     H_    0.623316 0.661759 0.780144 0.185437
C28   C     C_3   0.680431 0.674217 0.982196 -0.419355
H18   H     H_    0.662276 0.655742 0.091069 0.229744
H19   H     H_    0.737906 0.615662 0.955458 0.220346
C29   C     C_3   0.707700 0.808254 0.969030 -0.918901
H20   H     H_    0.728086 0.828440 0.861538 0.257032
H21   H     H_    0.764580 0.827835 0.039068 0.266661
H22   H     H_    0.651754 0.868622 0.997986 0.254798

loop_
_geom_bond_atom_site_label_1
_geom_bond_atom_site_label_2
_geom_bond_distance
_ccdc_geom_bond_type
N1    O9    1.351970 S    
O4    Cu2   1.968700 S    
C26   H14   1.084385 S    
C13   C14   1.410920 A    
C16   H7    1.083953 S    
C5    H1    1.084600 S    
C19   C20   1.403312 A    
C10   C17   1.402185 A    
Cu2   O8    1.966622 S    
C29   H22   1.110969 S    
C8    C11   1.401954 A    
N2    H15   1.024675 S    
C9    C10   1.411000 A    
C20   H6    1.084450 S    
C23   C24   1.339295 D    
Cu1   N1    2.019923 S    
C28   C29   1.525802 S    
C22   H10   1.081739 S    
C9    C14   1.401876 A    
C15   C16   1.402131 A    
Cu1   Cu2   2.688555 S    
C25   H13   1.084511 S    
O1    Cu1   1.957314 S    
C11   C12   1.394271 A    
Cu1   O7    1.968702 S    
C23   H11   1.086510 S    
Cu2   N2    2.020116 S    
C16   C17   1.394185 A    
C5    C10   1.392720 A    
O3    Cu1   1.966620 S    
O4    C2    1.298240 A    
Cu2   O6    1.957314 S    
C18   C19   1.404085 A    
O8    C4    1.296529 A    
C7    C8    1.393478 A    
C25   C26   1.513735 S    
O2    C1    1.294089 A    
C27   H17   1.104578 S    
C29   H20   1.110984 S    
C12   H4    1.083951 S    
O7    C4    1.297898 A    
C4    C6    1.461126 S    
C1    C24   1.444674 S    
O3    C2    1.296617 A    
C11   H3    1.084061 S    
C27   H16   1.115483 S    
C28   H19   1.111900 S    
C5    C6    1.403939 A    
Cu1   O5    1.959104 S    
C21   C22   1.340795 D    
C2    C19   1.462075 S    
C14   C15   1.411660 A    
C21   H9    1.086496 S    
C8    C9    1.411745 A    
C27   C28   1.530278 S    
C15   C20   1.393733 A    
C29   H21   1.110409 S    
C7    H2    1.084364 S    
O5    C3    1.292906 A    
O9    C27   1.412250 S    
C3    C22   1.445251 S    
C21   C23   1.465992 S    
C17   H8    1.084069 S    
C26   N2    1.296002 D    
C28   H18   1.111119 S    
C13   C18   1.393071 A    
C12   C13   1.402392 A    
O2    Cu2   1.959104 S    
C25   N1    1.297320 D    
C18   H5    1.084477 S    
C24   H12   1.081653 S    
C6    C7    1.403172 A    
O1    C1    1.291618 A    
O6    C3    1.293089 A    
