data_mof_unit_50913.cif
_audit_creation_date              2012-12-10T17:55:05-0500
_audit_creation_method            fapswitch 2.2
_symmetry_space_group_name_H-M    P1
_symmetry_Int_Tables_number       1
_space_group_crystal_system       triclinic
_cell_length_a                    8.727799
_cell_length_b                    10.77799
_cell_length_c                    9.533817
_cell_angle_alpha                 89.905227
_cell_angle_beta                  97.995326
_cell_angle_gamma                 90.147074
_cell_volume                      888.106959732

loop_
_atom_site_label
_atom_site_type_symbol
_atom_type_description
_atom_site_fract_x
_atom_site_fract_y
_atom_site_fract_z
_atom_type_partial_charge
C1    C     C_R   0.499179 0.262485 0.499991 0.969410
C2    C     C_R   0.499986 0.737518 0.499840 0.886888
C3    C     C_R   0.203756 0.499999 0.463702 0.869445
C4    C     C_R   0.796247 0.500034 0.536297 0.927974
C5    C     C_2   0.037846 0.500194 0.443763 -0.285156
C6    C     C_2   0.962163 0.499968 0.556238 -0.281744
C7    C     C_R   0.619872 0.066073 0.448033 0.338488
C8    C     C_R   0.374333 0.935664 0.547790 0.345709
C9    C     C_R   0.620505 0.935630 0.449220 0.258516
C10   C     C_R   0.377575 0.064531 0.550689 0.311031
C11   C     C_R   0.497609 0.871447 0.498552 -0.320103
C12   C     C_R   0.498875 0.128639 0.500181 -0.295636
C13   C     C_R   0.398105 0.427762 0.061479 0.002260
C14   C     C_R   0.601892 0.572241 0.938521 0.002106
C15   C     C_R   0.398131 0.427799 0.912769 0.004519
C16   C     C_R   0.601862 0.572208 0.087231 0.004260
Cu1   Cu    Cu3+1 0.500000 0.500020 0.640660 0.999730
Cu2   Cu    Cu3+1 0.500000 0.499980 0.359340 1.008426
H1    H     H_    0.977747 0.500547 0.335921 0.173997
H2    H     H_    0.022264 0.499635 0.664079 0.170688
H3    H     H_    0.316583 0.369694 0.107104 0.137253
H4    H     H_    0.683412 0.630311 0.892895 0.140614
H5    H     H_    0.316593 0.369781 0.846547 0.164693
H6    H     H_    0.683390 0.630237 0.153454 0.163828
N1    N     N_R   0.500040 0.500030 0.852080 -0.174379
N2    N     N_R   0.499960 0.499970 0.147920 -0.173826
O1    O     O_R   0.499990 0.319660 0.618740 -0.565938
O2    O     O_R   0.500010 0.680340 0.381260 -0.553196
O3    O     O_R   0.499990 0.319630 0.381170 -0.561544
O4    O     O_R   0.500010 0.680370 0.618830 -0.582641
O5    O     O_R   0.274840 0.500010 0.591370 -0.582331
O6    O     O_R   0.725160 0.499990 0.408630 -0.569097
O7    O     O_R   0.274830 0.499980 0.353800 -0.598987
O8    O     O_R   0.725170 0.500020 0.646200 -0.596056
O9    O     O_3   0.736285 0.136114 0.401489 -0.683883
H7    H     H_    0.807659 0.082378 0.357495 0.390571
O10   O     O_3   0.248238 0.876685 0.591952 -0.624786
H8    H     H_    0.241416 0.789988 0.557913 0.323554
Cl1   Cl    Cl    0.778273 0.851777 0.397489 -0.606508
Cl2   Cl    Cl    0.221829 0.144790 0.609663 -0.538149

loop_
_geom_bond_atom_site_label_1
_geom_bond_atom_site_label_2
_ccdc_geom_bond_type
O10   H8    S    
C5    H1    S    
C6    H2    S    
O9    H7    S    
Cu2   N2    S    
C2    O4    A    
Cu1   N1    S    
C14   H4    S    
C1    O3    A    
Cu1   Cu2   S    
C13   H3    S    
C16   H6    S    
Cu2   O3    S    
C3    O5    A    
Cu1   O4    S    
C9    C11   A    
C4    O6    A    
C1    C12   S    
C10   C12   A    
C8    C11   A    
C2    C11   S    
C15   H5    S    
C4    O8    A    
C13   C15   A    
C14   N1    A    
C16   N2    A    
C5    C6    D    
Cu1   O5    S    
Cu2   O7    S    
C14   C16   A    
C13   N2    A    
C15   N1    A    
C4    C6    S    
Cu2   O6    S    
C8    O10   S    
C3    O7    A    
Cu1   O1    S    
C7    C9    A    
C9    Cl1   S    
Cu2   O2    S    
C8    C10   A    
Cu1   O8    S    
C1    O1    A    
C10   Cl2   S    
C2    O2    A    
C7    C12   A    
C7    O9    S    
C3    C5    S    
