data_mof_unit_19671.cif
_audit_creation_date              2012-12-10T17:35:35-0500
_audit_creation_method            fapswitch 2.2
_symmetry_space_group_name_H-M    P1
_symmetry_Int_Tables_number       1
_space_group_crystal_system       triclinic
_cell_length_a                    10.71255
_cell_length_b                    12.320117
_cell_length_c                    13.191535
_cell_angle_alpha                 116.679132
_cell_angle_beta                  77.518625
_cell_angle_gamma                 101.334518
_cell_volume                      1508.98287378

loop_
_atom_site_label
_atom_site_type_symbol
_atom_type_description
_atom_site_fract_x
_atom_site_fract_y
_atom_site_fract_z
_atom_type_partial_charge
C1    C     C_R   0.511983 0.854868 0.286575 0.816745
C2    C     C_3   0.122536 0.999974 0.498406 0.109268
C3    C     C_3   0.044881 0.019440 0.617857 -0.393574
C4    C     C_3   0.069977 0.876085 0.406691 -0.390905
C5    C     C_R   0.321787 0.277315 0.019498 -0.191348
C6    C     C_R   0.453131 0.228047 0.834391 -0.050244
C7    C     C_R   0.602549 0.814544 0.086224 -0.135297
C8    C     C_R   0.629829 0.735269 0.971613 -0.133456
C9    C     C_R   0.582204 0.612305 0.933433 -0.178084
C10   C     C_R   0.501448 0.566524 0.009370 0.087304
C11   C     C_R   0.461725 0.650706 0.123204 0.078609
C12   C     C_R   0.739960 0.999507 0.499414 0.821885
C13   C     C_R   0.457710 0.440219 0.975798 0.076900
C14   C     C_R   0.365901 0.401730 0.051900 0.164926
C15   C     C_R   0.316818 0.487955 0.158320 -0.230819
C16   C     C_R   0.362561 0.610732 0.192936 -0.194975
C17   C     C_R   0.503263 0.350573 0.868933 -0.251573
C18   C     C_R   0.364487 0.190779 0.910726 -0.198305
C19   C     C_R   0.521390 0.773066 0.163570 -0.097933
C20   C     C_R   0.706509 0.347602 0.329660 -0.300568
C21   C     C_R   0.325153 0.759147 0.644994 0.073899
C22   C     C_R   0.287228 0.662362 0.676365 -0.253649
C23   C     C_R   0.480740 0.145108 0.713381 0.789714
C24   C     C_R   0.352909 0.559052 0.621686 -0.194329
C25   C     C_R   0.458146 0.551272 0.534378 -0.004115
C26   C     C_R   0.493598 0.653052 0.505264 0.278312
C27   C     C_R   0.529602 0.447049 0.475174 -0.035304
C28   C     C_R   0.634519 0.447319 0.388803 0.168157
C29   C     C_R   0.667385 0.547104 0.361866 -0.276783
C30   C     C_R   0.598673 0.647426 0.418724 -0.182617
C31   C     C_R   0.502251 0.341763 0.497463 0.016821
C32   C     C_R   0.674844 0.247423 0.355911 0.065748
C33   C     C_R   0.260250 0.000101 0.499537 0.758327
C34   C     C_3   0.960451 0.103508 0.469130 -0.347085
C35   C     C_3   0.103240 0.103983 0.469390 -0.370519
C36   C     C_3   0.901035 0.020059 0.617860 -0.463712
C37   C     C_3   0.924619 0.873672 0.408099 0.210831
C38   C     C_3   0.878427 0.998804 0.497764 0.090581
Cu1   Cu    Cu3+1 0.529690 0.098270 0.475420 0.935760
Cu2   Cu    Cu3+1 0.470310 0.901730 0.524580 0.923049
H1    H     H_    0.929623 0.193651 0.533653 0.164863
H2    H     H_    0.084398 0.799262 0.424038 0.145675
H3    H     H_    0.843344 0.947388 0.642062 0.177355
H4    H     H_    0.055986 0.945261 0.640373 0.172410
H5    H     H_    0.324273 0.095990 0.884720 0.147677
H6    H     H_    0.242696 0.460413 0.215273 0.143052
H7    H     H_    0.251454 0.247473 0.077083 0.134423
H8    H     H_    0.577002 0.373390 0.809526 0.145878
H9    H     H_    0.647827 0.908051 0.114881 0.155037
H10   H     H_    0.608174 0.556381 0.843431 0.127407
H11   H     H_    0.691674 0.768550 0.912472 0.138206
H12   H     H_    0.946475 0.092772 0.383789 0.207440
H13   H     H_    0.316498 0.673823 0.273969 0.167118
H14   H     H_    0.730029 0.170146 0.310633 0.130428
H15   H     H_    0.747629 0.547948 0.295954 0.178296
H16   H     H_    0.786880 0.347240 0.263573 0.139105
H17   H     H_    0.424173 0.333487 0.561374 0.120965
H18   H     H_    0.273651 0.838957 0.687956 0.120753
H19   H     H_    0.319432 0.486983 0.649498 0.133417
H20   H     H_    0.206629 0.667447 0.743346 0.149373
H21   H     H_    0.632068 0.718835 0.391750 0.230091
H22   H     H_    0.157701 0.091989 0.383636 0.183771
H23   H     H_    0.140437 0.194372 0.533614 0.167113
H24   H     H_    0.869161 0.109182 0.683723 0.173825
H25   H     H_    0.082191 0.107615 0.684749 0.164328
H26   H     H_    0.871186 0.800190 0.433112 0.115737
H27   H     H_    0.125140 0.861887 0.320720 0.193345
N1    N     N_R   0.574690 0.246280 0.438200 -0.180883
N2    N     N_R   0.426100 0.754320 0.561190 -0.207248
O1    O     O_R   0.537340 0.972510 0.318130 -0.576186
O2    O     O_R   0.487200 0.806530 0.359650 -0.598445
O3    O     O_R   0.707380 0.082980 0.479220 -0.581698
O4    O     O_R   0.657240 0.917000 0.520740 -0.608296
O5    O     O_R   0.512800 0.193470 0.640350 -0.588125
O6    O     O_R   0.462660 0.027490 0.681870 -0.586649
O7    O     O_R   0.342760 0.083000 0.479260 -0.591141
O8    O     O_R   0.292620 0.917020 0.520780 -0.599915
Cl1   Cl    Cl    0.891620 0.833879 0.266976 -0.700139

loop_
_geom_bond_atom_site_label_1
_geom_bond_atom_site_label_2
_ccdc_geom_bond_type
C2    C35   S    
Cu2   O2    S    
Cu1   N1    S    
C17   H8    S    
C20   H16   S    
C7    C8    A    
C5    H7    S    
C11   C19   A    
C1    O2    A    
C28   C29   A    
C37   C38   S    
C22   H20   S    
C15   C16   A    
Cu2   O4    S    
C34   C35   S    
Cu1   O5    S    
C16   H13   S    
C8    C9    A    
C12   O4    A    
Cu1   O3    S    
C9    C10   A    
C32   N1    A    
C12   O3    A    
C13   C14   A    
C3    H25   S    
C34   H1    S    
C32   H14   S    
C31   N1    A    
C6    C18   A    
C3    H4    S    
C1    C19   S    
Cu2   N2    S    
C27   C31   A    
C24   C25   A    
C7    H9    S    
Cu1   Cu2   S    
C5    C18   A    
C29   H15   S    
C25   C26   A    
C21   N2    A    
C2    C4    S    
C29   C30   A    
C11   C16   A    
C33   O7    A    
C14   C15   A    
C37   H26   S    
Cu1   O7    S    
C8    H11   S    
C5    C14   A    
C2    C33   S    
C26   C30   A    
C7    C19   A    
C22   C24   A    
C23   O5    A    
C18   H5    S    
C20   C32   A    
C6    C17   A    
C34   C38   S    
C9    H10   S    
C23   O6    A    
C10   C13   A    
C4    H27   S    
C25   C27   A    
C20   C28   A    
C37   Cl1   S    
C34   H12   S    
C1    O1    A    
Cu2   O6    S    
C13   C17   A    
C31   H17   S    
C36   C38   S    
C2    C3    S    
C21   H18   S    
C36   H24   S    
C33   O8    A    
C4    H2    S    
C3    C36   S    
C24   H19   S    
C6    C23   S    
Cu1   O1    S    
C35   H22   S    
C12   C38   S    
C10   C11   A    
C4    C37   S    
C30   H21   S    
C27   C28   A    
C26   N2    A    
Cu2   O8    S    
C36   H3    S    
C35   H23   S    
C15   H6    S    
C21   C22   A    
