data_mof_unit_25828.cif
_audit_creation_date              2012-12-11T14:23:01-0500
_audit_creation_method            fapswitch 2.2
_symmetry_space_group_name_H-M    P1
_symmetry_Int_Tables_number       1
_space_group_crystal_system       triclinic
_cell_length_a                    11.122326
_cell_length_b                    11.038824
_cell_length_c                    18.84253
_cell_angle_alpha                 90.051677
_cell_angle_beta                  89.411982
_cell_angle_gamma                 59.070591
_cell_volume                      1984.31292943

loop_
_atom_site_label
_atom_site_type_symbol
_atom_type_description
_atom_site_fract_x
_atom_site_fract_y
_atom_site_fract_z
_atom_type_partial_charge
C1    C     C_R   0.240326 0.644446 0.610923 0.537041
C2    C     C_R   0.553083 0.200296 0.719052 -0.159464
C3    C     C_R   0.563129 0.196817 0.791185 -0.164026
C4    C     C_R   0.652801 0.622383 0.601158 0.547829
C5    C     C_R   0.926107 0.129356 0.812543 -0.092380
C6    C     C_R   0.040006 0.103023 0.769786 -0.138081
C7    C     C_R   0.034622 0.091445 0.696665 -0.130547
C8    C     C_R   0.914088 0.109199 0.665471 -0.086231
C9    C     C_R   0.665294 0.177510 0.675716 -0.011282
C10   C     C_R   0.193633 0.656653 0.837160 -0.010807
C11   C     C_R   0.198180 0.543417 0.799233 0.024359
C12   C     C_3   0.667626 0.556118 0.800960 -0.250663
C13   C     C_R   0.190595 0.548785 0.723967 0.020133
C14   C     C_R   0.225780 0.748835 0.727660 -0.149843
C15   C     C_R   0.218883 0.751285 0.800803 -0.155619
C16   C     C_R   0.628302 0.228302 0.602673 0.531815
C17   C     C_R   0.209125 0.425552 0.834559 -0.098664
C18   C     C_R   0.198312 0.322712 0.797569 -0.150452
C19   C     C_R   0.174132 0.336333 0.725043 -0.159910
C20   C     C_R   0.168685 0.448754 0.688514 -0.113446
C21   C     C_R   0.206131 0.653236 0.687579 -0.003731
C22   C     C_R   0.687121 0.681061 0.177352 0.008428
C23   C     C_3   0.699262 0.675128 0.811903 0.048594
C24   C     C_R   0.799217 0.590082 0.222014 -0.027921
C25   C     C_R   0.775958 0.527358 0.279792 0.025217
C26   C     C_R   0.526293 0.685057 0.265164 -0.154870
C27   C     C_R   0.550851 0.714250 0.195977 0.237521
C28   C     C_R   0.290001 0.621152 0.393060 0.543096
C29   C     C_R   0.935988 0.556119 0.208675 -0.074826
C30   C     C_R   0.050604 0.439630 0.238561 -0.103824
C31   C     C_R   0.029368 0.364899 0.289764 -0.133639
C32   C     C_R   0.893466 0.402544 0.307776 -0.076500
C33   C     C_R   0.638399 0.599039 0.309588 -0.063066
C34   C     C_3   0.668229 0.648565 0.676520 0.052808
C35   C     C_R   0.624498 0.168485 0.174825 -0.006025
C36   C     C_R   0.565156 0.111174 0.221901 0.015657
C37   C     C_R   0.599181 0.100284 0.294061 0.018782
C38   C     C_R   0.668330 0.272278 0.274499 -0.170257
C39   C     C_R   0.660201 0.262302 0.201585 -0.189891
C40   C     C_R   0.617441 0.584996 0.385911 0.531268
C41   C     C_R   0.463912 0.076417 0.201991 -0.090651
C42   C     C_R   0.413454 0.018617 0.251346 -0.106450
C43   C     C_R   0.472760 0.981395 0.318330 -0.103186
C44   C     C_R   0.567475 0.019296 0.339366 -0.097962
C45   C     C_3   0.816355 0.622120 0.689763 -0.245249
C46   C     C_R   0.645991 0.186403 0.320909 0.011379
C47   C     C_R   0.144178 0.673686 0.183997 0.002534
C48   C     C_R   0.082890 0.785278 0.233584 -0.014023
C49   C     C_R   0.161696 0.778323 0.291431 0.048201
C50   C     C_R   0.303736 0.524029 0.273214 -0.174267
C51   C     C_R   0.260661 0.544320 0.202772 -0.190467
C52   C     C_R   0.617117 0.231562 0.394536 0.515776
C53   C     C_R   0.963357 0.914932 0.217841 -0.091349
C54   C     C_R   0.967678 0.035786 0.231204 -0.148542
C55   C     C_R   0.060051 0.031779 0.279977 -0.093713
C56   C     C_3   0.646676 0.542161 0.721470 -0.213376
C57   C     C_R   0.151648 0.907500 0.313375 0.386499
C58   C     C_R   0.252376 0.641225 0.318800 -0.005802
C59   C     C_R   0.702586 0.102466 0.896332 0.535548
C60   C     C_R   0.724451 0.688483 0.887827 0.544157
C61   C     C_R   0.121481 0.703051 0.906656 0.529400
C62   C     C_R   0.670090 0.109064 0.103343 0.519223
C63   C     C_R   0.722636 0.710622 0.106582 0.543705
C64   C     C_3   0.575078 0.815245 0.781860 -0.228630
C65   C     C_R   0.096638 0.706437 0.111290 0.506602
C66   C     C_3   0.559772 0.800760 0.701557 -0.240632
C67   C     C_R   0.688625 0.160797 0.824443 -0.012073
C68   C     C_3   0.833594 0.640440 0.769098 -0.219463
C69   C     C_3   0.442938 0.689098 0.099607 0.011562
C70   C     C_3   0.366150 0.767937 0.033044 -0.327759
C71   C     C_R   0.803419 0.144221 0.782495 0.020318
C72   C     C_R   0.794257 0.143634 0.707078 0.013429
Cr1   Cr    Cr6+3 0.392940 0.397950 0.502230 1.009585
Cr2   Cr    Cr6+3 0.398400 0.708500 0.501260 1.050222
Cr3   Cr    Cr6+3 0.708640 0.393530 0.496460 0.998512
Cr4   Cr    Cr6+3 0.937880 0.938320 0.007620 0.983421
Cr5   Cr    Cr6+3 0.625560 0.937220 0.994510 0.991650
Cr6   Cr    Cr6+3 0.938080 0.625010 0.001190 0.991129
F1    F     F_    0.244826 0.916006 0.355174 -0.678105
H1    H     H_    0.593335 0.904191 0.790837 0.149434
H2    H     H_    0.917502 0.092356 0.608816 0.141615
H3    H     H_    0.248034 0.822841 0.702432 0.136768
H4    H     H_    0.475633 0.841987 0.809802 0.110783
H5    H     H_    0.232100 0.408598 0.890547 0.128911
H6    H     H_    0.225690 0.833154 0.828851 0.131808
H7    H     H_    0.208782 0.232814 0.825777 0.103627
H8    H     H_    0.161297 0.258890 0.696576 0.117234
H9    H     H_    0.142870 0.457192 0.633048 0.142681
H10   H     H_    0.421275 0.728646 0.283705 0.177946
H11   H     H_    0.948258 0.626398 0.177534 0.146782
H12   H     H_    0.722385 0.431902 0.704197 0.152876
H13   H     H_    0.155801 0.402351 0.221385 0.128702
H14   H     H_    0.118834 0.278186 0.315381 0.129846
H15   H     H_    0.451402 0.826130 0.690882 0.127233
H16   H     H_    0.883608 0.331577 0.343501 0.151347
H17   H     H_    0.689881 0.348532 0.295111 0.123749
H18   H     H_    0.413272 0.103689 0.151145 0.160054
H19   H     H_    0.690876 0.319954 0.166611 0.115950
H20   H     H_    0.331362 0.998781 0.236773 0.181532
H21   H     H_    0.442718 0.928283 0.355759 0.222332
H22   H     H_    0.606032 0.995978 0.393175 0.133780
H23   H     H_    0.924027 0.541251 0.788972 0.168297
H24   H     H_    0.379095 0.419446 0.291378 0.147676
H25   H     H_    0.886730 0.918075 0.182456 0.154835
H26   H     H_    0.310664 0.458035 0.164811 0.113640
H27   H     H_    0.576352 0.878349 0.671979 0.120710
H28   H     H_    0.911670 0.128141 0.199388 0.146922
H29   H     H_    0.066546 0.122568 0.289546 0.119280
H30   H     H_    0.857676 0.725883 0.776452 0.128821
H31   H     H_    0.834572 0.696430 0.658104 0.115105
H32   H     H_    0.755723 0.454316 0.820812 0.133520
H33   H     H_    0.571506 0.579757 0.831354 0.111234
H34   H     H_    0.896110 0.512941 0.672941 0.146226
H35   H     H_    0.539550 0.560668 0.713166 0.127507
H36   H     H_    0.389573 0.636851 0.122435 0.138101
H37   H     H_    0.550622 0.604621 0.083108 0.129380
H38   H     H_    0.429333 0.802185 0.002684 0.160340
H39   H     H_    0.348179 0.697286 0.998565 0.095056
H40   H     H_    0.264104 0.862933 0.047269 0.188416
H41   H     H_    0.453243 0.225893 0.697467 0.167567
H42   H     H_    0.934721 0.143115 0.868519 0.141508
H43   H     H_    0.473129 0.212401 0.821134 0.153332
H44   H     H_    0.134772 0.086976 0.793706 0.090452
H45   H     H_    0.125091 0.066577 0.663920 0.105033
O1    O     O_R   0.507340 0.255690 0.581430 -0.521652
O2    O     O_R   0.837290 0.593240 0.915240 -0.521915
O3    O     O_R   0.065320 0.635310 0.931580 -0.508537
O4    O     O_R   0.280360 0.527380 0.578910 -0.506343
O5    O     O_R   0.068470 0.828620 0.091850 -0.520124
O6    O     O_R   0.799150 0.057200 0.079350 -0.511198
O7    O     O_R   0.585220 0.080180 0.076770 -0.539845
O8    O     O_R   0.627170 0.809480 0.067050 -0.467076
O9    O     O_R   0.816200 0.596410 0.076500 -0.532779
O10   O     O_R   0.045770 0.638240 0.081070 -0.537694
O11   O     O_3   0.833840 0.833520 0.001110 -0.258842
O12   O     O_R   0.524510 0.695820 0.424050 -0.481314
O13   O     O_R   0.260600 0.739610 0.584580 -0.523932
O14   O     O_R   0.532370 0.695050 0.573830 -0.506851
O15   O     O_R   0.744850 0.503430 0.576380 -0.521677
O16   O     O_R   0.699080 0.276500 0.571950 -0.511014
O17   O     O_R   0.498860 0.256520 0.419860 -0.522396
O18   O     O_R   0.272490 0.528150 0.429140 -0.493139
O19   O     O_R   0.252110 0.740440 0.423010 -0.434290
O20   O     O_3   0.440385 0.785811 0.149888 -0.560739
O21   O     O_R   0.736370 0.504260 0.414810 -0.518100
O22   O     O_R   0.691220 0.277270 0.422180 -0.529986
O23   O     O_3   0.499990 0.499990 0.499980 -0.299414
O24   O     O_R   0.089570 0.825450 0.930590 -0.530080
O25   O     O_R   0.818700 0.054260 0.929860 -0.505891
O26   O     O_R   0.606310 0.077010 0.915520 -0.533749
O27   O     O_R   0.646730 0.806540 0.917560 -0.517103

loop_
_geom_bond_atom_site_label_1
_geom_bond_atom_site_label_2
_ccdc_geom_bond_type
Cr2   O19   S    
C69   H37   S    
C34   C56   S    
C46   C52   S    
C41   C42   A    
C57   F1    S    
C19   C20   A    
C1    O4    A    
C12   H33   S    
C7    H45   S    
Cr5   O27   S    
C7    C8    A    
Cr1   O17   S    
C53   C54   A    
Cr3   O21   S    
C69   O20   S    
C1    C21   S    
Cr2   O14   S    
C12   C23   S    
C26   C27   A    
C18   H7    S    
C40   O21   A    
Cr1   O23   S    
C63   O9    A    
C14   C21   A    
C36   C37   A    
C61   O24   A    
C68   H23   S    
C19   H8    S    
Cr3   O16   S    
C5    C6    A    
Cr1   O1    S    
C53   H25   S    
C5    H42   S    
C49   C57   A    
C18   C19   A    
Cr5   O7    S    
C62   O6    A    
C24   C29   A    
C59   C67   S    
C22   C63   S    
Cr4   O6    S    
C56   H12   S    
C11   C17   A    
C47   C48   A    
Cr2   O12   S    
C9    C72   A    
Cr6   O11   S    
C67   C71   A    
C65   O10   A    
C3    H43   S    
C66   H15   S    
C25   C32   A    
C50   H24   S    
C64   H1    S    
C34   C66   S    
C36   C41   A    
C48   C53   A    
C6    H44   S    
C66   H27   S    
Cr6   O3    S    
C29   H11   S    
Cr4   O11   S    
C50   C51   A    
Cr1   O18   S    
C59   O25   A    
Cr3   O22   S    
C23   C60   S    
Cr2   O13   S    
C4    C34   S    
C8    C72   A    
C33   C40   S    
C8    H2    S    
C50   C58   A    
Cr2   O23   S    
C38   C39   A    
C43   H21   S    
C30   H13   S    
C34   C45   S    
C2    H41   S    
C45   H31   S    
C39   H19   S    
C47   C51   A    
Cr3   O23   S    
C31   H14   S    
C49   C58   A    
C26   H10   S    
C60   O27   A    
C64   C66   S    
C23   C68   S    
C35   C39   A    
C43   C44   A    
C64   H4    S    
C29   C30   A    
C40   O12   A    
Cr4   O5    S    
C26   C33   A    
C31   C32   A    
C70   H40   S    
C51   H26   S    
C45   C68   S    
C17   C18   A    
C13   C21   A    
C61   O3    A    
C28   O19   A    
C63   O8    A    
C24   C25   A    
Cr6   O10   S    
C12   C56   S    
C54   H28   S    
C23   C64   S    
C22   C27   A    
C55   C57   A    
C41   H18   S    
C10   C61   S    
C28   O18   A    
C42   C43   A    
C14   H3    S    
Cr6   O2    S    
C16   O16   A    
C1    O13   A    
C16   O1    A    
C59   O26   A    
C54   C55   A    
C69   H36   S    
C52   O22   A    
C13   C20   A    
C62   O7    A    
C9    C16   S    
C3    C67   A    
Cr5   O26   S    
C65   O5    A    
C44   H22   S    
C6    C7    A    
C28   C58   S    
Cr1   O4    S    
Cr5   O11   S    
C52   O17   A    
C15   H6    S    
C55   H29   S    
C10   C15   A    
C17   H5    S    
C37   C44   A    
C60   O2    A    
C2    C3    A    
C71   C72   A    
C5    C71   A    
Cr3   O15   S    
C42   H20   S    
C4    O15   A    
C11   C13   A    
C27   O20   S    
C30   C31   A    
Cr4   O25   S    
C70   H39   S    
C48   C49   A    
C20   H9    S    
C47   C65   S    
C35   C62   S    
C22   C24   A    
C68   H30   S    
C69   C70   S    
Cr6   O9    S    
C38   C46   A    
C10   C11   A    
C4    O14   A    
C45   H34   S    
C32   H16   S    
Cr4   O24   S    
C38   H17   S    
C56   H35   S    
C14   C15   A    
C35   C36   A    
C70   H38   S    
C37   C46   A    
C2    C9    A    
Cr5   O8    S    
C12   H32   S    
C25   C33   A    
