data_mof_unit_6236.cif
_audit_creation_date              2012-12-10T17:47:15-0500
_audit_creation_method            fapswitch 2.2
_symmetry_space_group_name_H-M    P1
_symmetry_Int_Tables_number       1
_space_group_crystal_system       triclinic
_cell_length_a                    11.712461
_cell_length_b                    14.782062
_cell_length_c                    14.717747
_cell_angle_alpha                 64.819603
_cell_angle_beta                  103.731508
_cell_angle_gamma                 103.312746
_cell_volume                      2215.7436113

loop_
_atom_site_label
_atom_site_type_symbol
_atom_type_description
_atom_site_fract_x
_atom_site_fract_y
_atom_site_fract_z
_atom_type_partial_charge
C1    C     C_R   0.480246 0.119695 0.312086 0.794922
C2    C     C_R   0.517976 0.880280 0.687863 0.794980
C3    C     C_R   0.450381 0.322416 0.997129 0.093540
C4    C     C_R   0.534386 0.678142 0.002597 0.092808
C5    C     C_R   0.500894 0.466317 0.051361 0.026355
C6    C     C_R   0.486631 0.534110 0.948933 0.025927
C7    C     C_R   0.441038 0.494722 0.873115 -0.227434
C8    C     C_R   0.544755 0.506102 0.127082 -0.225637
C9    C     C_R   0.422065 0.390761 0.894569 0.125714
C10   C     C_R   0.559698 0.609917 0.105717 0.123629
C11   C     C_R   0.682401 0.282310 0.677209 -0.338230
C12   C     C_R   0.305899 0.712368 0.330540 -0.313451
C13   C     C_R   0.671156 0.210599 0.636243 0.355794
C14   C     C_R   0.331220 0.792998 0.361136 0.367384
C15   C     C_R   0.506472 0.279882 0.515247 -0.040579
C16   C     C_R   0.482783 0.713511 0.492579 -0.037433
C17   C     C_R   0.528791 0.364116 0.544471 -0.026947
C18   C     C_R   0.451850 0.625548 0.468664 -0.027692
C19   C     C_R   0.614889 0.360133 0.630581 0.129801
C20   C     C_R   0.364465 0.629183 0.383367 0.125413
C21   C     C_R   0.471522 0.452426 0.491345 0.086180
C22   C     C_R   0.503974 0.534796 0.525044 0.085087
C23   C     C_R   0.284057 0.999888 0.499866 0.818175
C24   C     C_R   0.715933 0.000111 0.500113 0.819774
C25   C     C_R   0.585377 0.522800 0.615090 -0.236828
C26   C     C_R   0.385899 0.462548 0.403957 -0.238658
C27   C     C_R   0.639308 0.436884 0.666825 -0.188469
C28   C     C_R   0.333034 0.549002 0.351671 -0.186421
C29   C     C_1   0.162219 0.999631 0.499757 -0.185978
C30   C     C_1   0.837760 0.000320 0.500214 -0.195973
C31   C     C_1   0.059809 0.999770 0.499859 -0.004620
C32   C     C_1   0.940153 0.000132 0.500097 -0.002734
C33   C     C_R   0.469994 0.187421 0.203791 -0.078059
C34   C     C_R   0.523523 0.812590 0.795978 -0.080049
C35   C     C_R   0.450160 0.217034 0.025760 0.142963
C36   C     C_R   0.533993 0.783626 0.972808 0.144954
C37   C     C_R   0.459933 0.151298 0.128482 -0.243614
C38   C     C_R   0.527516 0.848847 0.870067 -0.240009
C39   C     C_R   0.475999 0.290553 0.176681 -0.243878
C40   C     C_R   0.517231 0.709290 0.823890 -0.243606
C41   C     C_R   0.476814 0.360250 0.075514 0.035301
C42   C     C_R   0.511782 0.640061 0.924689 0.036127
Cu1   Cu    Cu3+1 0.469550 0.918260 0.475690 0.931068
Cu2   Cu    Cu3+1 0.530450 0.081740 0.524310 0.937562
H1    H     H_    0.609038 0.578594 0.647923 0.132342
H2    H     H_    0.357848 0.404881 0.373598 0.132638
H3    H     H_    0.520051 0.684264 0.765609 0.148303
H4    H     H_    0.476348 0.314721 0.236228 0.149725
H5    H     H_    0.524938 0.928206 0.848531 0.153416
H6    H     H_    0.460067 0.071657 0.149061 0.154403
H7    H     H_    0.415722 0.545042 0.796191 0.165157
H8    H     H_    0.570815 0.456388 0.203947 0.164369
H9    H     H_    0.703774 0.431838 0.734621 0.143262
H10   H     H_    0.266459 0.553152 0.285262 0.141141
H11   H     H_    0.553562 0.718607 0.552825 0.132665
H12   H     H_    0.435278 0.273206 0.455910 0.133813
H13   H     H_    0.752483 0.283040 0.740331 0.141492
H14   H     H_    0.236377 0.713222 0.266614 0.142090
N1    N     N_R   0.576230 0.204580 0.560790 -0.181041
N2    N     N_R   0.423770 0.795420 0.439210 -0.188478
O1    O     O_R   0.459870 0.022090 0.338120 -0.607369
O2    O     O_R   0.540130 0.977910 0.661880 -0.571190
O3    O     O_R   0.511290 0.160150 0.379180 -0.585282
O4    O     O_R   0.488710 0.839850 0.620820 -0.586380
O5    O     O_R   0.311490 0.930960 0.479480 -0.579357
O6    O     O_R   0.688510 0.069040 0.520520 -0.580492
O7    O     O_R   0.362910 0.069020 0.520540 -0.574861
O8    O     O_R   0.637090 0.930980 0.479460 -0.569984
C43   C     C_3   0.364269 0.353152 0.809590 -0.346125
C44   C     C_3   0.294625 0.425802 0.714968 -0.871504
H15   H     H_    0.228429 0.452805 0.736819 0.255031
H16   H     H_    0.355083 0.491028 0.670518 0.257709
H17   H     H_    0.246455 0.385750 0.664825 0.250536
H18   H     H_    0.433601 0.332185 0.785175 0.239470
H19   H     H_    0.298038 0.285208 0.839928 0.220479
C45   C     C_3   0.609543 0.647714 0.191577 -0.345635
C46   C     C_3   0.670110 0.574022 0.291431 -0.874622
H20   H     H_    0.604786 0.509486 0.330111 0.257835
H21   H     H_    0.741788 0.546154 0.277233 0.253829
H22   H     H_    0.710418 0.613530 0.343519 0.253070
H23   H     H_    0.678985 0.714118 0.165061 0.221692
H24   H     H_    0.536628 0.671021 0.209340 0.237771
N3    N     N_3   0.448898 0.176351 0.952784 -0.639014
H25   H     H_    0.377020 0.118135 0.958868 0.211209
H26   H     H_    0.526862 0.144863 0.971485 0.223079
N4    N     N_3   0.531940 0.825163 0.044285 -0.642427
H27   H     H_    0.603900 0.883151 0.039407 0.213221
H28   H     H_    0.453886 0.857071 0.023127 0.220743
C47   C     C_3   0.247571 0.871324 0.305421 -0.377528
C48   C     C_3   0.124300 0.829656 0.336713 -0.846364
H29   H     H_    0.130684 0.804473 0.420192 0.271529
H30   H     H_    0.066410 0.889615 0.297968 0.240284
H31   H     H_    0.082179 0.764914 0.314803 0.243443
H32   H     H_    0.276646 0.942129 0.315595 0.253212
H33   H     H_    0.239067 0.893076 0.222132 0.161740
C49   C     C_3   0.779962 0.157719 0.666963 -0.345622
C50   C     C_3   0.769755 0.052723 0.752661 -0.764366
H34   H     H_    0.700497 0.042649 0.797497 0.239393
H35   H     H_    0.751804 0.993364 0.721987 0.253569
H36   H     H_    0.855567 0.042391 0.805351 0.211602
H37   H     H_    0.812160 0.160644 0.601204 0.212043
H38   H     H_    0.857469 0.203535 0.695756 0.153176

loop_
_geom_bond_atom_site_label_1
_geom_bond_atom_site_label_2
_ccdc_geom_bond_type
C40   H3    S    
C21   C26   A    
C4    C36   A    
C49   H38   S    
Cu2   O6    S    
C50   H34   S    
C1    C33   S    
C39   C41   A    
C38   H5    S    
C46   H20   S    
C11   C19   A    
C33   C39   A    
C34   C40   A    
C23   C29   S    
C35   C37   A    
C9    C43   S    
C5    C6    A    
N4    H28   S    
Cu2   N1    S    
C7    C9    A    
C16   N2    A    
C23   O7    A    
C47   H32   S    
C10   C45   S    
C31   C32   S    
Cu1   O8    S    
C22   C25   A    
C44   H15   S    
C19   C27   A    
C8    H8    S    
C24   O6    A    
C12   H14   S    
C2    C34   S    
C40   C42   A    
C34   C38   A    
C21   C22   A    
C1    O3    A    
C50   H35   S    
C2    O4    A    
Cu1   O4    S    
C24   C30   S    
C46   H21   S    
Cu2   O3    S    
C13   C49   S    
C45   C46   S    
C45   H24   S    
C28   H10   S    
N4    H27   S    
C20   C28   A    
Cu2   O2    S    
C33   C37   A    
C47   H33   S    
Cu1   Cu2   S    
C14   C47   S    
C3    C9    A    
C48   H30   S    
N3    H25   S    
C3    C35   A    
Cu1   O5    S    
C49   C50   S    
C12   C20   A    
C44   H17   S    
C43   H18   S    
Cu1   N2    S    
C16   C18   A    
N3    H26   S    
C12   C14   A    
C4    C10   A    
C25   H1    S    
C50   H36   S    
Cu1   O1    S    
C48   H31   S    
C46   H22   S    
C15   C17   A    
C5    C41   A    
C3    C41   A    
C35   N3    S    
C18   C22   A    
C15   N1    A    
C1    O1    A    
C45   H23   S    
C5    C8    A    
C27   H9    S    
C6    C7    A    
C13   N1    A    
C25   C27   A    
C14   N2    A    
C26   C28   A    
C36   N4    S    
C15   H12   S    
C23   O5    A    
C36   C38   A    
C16   H11   S    
C7    H7    S    
C29   C31   T    
C11   H13   S    
C30   C32   T    
C37   H6    S    
C11   C13   A    
C48   H29   S    
C4    C42   A    
C17   C19   A    
C43   H19   S    
C18   C20   A    
C43   C44   S    
C17   C21   A    
C24   O8    A    
C8    C10   A    
C6    C42   A    
Cu2   O7    S    
C44   H16   S    
C47   C48   S    
C49   H37   S    
C26   H2    S    
C2    O2    A    
C39   H4    S    
