data_mof_unit_21531.cif
_audit_creation_date              2012-10-26T18:28:19-0400
_audit_creation_method            fapswitch 2.2
_symmetry_space_group_name_H-M    P1
_symmetry_Int_Tables_number       1
_space_group_crystal_system       triclinic
_cell_length_a                    27.770313
_cell_length_b                    10.979191
_cell_length_c                    9.810831
_cell_angle_alpha                 112.018704
_cell_angle_beta                  97.534914
_cell_angle_gamma                 91.019651
_cell_volume                      2741.84860304

loop_
_atom_site_label
_atom_site_type_symbol
_atom_type_description
_atom_site_fract_x
_atom_site_fract_y
_atom_site_fract_z
_atom_type_partial_charge
C1    C     C_R   0.495262 0.252734 0.439157 0.651119
C2    C     C_R   0.877695 0.453443 0.609700 0.021202
C3    C     C_R   0.354906 0.500629 0.506823 0.011268
C4    C     C_R   0.644948 0.498305 0.492166 0.032139
C5    C     C_R   0.979600 0.448003 0.599062 0.035255
C6    C     C_R   0.020123 0.540588 0.399690 -0.033219
C7    C     C_R   0.968705 0.520606 0.389801 0.007479
C8    C     C_R   0.030954 0.468236 0.609351 0.059468
C9    C     C_R   0.948866 0.483907 0.496365 0.023109
C10   C     C_R   0.050893 0.505853 0.503451 0.017709
C11   C     C_R   0.957724 0.387764 0.683672 0.006134
C12   C     C_R   0.504651 0.747629 0.561395 0.656785
C13   C     C_R   0.041742 0.601429 0.315247 -0.005908
C14   C     C_R   0.908841 0.409756 0.707960 -0.022178
C15   C     C_R   0.091207 0.583018 0.294101 0.007230
C16   C     C_R   0.407682 0.500900 0.502274 0.651825
C17   C     C_R   0.592282 0.499053 0.497594 0.657196
C18   C     C_R   0.063054 0.462165 0.730012 -0.088888
C19   C     C_R   0.936360 0.526729 0.269524 -0.155062
C20   C     C_2   0.489730 0.110283 0.402292 0.043279
C21   C     C_2   0.506266 0.890929 0.599172 0.038805
C22   C     C_2   0.485207 0.069595 0.513561 -0.115523
C23   C     C_R   0.102060 0.512763 0.505317 -0.042141
C24   C     C_2   0.484069 0.930973 0.494409 -0.121431
C25   C     C_2   0.504100 0.511121 0.081543 -0.024031
C26   C     C_2   0.495796 0.489189 0.918543 -0.027873
C27   C     C_R   0.182845 0.486779 0.615339 0.398159
C28   C     C_R   0.816957 0.507394 0.389108 0.426465
C29   C     C_R   0.173600 0.531699 0.393886 0.378952
C30   C     C_R   0.826834 0.466365 0.613058 0.429559
C31   C     C_R   0.282452 0.618171 0.565389 -0.093146
C32   C     C_R   0.718343 0.380734 0.460681 -0.118512
C33   C     C_R   0.332813 0.620939 0.568714 -0.033857
C34   C     C_R   0.897777 0.479460 0.496670 -0.035220
C35   C     C_R   0.667821 0.377904 0.452182 -0.032313
C36   C     C_R   0.325724 0.379351 0.442633 -0.019329
C37   C     C_R   0.673342 0.619628 0.536920 -0.063184
C38   C     C_R   0.274519 0.379341 0.440667 0.036041
C39   C     C_R   0.724754 0.620200 0.546744 0.038089
C40   C     C_R   0.253500 0.500216 0.501730 0.197222
C41   C     C_R   0.746738 0.499014 0.506891 0.241327
C42   C     C_2   0.348362 0.253361 0.373779 0.262859
C43   C     C_2   0.649686 0.746404 0.576096 0.172679
C44   C     C_3   0.532620 0.992112 0.747152 -0.260106
C45   C     C_R   0.132749 0.488698 0.617925 0.026407
C46   C     C_3   0.562223 0.938183 0.853280 -0.297875
C47   C     C_3   0.592800 0.048899 0.982600 -0.447112
C48   C     C_3   0.489393 0.015524 0.242508 -0.256046
C49   C     C_3   0.437028 0.972949 0.162199 -0.312159
C50   C     C_3   0.436036 0.873777 0.003543 -0.420772
C51   C     C_2   0.241911 0.255754 0.379108 0.248616
C52   C     C_2   0.755136 0.746609 0.594319 0.256966
C53   C     C_2   0.641308 0.245916 0.400829 0.203652
C54   C     C_2   0.359717 0.753100 0.634855 0.207925
C55   C     C_3   0.891707 0.383873 0.836701 -0.225832
C56   C     C_R   0.866939 0.503589 0.384552 0.037347
C57   C     C_3   0.864752 0.247145 0.785814 -0.274079
C58   C     C_3   0.844323 0.228583 0.914321 -0.423205
C59   C     C_3   0.108796 0.606516 0.164606 -0.194941
C60   C     C_3   0.134560 0.744510 0.212421 -0.247291
C61   C     C_3   0.154663 0.761433 0.082585 -0.418873
C62   C     C_2   0.981556 0.279587 0.718375 0.203933
C63   C     C_2   0.016114 0.709471 0.284777 0.207507
C64   C     C_R   0.112985 0.469138 0.732539 -0.113977
C65   C     C_R   0.886453 0.521154 0.268454 -0.120596
C66   C     C_R   0.122418 0.541047 0.394050 0.008417
Cu1   Cu    Cu3+1 0.508480 0.521810 0.644910 0.990657
Cu2   Cu    Cu3+1 0.491520 0.478190 0.355090 1.013037
H1    H     H_    0.467525 0.415893 0.845121 0.158733
H2    H     H_    0.949126 0.534343 0.173595 0.133209
H3    H     H_    0.465984 0.859306 0.389203 0.151723
H4    H     H_    0.484859 0.141600 0.625230 0.140032
H5    H     H_    0.331260 0.180376 0.268088 0.136263
H6    H     H_    0.666602 0.833509 0.668243 0.093180
H7    H     H_    0.620405 0.095158 0.941140 0.163276
H8    H     H_    0.569213 0.125237 0.043324 0.188842
H9    H     H_    0.611987 0.008297 0.061054 0.161245
H10   H     H_    0.537319 0.889873 0.900680 0.177648
H11   H     H_    0.587043 0.865683 0.793085 0.195880
H12   H     H_    0.532327 0.584554 0.154993 0.166636
H13   H     H_    0.558234 0.056323 0.720672 0.162943
H14   H     H_    0.505210 0.054648 0.807887 0.133955
H15   H     H_    0.452627 0.920477 0.936467 0.177124
H16   H     H_    0.456066 0.786939 0.003006 0.167729
H17   H     H_    0.397714 0.839668 0.951922 0.168578
H18   H     H_    0.416366 0.927671 0.222960 0.187408
H19   H     H_    0.418372 0.060686 0.158567 0.189167
H20   H     H_    0.508783 0.063710 0.181834 0.173498
H21   H     H_    0.509794 0.928453 0.238948 0.142430
H22   H     H_    0.203798 0.258303 0.338721 0.129596
H23   H     H_    0.547666 0.624008 0.935047 0.202560
H24   H     H_    0.739895 0.831495 0.578676 0.093289
H25   H     H_    0.661656 0.159753 0.388221 0.109601
H26   H     H_    0.340580 0.839457 0.689277 0.113668
H27   H     H_    0.874200 0.238873 0.005967 0.159946
H28   H     H_    0.817661 0.302781 0.957013 0.192606
H29   H     H_    0.825558 0.128702 0.875178 0.170167
H30   H     H_    0.834437 0.232914 0.694284 0.205774
H31   H     H_    0.890168 0.169500 0.742661 0.166240
H32   H     H_    0.923097 0.391633 0.922547 0.099548
H33   H     H_    0.869945 0.463997 0.899131 0.207290
H34   H     H_    0.452310 0.376080 0.064952 0.205524
H35   H     H_    0.181808 0.688249 0.041624 0.193524
H36   H     H_    0.124690 0.748380 0.990267 0.163772
H37   H     H_    0.172775 0.861881 0.119648 0.172763
H38   H     H_    0.108651 0.821109 0.253671 0.207742
H39   H     H_    0.164876 0.762325 0.304867 0.209437
H40   H     H_    0.131667 0.527444 0.106410 0.179019
H41   H     H_    0.078016 0.592935 0.075208 0.170125
H42   H     H_    0.975291 0.258217 0.813941 0.107005
H43   H     H_    0.992239 0.765729 0.361035 0.145731
H44   H     H_    0.136045 0.458222 0.824652 0.157812
H45   H     H_    0.863231 0.531920 0.176539 0.164096
H46   H     H_    0.736312 0.289384 0.429131 0.109101
H47   H     H_    0.264957 0.709189 0.611813 0.121281
H48   H     H_    0.050026 0.452948 0.824833 0.115735
N1    N     N_R   0.201887 0.504954 0.502862 -0.405317
N2    N     N_R   0.798288 0.492869 0.504248 -0.357465
N3    N     N_2   0.478780 0.445430 0.137360 -0.360787
N4    N     N_2   0.521220 0.554570 0.862640 -0.365327
O1    O     O_R   0.504520 0.332330 0.577400 -0.499980
O2    O     O_2   0.787068 0.526917 0.280133 -0.499038
O3    O     O_2   0.805379 0.452975 0.722437 -0.510974
O4    O     O_2   0.195694 0.549149 0.287744 -0.520756
O5    O     O_2   0.385419 0.228382 0.436862 -0.530116
O6    O     O_2   0.611893 0.755767 0.502905 -0.525996
O7    O     O_2   0.256377 0.151143 0.378158 -0.506294
O8    O     O_2   0.797385 0.758345 0.653552 -0.481203
O9    O     O_2   0.597139 0.230064 0.368687 -0.536305
O10   O     O_2   0.402773 0.768890 0.628593 -0.525166
O11   O     O_2   0.007651 0.208835 0.635365 -0.483141
O12   O     O_R   0.495480 0.667670 0.422600 -0.493636
O13   O     O_2   0.019282 0.734206 0.174906 -0.529470
O14   O     O_R   0.490210 0.295500 0.332650 -0.484981
O15   O     O_R   0.509790 0.704500 0.667350 -0.495719
O16   O     O_R   0.437420 0.518430 0.622370 -0.465170
O17   O     O_R   0.562580 0.481570 0.377630 -0.452975
O18   O     O_R   0.423110 0.481600 0.377610 -0.491983
O19   O     O_R   0.576890 0.518400 0.622390 -0.498071
O20   O     O_2   0.212487 0.465482 0.723558 -0.483722

loop_
_geom_bond_atom_site_label_1
_geom_bond_atom_site_label_2
_ccdc_geom_bond_type
C34   C56   A    
C23   C45   A    
C35   C53   S    
C25   H12   S    
C49   H19   S    
C36   C42   S    
C11   C62   S    
C52   O8    D    
C50   H16   S    
C39   C41   A    
C63   O13   D    
C23   C66   A    
C61   H35   S    
C26   N4    D    
C47   H8    S    
C5    C11   A    
C44   H14   S    
Cu2   N3    S    
C46   H11   S    
C11   C14   A    
C28   O2    S    
C64   H44   S    
C27   C45   A    
C3    C33   A    
C56   C65   A    
C57   H31   S    
C29   O4    S    
Cu1   O1    S    
C31   C40   A    
C22   H4    S    
Cu2   O12   S    
C58   H28   S    
C50   H17   S    
Cu2   O18   S    
C49   H18   S    
C1    C20   S    
C12   O15   A    
C13   C63   S    
C55   H32   S    
C32   C41   A    
C31   C33   A    
C41   N2    S    
C61   H37   S    
Cu1   N4    S    
C42   O5    D    
C2    C34   A    
C43   H6    S    
C14   C55   S    
C4    C35   A    
C59   C60   S    
Cu2   O17   S    
C58   H29   S    
C65   H45   S    
C25   N3    D    
C43   O6    D    
C31   H47   S    
C44   C46   S    
C50   H15   S    
C27   N1    A    
C28   C56   A    
C54   O10   D    
C40   N1    S    
C53   H25   S    
Cu1   Cu2   S    
C32   C35   A    
C61   H36   S    
C44   H13   S    
C18   H48   S    
C46   H10   S    
C38   C51   S    
C30   N2    A    
C25   C26   S    
C15   C66   A    
C29   N1    A    
C12   C21   S    
C8    C18   A    
C39   C52   S    
C60   C61   S    
C37   C43   S    
Cu1   O15   S    
C58   H27   S    
C5    C9    A    
C21   C44   S    
C62   H42   S    
C48   H20   S    
C17   O19   A    
C30   O3    S    
C20   C48   S    
C60   H39   S    
C4    C17   S    
C8    C10   A    
C48   C49   S    
C20   C22   D    
C7    C19   A    
C48   H21   S    
C13   C15   A    
C9    C34   A    
C22   C24   S    
C52   H24   S    
C53   O9    D    
C47   H9    S    
C1    O14   A    
C16   O16   A    
Cu1   O19   S    
C33   C54   S    
C7    C9    A    
C46   C47   S    
C42   H5    S    
C12   O12   A    
C15   C59   S    
C62   O11   D    
C16   O18   A    
C59   H40   S    
C6    C10   A    
C5    C8    A    
C6    C7    A    
C60   H38   S    
C10   C23   A    
C55   H33   S    
C45   C64   A    
C27   O20   S    
C2    C30   A    
C51   O7    D    
C55   C57   S    
Cu1   O16   S    
C47   H7    S    
C51   H22   S    
C28   N2    A    
C6    C13   A    
C38   C40   A    
C18   C64   A    
C57   C58   S    
C3    C36   A    
C57   H30   S    
Cu2   O14   S    
C59   H41   S    
C19   C65   A    
C63   H43   S    
C2    C14   A    
C1    O1    A    
C54   H26   S    
C36   C38   A    
H34   N3    S    
C29   C66   A    
C4    C37   A    
C37   C39   A    
C49   C50   S    
C21   C24   D    
C26   H1    S    
H23   N4    S    
C19   H2    S    
C17   O17   A    
C32   H46   S    
C3    C16   S    
C24   H3    S    
