data_mof_unit_39055.cif
_audit_creation_date              2012-10-26T19:41:35-0400
_audit_creation_method            fapswitch 2.2
_symmetry_space_group_name_H-M    P1
_symmetry_Int_Tables_number       1
_space_group_crystal_system       triclinic
_cell_length_a                    17.317758
_cell_length_b                    11.03206
_cell_length_c                    9.807471
_cell_angle_alpha                 111.104722
_cell_angle_beta                  94.519373
_cell_angle_gamma                 91.955557
_cell_volume                      1738.66649486

loop_
_atom_site_label
_atom_site_type_symbol
_atom_type_description
_atom_site_fract_x
_atom_site_fract_y
_atom_site_fract_z
_atom_type_partial_charge
C1    C     C_R   0.493845 0.254128 0.441345 0.554072
C2    C     C_R   0.648279 0.494330 0.479600 0.539883
C3    C     C_R   0.268743 0.522619 0.533133 -0.011468
C4    C     C_R   0.732503 0.487233 0.470645 -0.011119
C5    C     C_R   0.219400 0.446357 0.410085 -0.132195
C6    C     C_R   0.778976 0.565467 0.597045 -0.127711
C7    C     C_R   0.140764 0.463855 0.399774 0.002936
C8    C     C_R   0.858292 0.554690 0.612527 0.002908
C9    C     C_R   0.108709 0.552022 0.521468 0.050045
C10   C     C_R   0.893438 0.464597 0.496812 0.051163
C11   C     C_R   0.156777 0.628841 0.649682 0.020592
C12   C     C_R   0.505555 0.745867 0.558735 0.555493
C13   C     C_R   0.847951 0.382887 0.366977 0.020901
C14   C     C_R   0.238536 0.618228 0.653803 -0.000879
C15   C     C_R   0.766599 0.396515 0.351472 -0.003800
C16   C     C_2   0.024272 0.560774 0.516423 -0.140537
C17   C     C_2   0.978203 0.459126 0.510795 -0.139028
C18   C     C_3   0.716769 0.311561 0.211896 -0.244099
C19   C     C_3   0.674953 0.195519 0.232912 -0.277634
C20   C     C_3   0.619072 0.118539 0.098625 -0.442719
C21   C     C_3   0.293032 0.714095 0.778609 -0.235326
C22   C     C_3   0.307351 0.666117 0.906835 -0.277455
C23   C     C_2   0.490378 0.114803 0.408087 -0.140742
C24   C     C_3   0.365513 0.758600 0.027666 -0.450147
C25   C     C_3   0.118614 0.718993 0.779139 -0.409657
C26   C     C_3   0.885179 0.280434 0.245856 -0.411064
C27   C     C_3   0.903581 0.636251 0.756620 -0.404367
C28   C     C_3   0.094059 0.388765 0.255064 -0.413190
C29   C     C_2   0.508495 0.885150 0.591935 -0.137790
C30   C     C_2   0.500892 0.069479 0.516413 -0.164862
C31   C     C_2   0.497712 0.930399 0.483550 -0.164658
C32   C     C_2   0.506406 0.510689 0.080770 -0.039968
C33   C     C_2   0.494144 0.488401 0.918976 -0.035511
C34   C     C_R   0.352059 0.508182 0.520954 0.539019
Cu1   Cu    Cu3+1 0.513640 0.521550 0.643210 0.909929
Cu2   Cu    Cu3+1 0.486360 0.478450 0.356790 0.907935
H1    H     H_    0.243052 0.375394 0.317162 0.128609
H2    H     H_    0.550897 0.583599 0.148975 0.146915
H3    H     H_    0.575066 0.624197 0.926206 0.196905
H4    H     H_    0.424438 0.376635 0.074037 0.197112
H5    H     H_    0.573706 0.181308 0.080183 0.174164
H6    H     H_    0.650999 0.080836 0.999443 0.141567
H7    H     H_    0.590319 0.034708 0.116485 0.133439
H8    H     H_    0.718409 0.129858 0.251445 0.148448
H9    H     H_    0.641899 0.229371 0.330610 0.182014
H10   H     H_    0.675215 0.370541 0.175645 0.171467
H11   H     H_    0.751507 0.273721 0.117072 0.129016
H12   H     H_    0.752490 0.634842 0.687087 0.127466
H13   H     H_    0.422071 0.765888 0.984054 0.165365
H14   H     H_    0.343120 0.857012 0.072242 0.141778
H15   H     H_    0.374937 0.721205 0.118338 0.152836
H16   H     H_    0.252126 0.658072 0.954208 0.151805
H17   H     H_    0.330068 0.567786 0.867399 0.183241
H18   H     H_    0.349025 0.731911 0.739123 0.166095
H19   H     H_    0.270151 0.812268 0.817049 0.124289
H20   H     H_    0.088616 0.793330 0.746890 0.118736
H21   H     H_    0.075589 0.661105 0.812768 0.130431
H22   H     H_    0.158406 0.770753 0.878476 0.123421
H23   H     H_    0.002923 0.369473 0.509356 0.125510
H24   H     H_    0.945722 0.265234 0.276871 0.121884
H25   H     H_    0.853000 0.184316 0.216019 0.125012
H26   H     H_    0.884976 0.308592 0.147980 0.121401
H27   H     H_    0.864842 0.687112 0.841419 0.116661
H28   H     H_    0.938703 0.573235 0.799785 0.134693
H29   H     H_    0.941918 0.711903 0.741397 0.125161
H30   H     H_    0.125021 0.396813 0.163367 0.123846
H31   H     H_    0.086911 0.284463 0.241078 0.119727
H32   H     H_    0.036249 0.426508 0.245230 0.145053
H33   H     H_    0.000202 0.650710 0.517400 0.124147
H34   H     H_    0.486565 0.864679 0.369619 0.151723
H35   H     H_    0.512049 0.135182 0.630332 0.154258
H36   H     H_    0.519579 0.951149 0.705684 0.093613
H37   H     H_    0.479223 0.048843 0.294348 0.093569
H38   H     H_    0.449965 0.414952 0.850623 0.144197
N1    N     N_2   0.465840 0.446060 0.141630 -0.358752
N2    N     N_2   0.534160 0.553940 0.858370 -0.355779
O1    O     O_R   0.507280 0.332200 0.576490 -0.492090
O2    O     O_R   0.492720 0.667800 0.423510 -0.493522
O3    O     O_R   0.484240 0.295800 0.334620 -0.496446
O4    O     O_R   0.515760 0.704200 0.665380 -0.500783
O5    O     O_R   0.399260 0.520290 0.634950 -0.505041
O6    O     O_R   0.600740 0.479710 0.365050 -0.504699
O7    O     O_R   0.376220 0.483890 0.393080 -0.494093
O8    O     O_R   0.623780 0.516110 0.606920 -0.493316

loop_
_geom_bond_atom_site_label_1
_geom_bond_atom_site_label_2
_ccdc_geom_bond_type
C15   C18   S    
C5    H1    S    
C12   C29   S    
C1    O1    A    
C2    O8    A    
Cu1   Cu2   S    
C25   H20   S    
C18   H11   S    
C32   N1    D    
C30   H35   S    
Cu1   O5    S    
C21   H19   S    
C6    H12   S    
C14   C21   S    
C28   H32   S    
C26   H25   S    
C21   H18   S    
C11   C14   A    
C11   C25   S    
C10   C17   S    
Cu1   O4    S    
C18   C19   S    
C31   H34   S    
C19   C20   S    
Cu2   O6    S    
C16   C17   D    
C12   O2    A    
C10   C13   A    
C34   O5    A    
C32   H2    S    
C29   H36   S    
C24   H15   S    
C21   C22   S    
C25   H21   S    
C23   H37   S    
C18   H10   S    
C20   H5    S    
C22   H17   S    
C24   H14   S    
Cu1   N2    S    
C23   C30   D    
C28   H31   S    
C4    C6    A    
C5    C7    A    
C6    C8    A    
C3    C34   S    
Cu1   O1    S    
C7    C28   S    
C28   H30   S    
C27   H29   S    
Cu2   N1    S    
C33   N2    D    
H3    N2    S    
C9    C11   A    
C3    C14   A    
C27   H27   S    
C17   H23   S    
C1    C23   S    
C13   C15   A    
C1    O3    A    
C22   C24   S    
C13   C26   S    
C2    O6    A    
C25   H22   S    
C20   H7    S    
C19   H8    S    
C22   H16   S    
C24   H13   S    
C7    C9    A    
C9    C16   S    
C16   H33   S    
C3    C5    A    
Cu2   O3    S    
C20   H6    S    
Cu1   O8    S    
C19   H9    S    
H4    N1    S    
C32   C33   S    
C4    C15   A    
C26   H26   S    
C29   C31   D    
Cu2   O2    S    
C30   C31   S    
C2    C4    S    
C12   O4    A    
C27   H28   S    
C33   H38   S    
C8    C10   A    
C34   O7    A    
C8    C27   S    
Cu2   O7    S    
C26   H24   S    
