data_mof_unit_31378.cif
_audit_creation_date              2012-12-10T17:40:05-0500
_audit_creation_method            fapswitch 2.2
_symmetry_space_group_name_H-M    P1
_symmetry_Int_Tables_number       1
_space_group_crystal_system       triclinic
_cell_length_a                    11.936587
_cell_length_b                    12.853286
_cell_length_c                    27.713985
_cell_angle_alpha                 89.774446
_cell_angle_beta                  85.76437
_cell_angle_gamma                 93.128433
_cell_volume                      4233.93234134

loop_
_atom_site_label
_atom_site_type_symbol
_atom_type_description
_atom_site_fract_x
_atom_site_fract_y
_atom_site_fract_z
_atom_type_partial_charge
C1    C     C_R   0.521851 0.700585 0.499408 0.909775
C2    C     C_R   0.535547 0.615123 0.125576 -0.228037
C3    C     C_R   0.498773 0.502449 0.646884 -0.223496
C4    C     C_R   0.500006 0.503472 0.352896 -0.229394
C5    C     C_R   0.527517 0.618867 0.023693 -0.133309
C6    C     C_R   0.409300 0.454890 0.978108 -0.134164
C7    C     C_R   0.426615 0.446966 0.027771 0.124557
C8    C     C_R   0.537498 0.611115 0.972567 0.124481
C9    C     C_R   0.481198 0.531579 0.050884 0.004483
C10   C     C_R   0.474343 0.530910 0.949964 0.007201
C11   C     C_R   0.562929 0.709437 0.048714 0.320786
C12   C     C_R   0.477904 0.299567 0.499759 0.914519
C13   C     C_R   0.330860 0.388646 0.955430 0.312948
C14   C     C_R   0.576211 0.704668 0.098717 0.423894
C15   C     C_R   0.338941 0.378409 0.904849 0.429291
C16   C     C_R   0.499832 0.499733 0.594091 0.929742
C17   C     C_R   0.499913 0.500041 0.405826 0.935271
C18   C     C_R   0.613203 0.676891 0.943436 -0.186845
C19   C     C_R   0.396641 0.354797 0.054401 -0.189836
C20   C     C_R   0.463286 0.188593 0.498023 -0.138327
C21   C     C_R   0.534140 0.811806 0.496353 -0.129389
C22   C     C_R   0.640427 0.968298 0.468901 0.494687
C23   C     C_R   0.477746 0.525810 0.899026 -0.130948
C24   C     C_R   0.349526 0.030642 0.516202 0.494732
C25   C     C_R   0.634478 0.861193 0.476960 -0.306896
C26   C     C_R   0.360895 0.138794 0.514744 -0.293193
C27   C     C_R   0.440170 0.867855 0.509406 -0.248257
C28   C     C_R   0.554067 0.132537 0.480759 -0.244695
C29   C     C_R   0.444928 0.974348 0.503295 0.010510
C30   C     C_R   0.546927 0.025322 0.483913 0.014115
C31   C     C_R   0.957477 0.407641 0.452344 0.404501
C32   C     C_R   0.043039 0.595238 0.546900 0.415892
C33   C     C_R   0.839447 0.414450 0.458296 -0.116668
C34   C     C_R   0.489640 0.528189 0.101359 -0.133446
C35   C     C_R   0.160691 0.583630 0.542623 -0.123318
C36   C     C_R   0.856752 0.540226 0.519977 0.003994
C37   C     C_R   0.143363 0.461395 0.479469 -0.023745
C38   C     C_R   0.974929 0.534755 0.516860 -0.084164
C39   C     C_R   0.025411 0.467189 0.482658 -0.100601
C40   C     C_R   0.556445 0.588248 0.820593 0.495905
C41   C     C_R   0.463696 0.433157 0.177177 0.478739
C42   C     C_R   0.416912 0.447385 0.825369 0.629687
C43   C     C_R   0.537025 0.609847 0.176309 0.603713
C44   C     C_R   0.585449 0.473836 0.721730 -0.278729
C45   C     C_R   0.550993 0.595677 0.870886 0.030013
C46   C     C_R   0.401963 0.500274 0.279537 -0.263671
C47   C     C_R   0.589273 0.467416 0.671439 0.513393
C48   C     C_R   0.398206 0.495704 0.329864 0.516303
C49   C     C_R   0.405111 0.540942 0.673241 -0.401722
C50   C     C_R   0.602952 0.518473 0.325006 -0.379273
C51   C     C_R   0.402968 0.549950 0.723484 0.565256
C52   C     C_R   0.606373 0.523020 0.274676 0.531221
C53   C     C_R   0.492327 0.513237 0.747587 0.135140
C54   C     C_R   0.504433 0.515041 0.251974 0.124535
C55   C     C_3   0.762404 0.986905 0.400526 0.063845
C56   C     C_R   0.453473 0.436649 0.127499 0.032628
C57   C     C_3   0.883345 0.953025 0.393939 -0.359003
C58   C     C_3   0.915138 0.924680 0.341480 -0.939373
C59   C     C_3   0.158841 0.002098 0.507129 0.052639
C60   C     C_3   0.068916 0.055447 0.538935 -0.372018
C61   C     C_3   0.966426 0.075720 0.511223 -0.873728
C62   C     C_3   0.972019 0.347728 0.373133 0.075562
C63   C     C_3   0.909024 0.246717 0.359361 -0.338412
C64   C     C_3   0.862720 0.255750 0.309826 -0.983715
C65   C     C_3   0.048318 0.753538 0.588738 0.079752
C66   C     C_3   0.096758 0.757361 0.638385 -0.344677
C67   C     C_R   0.619142 0.669764 0.893430 -0.187440
C68   C     C_3   0.160004 0.861434 0.646428 -0.933236
C69   C     C_3   0.297561 0.692419 0.740130 0.046481
C70   C     C_3   0.374987 0.761860 0.769697 -0.351567
C71   C     C_3   0.353524 0.876848 0.763379 -0.946447
C72   C     C_3   0.741152 0.457305 0.221416 0.079595
C73   C     C_3   0.868915 0.464442 0.211189 -0.341157
C74   C     C_3   0.908231 0.378244 0.177303 -0.959471
C75   C     C_3   0.231115 0.562622 0.355156 -0.310688
C76   C     C_3   0.668761 0.320755 0.644063 -0.254051
C77   C     C_3   0.739899 0.803126 0.108370 0.137130
C78   C     C_R   0.409643 0.349875 0.103537 -0.188164
C79   C     C_3   0.807160 0.730521 0.137889 -0.345981
C80   C     C_3   0.933277 0.747538 0.124705 -0.990578
C81   C     C_3   0.302204 0.202253 0.893991 0.143909
C82   C     C_3   0.400230 0.170577 0.859205 -0.354380
C83   C     C_3   0.437041 0.062509 0.871801 -0.988888
C84   C     C_3   0.486619 0.864474 0.031744 0.138028
C85   C     C_3   0.416702 0.854897 0.987628 -0.369713
C86   C     C_3   0.320782 0.928938 0.990991 -0.969853
C87   C     C_3   0.146859 0.394961 0.985511 0.142059
C88   C     C_3   0.132483 0.444285 0.035690 -0.358196
C89   C     C_R   0.410697 0.449248 0.876269 -0.225498
C90   C     C_3   0.020623 0.496229 0.043253 -0.974344
H1    H     H_    0.333716 0.565013 0.654845 0.186594
H2    H     H_    0.384871 0.277632 0.122669 0.191662
H3    H     H_    0.324566 0.491530 0.261495 0.174590
H4    H     H_    0.654598 0.447188 0.740852 0.183351
H5    H     H_    0.673173 0.730925 0.958591 0.199125
H6    H     H_    0.367476 0.283891 0.037421 0.192774
H7    H     H_    0.631627 0.172932 0.466400 0.203884
H8    H     H_    0.362933 0.828070 0.524503 0.200911
H9    H     H_    0.753189 0.054849 0.376584 0.164088
H10   H     H_    0.704608 0.922758 0.388106 0.134556
H11   H     H_    0.942001 0.017203 0.404895 0.229353
H12   H     H_    0.681512 0.527099 0.342216 0.197604
H13   H     H_    0.892566 0.884344 0.417523 0.213437
H14   H     H_    0.859125 0.858944 0.329993 0.273673
H15   H     H_    0.003317 0.900695 0.337985 0.263155
H16   H     H_    0.908281 0.992863 0.317329 0.269334
H17   H     H_    0.121736 0.926775 0.494491 0.147897
H18   H     H_    0.182840 0.050278 0.473934 0.139398
H19   H     H_    0.041674 0.005136 0.570748 0.223612
H20   H     H_    0.104272 0.130719 0.552275 0.228264
H21   H     H_    0.990951 0.126685 0.479285 0.282538
H22   H     H_    0.903402 0.115157 0.535146 0.270577
H23   H     H_    0.291114 0.183691 0.527996 0.174184
H24   H     H_    0.927319 0.000820 0.499180 0.275453
H25   H     H_    0.048551 0.359938 0.347970 0.190426
H26   H     H_    0.920190 0.416012 0.367692 0.111621
H27   H     H_    0.967284 0.182154 0.358800 0.235415
H28   H     H_    0.838255 0.227681 0.386777 0.225718
H29   H     H_    0.801904 0.318128 0.310223 0.268066
H30   H     H_    0.818580 0.180928 0.300713 0.266742
H31   H     H_    0.932341 0.273732 0.281715 0.276531
H32   H     H_    0.985329 0.813855 0.587690 0.165001
H33   H     H_    0.114471 0.775255 0.559349 0.131055
H34   H     H_    0.706855 0.816705 0.466611 0.168671
H35   H     H_    0.026980 0.745608 0.667061 0.245748
H36   H     H_    0.154913 0.693617 0.641707 0.207665
H37   H     H_    0.234369 0.871906 0.619994 0.295961
H38   H     H_    0.189236 0.863186 0.683485 0.255321
H39   H     H_    0.104003 0.926703 0.642776 0.271037
H40   H     H_    0.208912 0.709220 0.750895 0.186691
H41   H     H_    0.311822 0.712791 0.701005 0.129585
H42   H     H_    0.361173 0.740244 0.808648 0.235550
H43   H     H_    0.463979 0.750067 0.757460 0.252383
H44   H     H_    0.368488 0.900270 0.724721 0.269052
H45   H     H_    0.184630 0.410560 0.453574 0.210960
H46   H     H_    0.411978 0.924755 0.784644 0.277033
H47   H     H_    0.265729 0.892129 0.776376 0.265998
H48   H     H_    0.702508 0.458307 0.186211 0.150542
H49   H     H_    0.716141 0.381906 0.240370 0.142253
H50   H     H_    0.895565 0.541114 0.194227 0.235094
H51   H     H_    0.909659 0.458626 0.245814 0.221458
H52   H     H_    0.882515 0.300486 0.193337 0.272926
H53   H     H_    0.001370 0.384813 0.171291 0.270296
H54   H     H_    0.871705 0.385510 0.141793 0.268797
H55   H     H_    0.203459 0.576791 0.318386 0.149413
H56   H     H_    0.815417 0.591903 0.545455 0.192592
H57   H     H_    0.277304 0.633275 0.368386 0.167981
H58   H     H_    0.154139 0.548095 0.379701 0.183916
H59   H     H_    0.592992 0.296551 0.624830 0.147247
H60   H     H_    0.663673 0.284382 0.680732 0.150293
H61   H     H_    0.742930 0.290901 0.623123 0.195446
H62   H     H_    0.767122 0.884963 0.116195 0.164456
H63   H     H_    0.761018 0.792069 0.068961 0.145590
H64   H     H_    0.789869 0.745595 0.177109 0.279525
H65   H     H_    0.781505 0.647934 0.130751 0.211597
H66   H     H_    0.952914 0.730954 0.085778 0.269445
H67   H     H_    0.215344 0.624993 0.566294 0.139201
H68   H     H_    0.979996 0.694392 0.146538 0.268207
H69   H     H_    0.961873 0.829141 0.132270 0.273011
H70   H     H_    0.228637 0.147476 0.889289 0.162879
H71   H     H_    0.323599 0.192133 0.932103 0.145902
H72   H     H_    0.374016 0.170244 0.821553 0.263109
H73   H     H_    0.473172 0.227497 0.861228 0.215221
H74   H     H_    0.467167 0.062104 0.908770 0.272820
H75   H     H_    0.507008 0.041148 0.845728 0.275072
H76   H     H_    0.365936 0.003524 0.869978 0.272779
H77   H     H_    0.516966 0.947180 0.035199 0.168424
H78   H     H_    0.784852 0.367085 0.436793 0.144795
H79   H     H_    0.432448 0.844651 0.065492 0.137691
H80   H     H_    0.471651 0.873220 0.954195 0.241827
H81   H     H_    0.380641 0.773753 0.985119 0.225203
H82   H     H_    0.263348 0.910588 0.023652 0.270604
H83   H     H_    0.272111 0.920246 0.958476 0.270205
H84   H     H_    0.354519 0.011010 0.992751 0.261817
H85   H     H_    0.072705 0.340986 0.980645 0.171067
H86   H     H_    0.146877 0.456437 0.956858 0.129869
H87   H     H_    0.136088 0.383251 0.063985 0.240491
H88   H     H_    0.201933 0.503903 0.039844 0.224998
H89   H     H_    0.678494 0.722034 0.872508 0.191525
H90   H     H_    0.016027 0.559240 0.016039 0.267218
H91   H     H_    0.013076 0.530672 0.079958 0.276841
H92   H     H_    0.949265 0.438048 0.040159 0.267142
N1    N     N_R   0.488731 0.516204 0.799107 -0.331865
N2    N     N_R   0.503062 0.519411 0.200535 -0.346554
N3    N     N_R   0.207800 0.519340 0.508990 -0.131144
N4    N     N_R   0.792200 0.480660 0.491010 -0.134259
O1    O     O_R   0.421700 0.658820 0.502400 -0.635889
O2    O     O_2   0.434428 0.344228 0.202216 -0.570617
O3    O     O_2   0.569839 0.694224 0.201551 -0.496430
O4    O     O_2   0.352098 0.377941 0.801952 -0.502816
O5    O     O_3   0.739124 0.018250 0.449087 -0.668040
O6    O     O_3   0.249971 0.979823 0.534886 -0.672354
O7    O     O_3   0.007270 0.337492 0.420536 -0.654590
O8    O     O_3   0.991096 0.655452 0.582791 -0.643757
O9    O     O_3   0.309946 0.585614 0.750068 -0.615310
O10   O     O_3   0.709205 0.544524 0.249063 -0.634188
O11   O     O_3   0.296217 0.474320 0.356139 -0.588500
O12   O     O_R   0.578300 0.341180 0.497600 -0.627609
O13   O     O_3   0.683297 0.430146 0.646592 -0.573652
O14   O     O_3   0.622838 0.790569 0.121704 -0.586533
O15   O     O_3   0.270228 0.304181 0.883358 -0.579979
O16   O     O_3   0.582611 0.804539 0.025064 -0.670907
O17   O     O_3   0.243290 0.335037 0.982167 -0.670155
O18   O     O_R   0.609310 0.646410 0.496630 -0.630457
O19   O     O_R   0.390690 0.353590 0.503370 -0.621910
O20   O     O_R   0.406200 0.506190 0.574130 -0.631236
O21   O     O_R   0.593800 0.493810 0.425870 -0.639688
O22   O     O_R   0.593820 0.493770 0.568360 -0.567408
O23   O     O_R   0.406180 0.506230 0.431640 -0.573141
O24   O     O_2   0.628307 0.652849 0.793193 -0.580638
Zn1   Zn    Zn3+2 0.374730 0.508290 0.503850 0.955513
Zn2   Zn    Zn3+2 0.625270 0.491710 0.496150 0.956874

loop_
_geom_bond_atom_site_label_1
_geom_bond_atom_site_label_2
_ccdc_geom_bond_type
C28   H7    S    
C66   C68   S    
C74   H53   S    
C27   H8    S    
C34   C56   A    
C23   C45   A    
N4    Zn2   S    
C27   C29   A    
C73   C74   S    
C52   O10   S    
C87   C88   S    
C71   H44   S    
C81   C82   S    
C3    C49   A    
C88   H87   S    
C71   H47   S    
C73   H51   S    
C85   C86   S    
C75   H55   S    
C1    C21   S    
C87   H86   S    
C83   H75   S    
C29   C30   A    
C64   H29   S    
C86   H82   S    
C24   C26   A    
C5    C11   A    
C17   O23   A    
C53   N1    S    
C38   C39   A    
C63   H27   S    
C11   C14   A    
C72   O10   S    
C82   H73   S    
O19   Zn1   S    
C57   H11   S    
C64   H31   S    
C40   O24   S    
C43   N2    A    
C69   O9    S    
C56   C78   A    
C3    C47   A    
C24   C29   A    
C21   C25   A    
C60   H19   S    
C77   H63   S    
O20   Zn1   S    
C72   H49   S    
C37   N3    A    
C90   H92   S    
C69   H40   S    
C49   C51   A    
C22   C25   A    
C55   H10   S    
C45   C67   A    
C70   H43   S    
C50   C52   A    
C37   H45   S    
C41   N2    A    
C33   N4    A    
C32   C38   A    
O12   Zn2   S    
C77   O14   S    
C68   H38   S    
C46   C54   A    
C44   C47   A    
C69   H41   S    
C40   N1    A    
C2    C34   A    
C72   H48   S    
C21   C27   A    
C59   C60   S    
C81   H70   S    
C18   H5    S    
C47   O13   S    
C59   O6    S    
C68   H39   S    
O18   Zn2   S    
C49   H1    S    
C44   C53   A    
C77   H62   S    
C87   O17   S    
O22   Zn2   S    
C15   O15   S    
C52   C54   A    
C80   H66   S    
C90   H90   S    
C1    O1    A    
C40   C45   A    
C57   H13   S    
C83   H76   S    
C46   C48   A    
C83   H74   S    
C31   C33   A    
C32   C35   A    
C17   O21   A    
C60   H20   S    
C84   C85   S    
C32   O8    S    
C84   H79   S    
C71   H46   S    
C31   O7    S    
C63   H28   S    
C80   H69   S    
C81   O15   S    
C20   C28   A    
C76   H61   S    
C75   H57   S    
C18   C67   A    
C63   C64   S    
C14   O14   S    
C82   C83   S    
C59   H17   S    
C13   O17   S    
C41   O2    S    
C4    C50   A    
C60   C61   S    
C86   H84   S    
C11   O16   S    
C55   O5    S    
C19   C78   A    
C35   H67   S    
C41   C56   A    
C5    C9    A    
C62   C63   S    
C15   C89   A    
C42   C89   A    
C42   O4    S    
C80   H68   S    
C90   H91   S    
C76   H60   S    
C2    C43   A    
C35   N3    A    
C12   C20   S    
C70   H42   S    
C23   C89   A    
C77   C79   S    
C24   O6    S    
C85   H81   S    
C65   H32   S    
C42   N1    A    
C68   H37   S    
C70   C71   S    
C4    C17   S    
C36   H56   S    
O1    Zn1   S    
C50   H12   S    
C7    C19   A    
C55   C57   S    
C13   C15   A    
C9    C34   A    
C75   H58   S    
C54   N2    S    
C33   H78   S    
C58   H14   S    
C61   H21   S    
C87   H85   S    
C65   O8    S    
C4    C48   A    
C84   O16   S    
C7    C9    A    
C74   H54   S    
C12   O12   A    
C22   C30   A    
C81   H71   S    
C59   H18   S    
C88   C90   S    
C72   C73   S    
C16   O22   A    
C76   O13   S    
C6    C10   A    
C75   O11   S    
O21   Zn2   S    
C88   H88   S    
C6    C7    A    
C73   H50   S    
C10   C23   A    
C82   H72   S    
C16   O20   A    
C85   H80   S    
C64   H30   S    
C66   H35   S    
C48   O11   S    
C58   H15   S    
C78   H2    S    
C12   O19   A    
C86   H83   S    
C36   C38   A    
C26   H23   S    
C62   H25   S    
C37   C39   A    
C84   H77   S    
C51   O9    S    
C79   H64   S    
C1    O18   A    
C57   C58   S    
N3    Zn1   S    
C46   H3    S    
C20   C26   A    
C76   H59   S    
C28   C30   A    
O23   Zn1   S    
C31   C39   A    
C36   N4    A    
C65   H33   S    
C74   H52   S    
C69   C70   S    
C2    C14   A    
C25   H34   S    
C8    C18   A    
C44   H4    S    
C62   H26   S    
C3    C16   S    
C51   C53   A    
C79   H65   S    
C79   C80   S    
C66   H36   S    
C43   O3    S    
C8    C10   A    
C65   C66   S    
C55   H9    S    
C61   H24   S    
C5    C8    A    
C67   H89   S    
C62   O7    S    
C58   H16   S    
C22   O5    S    
C61   H22   S    
C19   H6    S    
C6    C13   A    
