data_mof_unit_19140.cif
_audit_creation_date              2013-03-05T15:47:47-0500
_audit_creation_method            fapswitch 2.2
_symmetry_space_group_name_H-M    P1
_symmetry_Int_Tables_number       1
_space_group_crystal_system       triclinic
_cell_length_a                    21.582161
_cell_length_b                    7.218135
_cell_length_c                    18.549691
_cell_angle_alpha                 89.55446
_cell_angle_beta                  96.04052
_cell_angle_gamma                 89.747507
_cell_volume                      2873.55450894

loop_
_atom_site_label
_atom_site_type_symbol
_atom_site_description
_atom_site_fract_x
_atom_site_fract_y
_atom_site_fract_z
_atom_type_partial_charge
O1    O     O_R   0.449650 0.506500 0.414480 -0.581091
O2    O     O_R   0.550350 0.006500 0.585520 -0.579600
O3    O     O_R   0.432010 0.173150 0.560250 -0.594050
O4    O     O_R   0.567990 0.673150 0.439750 -0.579060
C1    C     C_R   0.415737 0.344407 0.580303 0.920897
C2    C     C_R   0.583920 0.844525 0.419358 0.904401
O5    O     O_R   0.442320 0.176650 0.413480 -0.582753
O6    O     O_R   0.557680 0.676650 0.586520 -0.578912
O7    O     O_R   0.560730 0.008380 0.437700 -0.584084
O8    O     O_R   0.439270 0.508380 0.562300 -0.589002
C3    C     C_R   0.428453 0.345935 0.387495 0.940722
C4    C     C_R   0.571671 0.843820 0.612572 0.935115
O9    O     O_3   0.538840 0.339860 0.508120 -0.276973
O10   O     O_3   0.461160 0.839860 0.491880 -0.286410
V1    V     V_3+5 0.492800 0.064220 0.498490 1.172269
V2    V     V_3+5 0.507200 0.564220 0.501510 1.182164
C5    C     C_R   0.871126 0.026215 0.686706 -0.099894
C6    C     C_R   0.122852 0.396878 0.315260 -0.106523
H1    H     H_    0.780769 0.049347 0.572997 0.115694
H2    H     H_    0.210358 0.383097 0.432287 0.117313
C7    C     C_R   0.888930 0.950665 0.816172 -0.205312
C8    C     C_R   0.110601 0.433520 0.183441 -0.206046
C9    C     C_R   0.591298 0.769177 0.742252 -0.287514
C10   C     C_R   0.414002 0.335811 0.254574 -0.318720
C11   C     C_R   0.630769 0.720956 0.804044 0.320052
C12   C     C_R   0.377933 0.313182 0.188306 0.320396
C13   C     C_R   0.695805 0.745358 0.805269 0.169749
C14   C     C_R   0.312101 0.320821 0.184695 0.192863
C15   C     C_R   0.720426 0.844174 0.747509 -0.078876
C16   C     C_R   0.282318 0.363326 0.248235 -0.094331
C17   C     C_R   0.679071 0.882885 0.683388 0.092219
C18   C     C_R   0.320682 0.367298 0.316188 0.086953
C19   C     C_R   0.784859 0.900450 0.749922 0.171097
C20   C     C_R   0.215889 0.393263 0.247877 0.159907
C21   C     C_R   0.807774 0.970690 0.685874 0.080011
C22   C     C_R   0.188858 0.391607 0.314705 0.069950
C23   C     C_R   0.766049 0.993876 0.622699 -0.215408
C24   C     C_R   0.228367 0.382883 0.380085 -0.210135
C25   C     C_R   0.703254 0.954634 0.621978 -0.146021
C26   C     C_R   0.292581 0.378120 0.380716 -0.132098
C27   C     C_R   0.826004 0.901473 0.814948 -0.102527
C28   C     C_R   0.175617 0.430464 0.183891 -0.112886
C29   C     C_R   0.912035 0.013618 0.751853 -0.122020
C30   C     C_R   0.083502 0.413991 0.249051 -0.104611
C31   C     C_R   0.614527 0.842200 0.680825 -0.213663
C32   C     C_R   0.386568 0.354517 0.318734 -0.208353
H3    H     H_    0.809449 0.875341 0.866803 0.144974
H4    H     H_    0.193579 0.462579 0.133308 0.154136
H5    H     H_    0.541961 0.739404 0.740646 0.173504
H6    H     H_    0.464302 0.324676 0.256862 0.172343
H7    H     H_    0.673608 0.981176 0.572143 0.108421
H8    H     H_    0.320174 0.377642 0.432985 0.090049
C33   C     C_R   0.618013 0.902586 0.296524 -0.206398
C34   C     C_R   0.355421 0.211645 0.677374 -0.209517
C35   C     C_R   0.633323 0.855152 0.369893 -0.110115
C36   C     C_R   0.365154 0.355892 0.628394 -0.137442
C37   C     C_R   0.695992 0.824135 0.396142 -0.244796
C38   C     C_R   0.327392 0.515614 0.626864 -0.249362
C39   C     C_R   0.743367 0.842849 0.349831 0.169603
C40   C     C_R   0.280875 0.532902 0.673745 0.161076
C41   C     C_R   0.727826 0.889411 0.276049 0.055244
C42   C     C_R   0.272322 0.390190 0.723998 0.075424
C43   C     C_R   0.664728 0.917614 0.249229 0.123348
C44   C     C_R   0.309728 0.228701 0.725718 0.132604
C45   C     C_R   0.806046 0.815595 0.375973 -0.232643
C46   C     C_R   0.242746 0.690801 0.671105 -0.241326
C47   C     C_R   0.853037 0.836233 0.329988 -0.056954
C48   C     C_R   0.196194 0.707412 0.717582 -0.110289
C49   C     C_R   0.838779 0.885572 0.256270 -0.008455
C50   C     C_R   0.187488 0.568020 0.769165 -0.020832
C51   C     C_R   0.775345 0.908008 0.229040 -0.007424
C52   C     C_R   0.226199 0.408738 0.772394 -0.003371
C53   C     C_R   0.759124 0.949242 0.154909 0.140506
C54   C     C_R   0.218346 0.266416 0.823094 0.138748
C55   C     C_R   0.696160 0.974832 0.128800 -0.111748
C56   C     C_R   0.256000 0.106906 0.824626 -0.095473
C57   C     C_R   0.649502 0.960634 0.175572 -0.159951
C58   C     C_R   0.301048 0.087820 0.776154 -0.203440
C59   C     C_R   0.886093 0.909076 0.208943 0.280884
C60   C     C_R   0.139926 0.581537 0.815986 0.324717
C61   C     C_R   0.868951 0.940909 0.133793 -0.293445
C62   C     C_R   0.133158 0.440673 0.868142 -0.330519
C63   C     C_R   0.805851 0.962530 0.107854 -0.216221
C64   C     C_R   0.172785 0.284879 0.871145 -0.120712
H9    H     H_    0.569634 0.926729 0.276308 0.131515
H10   H     H_    0.384439 0.088351 0.679185 0.143304
H11   H     H_    0.707842 0.788769 0.452861 0.117122
H12   H     H_    0.333927 0.626589 0.588696 0.145809
H13   H     H_    0.818861 0.778001 0.432266 0.148438
H14   H     H_    0.248663 0.801528 0.632663 0.145914
H15   H     H_    0.900482 0.809386 0.352629 0.203458
H16   H     H_    0.167365 0.830748 0.712771 0.194086
H17   H     H_    0.793196 0.989828 0.050593 0.152568
H18   H     H_    0.167904 0.176600 0.910969 0.186958
H19   H     H_    0.682957 0.006613 0.072054 0.178530
H20   H     H_    0.250265 0.995941 0.863014 0.164022
H21   H     H_    0.601367 0.982301 0.153974 0.178654
H22   H     H_    0.329204 0.962834 0.778230 0.157545
O11   O     O_R   0.060820 0.290050 0.937800 -0.594800
O12   O     O_R   0.939180 0.790050 0.062200 -0.570350
O13   O     O_R   0.057690 0.616620 0.086540 -0.557269
O14   O     O_R   0.942310 0.116620 0.913460 -0.599957
C65   C     C_R   0.071136 0.447609 0.113001 0.896796
C66   C     C_R   0.929060 0.950336 0.886611 0.909075
O15   O     O_R   0.068010 0.619890 0.939770 -0.555438
O16   O     O_R   0.931990 0.119890 0.060230 -0.596405
O17   O     O_R   0.949640 0.787940 0.914460 -0.546467
O18   O     O_R   0.050360 0.287940 0.085540 -0.577167
C67   C     C_R   0.083988 0.451346 0.918650 1.001864
C68   C     C_R   0.916397 0.951388 0.081583 1.019724
O19   O     O_3   0.961210 0.453080 0.991940 -0.281861
O20   O     O_3   0.038790 0.953080 0.008060 -0.263605
V3    V     V_3+5 0.007200 0.728820 0.001500 1.288419
V4    V     V_3+5 0.992800 0.228820 0.998500 1.239229
C69   C     C_2   0.979018 0.066515 0.753858 0.749832
H23   H     H_    0.003770 0.121180 0.802905 0.011462
O21   O     O_2   0.008152 0.043132 0.701662 -0.522869
C70   C     C_2   0.014106 0.419536 0.247028 0.779528
H24   H     H_    0.985118 0.373220 0.199305 -0.038593
O22   O     O_2   0.988328 0.482213 0.297115 -0.549840
N1    N     N_R   0.950752 0.913544 0.237714 0.219587
O23   O     O_R   0.968375 0.020216 0.292182 -0.366152
O24   O     O_R   0.993057 0.828194 0.205326 -0.420030
N2    N     N_R   0.095342 0.729443 0.806584 0.232444
O25   O     O_R   0.037020 0.692445 0.787445 -0.407344
O26   O     O_R   0.111721 0.897506 0.824315 -0.448034
C71   C     C_2   0.893477 0.106309 0.620014 0.642770
H25   H     H_    0.885501 0.033671 0.568903 -0.005416
O27   O     O_2   0.919296 0.256637 0.621457 -0.532614
C72   C     C_2   0.095323 0.375590 0.384988 0.662884
H26   H     H_    0.108910 0.467903 0.429698 -0.011471
O28   O     O_2   0.058461 0.251449 0.393395 -0.494001
N3    N     N_R   0.735845 0.635460 0.855769 0.232930
O29   O     O_R   0.773960 0.515917 0.831886 -0.387430
O30   O     O_R   0.734850 0.654226 0.925329 -0.361907
N4    N     N_R   0.276875 0.264139 0.118739 0.239054
O31   O     O_R   0.241380 0.118808 0.118479 -0.376883
O32   O     O_R   0.282825 0.351015 0.058110 -0.359927
N5    N     N_R   0.604526 0.631613 0.863079 0.265386
O33   O     O_R   0.612769 0.702571 0.927598 -0.307441
O34   O     O_R   0.562779 0.503267 0.850027 -0.352887
N6    N     N_R   0.409074 0.269477 0.125674 0.263710
O35   O     O_R   0.390069 0.132309 0.084053 -0.296837
O36   O     O_R   0.462194 0.346460 0.116826 -0.349666

loop_
_geom_bond_atom_site_label_1
_geom_bond_atom_site_label_2
_geom_bond_distance
_ccdc_geom_bond_type
C46   C48   1.396386 A    
O12   C68   1.328877 A    
C9    C31   1.393098 A    
C13   C15   1.431905 A    
C52   C54   1.410188 A    
O13   V3    1.985518 S    
C1    C36   1.483175 S    
C25   H7    1.082748 S    
O1    C3    1.329881 A    
C2    C35   1.479908 S    
O2    C4    1.334125 A    
O11   V4    1.990999 S    
C5    C29   1.421692 A    
C55   H19   1.083678 S    
C46   H14   1.083879 S    
C33   C43   1.408387 A    
C12   C14   1.416143 A    
C45   H13   1.083829 S    
C59   N1    1.441233 S    
C54   C56   1.404718 A    
O16   V4    1.990784 S    
O15   V3    1.993246 S    
C11   N5    1.434806 S    
C56   C58   1.399093 A    
C43   C57   1.403288 A    
C49   C59   1.424812 A    
C9    H5    1.084574 S    
C38   C40   1.401440 A    
C69   H23   1.083490 S    
C63   H17   1.084825 S    
C15   C19   1.446686 A    
C40   C42   1.409646 A    
O18   V4    1.981268 S    
O16   C68   1.331770 A    
C49   C51   1.416656 A    
C70   H24   1.084765 S    
O17   V3    1.973486 S    
C42   C44   1.413226 A    
H1    C23   1.080862 S    
C29   C69   1.493574 S    
C7    C29   1.413296 A    
C7    C66   1.489677 S    
C8    C30   1.411019 A    
C48   H16   1.081593 S    
C36   C38   1.407318 A    
C69   O21   1.221091 D    
C20   C28   1.418522 A    
C58   H22   1.083665 S    
C57   H21   1.083601 S    
C65   O18   1.324550 A    
C16   C18   1.434002 A    
C41   C51   1.420490 A    
O5    V1    1.985674 S    
C40   C46   1.400344 A    
O6    V2    1.999574 S    
C53   C55   1.404695 A    
C44   C58   1.402938 A    
C2    O7    1.342378 A    
O20   V3    1.759339 S    
C61   C63   1.403382 A    
C33   C35   1.405617 A    
C10   H6    1.084524 S    
C23   C25   1.384472 A    
C34   C36   1.407509 A    
C39   C41   1.412038 A    
N6    O35   1.301324 A    
C16   C20   1.448250 A    
C50   C60   1.416185 A    
C13   N3    1.437211 S    
C62   C67   1.489804 S    
C60   C62   1.416666 A    
C54   C64   1.401529 A    
C34   H10   1.084220 S    
C5    C71   1.488061 S    
C28   H4    1.076275 S    
C45   C47   1.399935 A    
C26   H8    1.083116 S    
C8    C65   1.485282 S    
C37   H11   1.084500 S    
C47   C49   1.412205 A    
O4    V2    1.990827 S    
O5    C3    1.331257 A    
C71   O27   1.221187 D    
O14   V4    1.999393 S    
C6    C30   1.421986 A    
H2    C24   1.080721 S    
C30   C70   1.494585 S    
O6    C4    1.327516 A    
C47   H15   1.081160 S    
C27   H3    1.076369 S    
C42   C52   1.415441 A    
O1    V2    1.978765 S    
C64   H18   1.084337 S    
O14   C66   1.323926 A    
O2    V1    1.971159 S    
C55   C57   1.400245 A    
N1    O23   1.300828 A    
C7    C27   1.403168 A    
O4    C2    1.347341 A    
C62   C64   1.406998 A    
C35   C37   1.404837 A    
N3    O29   1.301506 A    
N6    O36   1.301470 A    
C6    C72   1.486283 S    
C71   H25   1.085171 S    
O3    V1    1.993295 S    
N4    O32   1.301806 A    
N2    O26   1.300099 A    
C60   N2    1.431350 S    
O15   C67   1.335882 A    
C21   C23   1.409172 A    
C14   N4    1.434227 S    
C18   C32   1.420340 A    
C41   C43   1.413091 A    
O12   V3    1.992013 S    
C10   C12   1.395186 A    
N4    O31   1.301417 A    
O3    C1    1.349299 A    
C38   H12   1.084442 S    
C33   H9    1.084511 S    
N5    O33   1.300722 A    
C4    C31   1.487211 S    
C11   C13   1.413225 A    
C59   C61   1.420801 A    
C72   O28   1.220821 D    
C19   C27   1.420679 A    
C22   C24   1.408039 A    
C72   H26   1.084865 S    
O7    V1    1.983229 S    
C10   C32   1.391190 A    
C1    O8    1.343563 A    
C15   C17   1.434795 A    
O8    V2    1.982293 S    
C56   H20   1.083724 S    
C24   C26   1.384952 A    
N5    O34   1.301367 A    
C8    C28   1.402406 A    
C34   C44   1.406628 A    
C14   C16   1.435205 A    
C19   C21   1.424660 A    
C17   C25   1.398778 A    
O19   V4    1.752054 S    
C20   C22   1.424511 A    
C18   C26   1.400174 A    
C70   O22   1.220870 D    
N1    O24   1.300139 A    
C37   C39   1.409224 A    
C9    C11   1.395116 A    
C61   C68   1.483411 S    
O13   C65   1.330787 A    
C17   C31   1.420844 A    
O9    V2    1.753148 S    
C51   C53   1.411892 A    
N3    O30   1.300857 A    
C48   C50   1.409871 A    
O10   V1    1.760454 S    
C3    C32   1.484420 S    
C50   C52   1.415419 A    
C5    C21   1.425045 A    
C12   N6    1.438458 S    
C6    C22   1.426026 A    
C53   C63   1.404607 A    
C66   O17   1.332625 A    
C39   C45   1.400679 A    
N2    O25   1.300821 A    
O11   C67   1.329579 A    
