data_mof_unit_38549.cif
_audit_creation_date              2012-12-11T16:24:15-0500
_audit_creation_method            fapswitch 2.2
_symmetry_space_group_name_H-M    P1
_symmetry_Int_Tables_number       1
_space_group_crystal_system       triclinic
_cell_length_a                    14.706675
_cell_length_b                    14.753685
_cell_length_c                    33.359303
_cell_angle_alpha                 96.013036
_cell_angle_beta                  95.972267
_cell_angle_gamma                 61.193862
_cell_volume                      6295.70363879

loop_
_atom_site_label
_atom_site_type_symbol
_atom_type_description
_atom_site_fract_x
_atom_site_fract_y
_atom_site_fract_z
_atom_type_partial_charge
C1    C     C_R   0.391029 0.699900 0.445926 0.587111
C2    C     C_R   0.324216 0.347499 0.309501 0.012378
C3    C     C_R   0.424295 0.287222 0.326042 -0.131196
C4    C     C_R   0.446896 0.295419 0.367032 -0.149858
C5    C     C_R   0.369412 0.230117 0.168718 -0.125126
C6    C     C_R   0.364100 0.213706 0.127084 -0.137194
C7    C     C_R   0.225040 0.392246 0.120940 -0.009527
C8    C     C_R   0.232744 0.406917 0.163451 -0.088368
C9    C     C_R   0.302568 0.325547 0.186902 0.027722
C10   C     C_1   0.304898 0.337785 0.230003 -0.024882
C11   C     C_1   0.310911 0.343602 0.266223 -0.033405
C12   C     C_R   0.405289 0.386071 0.434131 0.540245
C13   C     C_R   0.289687 0.291872 0.102689 0.020768
C14   C     C_R   0.757224 0.373921 0.410324 0.023717
C15   C     C_R   0.781758 0.440651 0.392311 -0.129462
C16   C     C_R   0.810475 0.419595 0.352657 -0.124092
C17   C     C_R   0.817024 0.330661 0.330592 0.039492
C18   C     C_R   0.802770 0.258588 0.349731 -0.122648
C19   C     C_R   0.772363 0.280403 0.389373 -0.134595
C20   C     C_R   0.836287 0.303722 0.205572 0.332186
C21   C     C_R   0.827142 0.319896 0.286897 0.339833
C22   C     C_R   0.868138 0.372751 0.148198 -0.143431
C23   C     C_R   0.700994 0.410034 0.447568 0.541848
C24   C     C_R   0.896493 0.365469 0.109387 -0.166589
C25   C     C_R   0.880257 0.208932 0.094215 0.100922
C26   C     C_R   0.850328 0.215951 0.134200 0.010432
C27   C     C_R   0.850087 0.296594 0.161880 0.025184
C28   C     C_R   0.908536 0.281240 0.082743 0.051229
C29   C     C_R   0.372329 0.753900 0.408235 0.076819
C30   C     C_R   0.283049 0.774062 0.382286 0.056546
C31   C     C_R   0.279671 0.796718 0.342487 -0.155091
C32   C     C_R   0.363020 0.800499 0.327476 0.034069
C33   C     C_R   0.447115 0.792612 0.354138 0.099291
C34   C     C_R   0.393114 0.701822 0.561413 0.579828
C35   C     C_R   0.450943 0.771088 0.394782 0.067210
C36   C     C_R   0.358447 0.817000 0.202628 0.343808
C37   C     C_R   0.361801 0.807211 0.283544 0.373304
C38   C     C_R   0.275343 0.814674 0.133659 -0.100279
C39   C     C_R   0.250471 0.847865 0.094194 0.096143
C40   C     C_R   0.379732 0.907571 0.104671 -0.162982
C41   C     C_R   0.403543 0.874523 0.143684 -0.135038
C42   C     C_R   0.348086 0.832445 0.159167 0.016241
C43   C     C_R   0.299433 0.899951 0.080295 0.048585
C44   C     C_R   0.369176 0.373628 0.586298 0.016826
C45   C     C_R   0.406611 0.389635 0.549310 0.538398
C46   C     C_R   0.271954 0.447155 0.601965 0.099967
C47   C     C_R   0.251822 0.443851 0.642236 0.044992
C48   C     C_R   0.328533 0.364594 0.666149 0.017826
C49   C     C_R   0.417665 0.286003 0.648567 -0.150274
C50   C     C_R   0.438132 0.290690 0.609406 -0.165639
C51   C     C_R   0.322959 0.349955 0.790135 0.359005
C52   C     C_R   0.321509 0.361383 0.709619 0.323601
C53   C     C_R   0.229071 0.409802 0.853017 -0.155407
C54   C     C_R   0.215358 0.389038 0.891184 -0.145447
C55   C     C_R   0.388474 0.241568 0.892257 -0.108249
C56   C     C_R   0.699954 0.414085 0.562812 0.543219
C57   C     C_R   0.402235 0.260822 0.853738 0.103498
C58   C     C_R   0.319991 0.342890 0.833376 0.064974
C59   C     C_R   0.293228 0.301887 0.910277 -0.001930
C60   C     C_R   0.746212 0.382339 0.603568 0.014392
C61   C     C_R   0.811341 0.418215 0.624501 -0.133429
C62   C     C_R   0.842768 0.397245 0.664992 -0.130230
C63   C     C_R   0.808487 0.341246 0.684999 0.040546
C64   C     C_R   0.744451 0.302694 0.663986 0.010040
C65   C     C_R   0.714085 0.324121 0.623440 -0.111942
C66   C     C_R   0.922635 0.206169 0.820306 0.109892
C67   C     C_R   0.370010 0.365364 0.392608 0.017946
C68   C     C_R   0.944049 0.195490 0.861958 -0.141627
C69   C     C_R   0.856546 0.382844 0.874477 0.084742
C70   C     C_R   0.833866 0.393412 0.832842 -0.137617
C71   C     C_R   0.869211 0.305945 0.805846 0.049513
C72   C     C_1   0.850754 0.319436 0.763253 -0.006565
C73   C     C_1   0.833777 0.329746 0.727548 -0.035591
C74   C     C_R   0.914992 0.283012 0.889198 0.038246
C75   C     C_R   0.375488 0.753931 0.602889 0.067755
C76   C     C_R   0.277531 0.790823 0.619280 0.076614
C77   C     C_R   0.268650 0.808056 0.661639 0.017050
C78   C     C_R   0.265243 0.421603 0.376690 0.109464
C79   C     C_R   0.355960 0.797861 0.686769 0.007583
C80   C     C_R   0.448649 0.773568 0.670153 -0.115839
C81   C     C_R   0.460045 0.750850 0.628598 0.060927
C82   C     C_R   0.392665 0.882076 0.832125 -0.122690
C83   C     C_R   0.372568 0.915226 0.872388 -0.133853
C84   C     C_R   0.239511 0.861600 0.867203 -0.113402
C85   C     C_R   0.258995 0.827510 0.826409 0.011046
C86   C     C_R   0.334422 0.841545 0.808808 0.036622
C87   C     C_1   0.346611 0.823339 0.766032 -0.038431
C88   C     C_1   0.352430 0.811193 0.730015 -0.029651
C89   C     C_R   0.241318 0.412494 0.334323 0.059850
C90   C     C_R   0.293229 0.908853 0.889833 0.002268
C91   C     C_R   0.963421 0.264144 0.045698 0.570129
C92   C     C_R   0.272504 0.259663 0.060156 0.533475
C93   C     C_R   0.259564 0.959011 0.043631 0.556441
C94   C     C_R   0.962601 0.267654 0.930816 0.569221
C95   C     C_R   0.271375 0.263865 0.945352 0.543668
C96   C     C_R   0.256785 0.964106 0.929200 0.536117
Cr1   Cr    Cr6+3 0.576280 0.580550 0.506370 1.046482
Cr2   Cr    Cr6+3 0.346780 0.572400 0.496520 1.020933
Cr3   Cr    Cr6+3 0.576960 0.347070 0.497150 1.008154
Cr4   Cr    Cr6+3 0.087320 0.083240 0.984860 1.042289
Cr5   Cr    Cr6+3 0.087720 0.316210 0.996740 1.011254
Cr6   Cr    Cr6+3 0.317350 0.090340 0.995890 1.005931
H1    H     H_    0.414501 0.136792 0.114281 0.129683
H2    H     H_    0.754569 0.227277 0.402636 0.124304
H3    H     H_    0.915680 0.423161 0.101241 0.135222
H4    H     H_    0.822673 0.475464 0.338642 0.121014
H5    H     H_    0.807883 0.189196 0.333231 0.126643
H6    H     H_    0.866420 0.435966 0.168412 0.141366
H7    H     H_    0.423566 0.166866 0.186899 0.113796
H8    H     H_    0.212227 0.807692 0.322754 0.138864
H9    H     H_    0.234178 0.779341 0.144963 0.124743
H10   H     H_    0.419885 0.945576 0.094683 0.130297
H11   H     H_    0.461592 0.887279 0.162386 0.137702
H12   H     H_    0.511466 0.231961 0.598095 0.129548
H13   H     H_    0.141490 0.437185 0.904507 0.134634
H14   H     H_    0.475311 0.223407 0.666143 0.131463
H15   H     H_    0.486723 0.236342 0.306790 0.124673
H16   H     H_    0.165615 0.473405 0.837569 0.117533
H17   H     H_    0.450202 0.175439 0.907043 0.125958
H18   H     H_    0.989747 0.118400 0.872779 0.131111
H19   H     H_    0.660867 0.299068 0.607839 0.132660
H20   H     H_    0.836039 0.463851 0.609717 0.121993
H21   H     H_    0.790878 0.470223 0.821535 0.109402
H22   H     H_    0.527034 0.251088 0.378270 0.137910
H23   H     H_    0.891603 0.427149 0.681082 0.113288
H24   H     H_    0.415079 0.951400 0.889100 0.134416
H25   H     H_    0.450637 0.892514 0.818613 0.121706
H26   H     H_    0.513933 0.768783 0.689969 0.115010
H27   H     H_    0.179526 0.856079 0.881225 0.123447
H28   H     H_    0.183061 0.480105 0.178929 0.107815
H29   H     H_    0.771952 0.512799 0.407793 0.125811
N1    N     N_R   0.794161 0.397911 0.226032 -0.235673
N2    N     N_R   0.301778 0.445588 0.735387 -0.260733
N3    N     N_R   0.344893 0.270666 0.725015 -0.233127
N4    N     N_R   0.345258 0.265181 0.764546 -0.185916
N5    N     N_R   0.789502 0.405859 0.265857 -0.234461
N6    N     N_R   0.869025 0.225509 0.266617 -0.233965
N7    N     N_R   0.874642 0.217689 0.226733 -0.238890
N8    N     N_R   0.302234 0.779773 0.218122 -0.239158
N9    N     N_R   0.304199 0.774648 0.257752 -0.244353
N10   N     N_R   0.418467 0.843926 0.268036 -0.168708
N11   N     N_R   0.416600 0.848994 0.228374 -0.231970
N12   N     N_R   0.300917 0.440486 0.774951 -0.262273
O1    O     O_R   0.679450 0.499830 0.463150 -0.515065
O2    O     O_R   0.356040 0.477400 0.534170 -0.509362
O3    O     O_R   0.495910 0.323070 0.537100 -0.521927
O4    O     O_R   0.663920 0.359620 0.542290 -0.509537
O5    O     O_3   0.500010 0.500010 0.500010 -0.249717
O6    O     O_R   0.170070 0.978950 0.027680 -0.468845
O7    O     O_R   0.001760 0.175230 0.026640 -0.453656
O8    O     O_R   0.984760 0.333570 0.037150 -0.536770
O9    O     O_R   0.183410 0.309240 0.041890 -0.512647
O10   O     O_R   0.340240 0.172500 0.045430 -0.520259
O11   O     O_R   0.309670 0.000990 0.032050 -0.515950
O12   O     O_R   0.480650 0.664000 0.464630 -0.470795
O13   O     O_R   0.168330 0.982130 0.939200 -0.527016
O14   O     O_R   0.000140 0.178170 0.944610 -0.516015
O15   O     O_R   0.983010 0.336750 0.948660 -0.474860
O16   O     O_R   0.181800 0.312190 0.959860 -0.501549
O17   O     O_R   0.338500 0.175680 0.956950 -0.521105
O18   O     O_R   0.308050 0.003930 0.950020 -0.500531
O19   O     O_3   0.164130 0.163270 0.992500 -0.244892
O20   O     O_R   0.323930 0.675950 0.455370 -0.479768
O21   O     O_R   0.354700 0.475360 0.451930 -0.504153
O22   O     O_R   0.494470 0.320860 0.448390 -0.518187
O23   O     O_R   0.662580 0.357570 0.460050 -0.502803
O24   O     O_R   0.680900 0.502040 0.551870 -0.493451
O25   O     O_R   0.481990 0.666040 0.546870 -0.473875
O26   O     O_R   0.325370 0.678160 0.544080 -0.492731
N13   N     N_3   0.882834 0.129141 0.065010 -0.609164
H30   H     H_    0.808792 0.134995 0.060869 0.218592
H31   H     H_    0.936670 0.056788 0.075428 0.245350
C97   C     C_3   0.817967 0.139475 0.146651 -0.251753
C98   C     C_3   0.702235 0.193378 0.155035 -0.288421
C99   C     C_3   0.671375 0.116929 0.168598 -0.448289
H32   H     H_    0.682934 0.055277 0.144392 0.146691
H33   H     H_    0.718318 0.081050 0.196394 0.165789
H34   H     H_    0.588246 0.158622 0.175331 0.148626
H35   H     H_    0.684215 0.256736 0.178986 0.186819
H36   H     H_    0.654650 0.227766 0.127107 0.164199
H37   H     H_    0.831335 0.076145 0.123232 0.130006
H38   H     H_    0.867108 0.098700 0.173145 0.178558
N14   N     N_3   0.196676 0.767711 0.395483 -0.598896
H39   H     H_    0.129988 0.839036 0.391619 0.227682
H40   H     H_    0.186268 0.711422 0.376845 0.227872
N15   N     N_3   0.535928 0.763965 0.422144 -0.608444
H41   H     H_    0.605570 0.705052 0.411164 0.229132
H42   H     H_    0.537478 0.834338 0.423832 0.220951
N16   N     N_3   0.173074 0.832507 0.068955 -0.606231
H43   H     H_    0.139193 0.800521 0.084970 0.212438
H44   H     H_    0.211164 0.777923 0.045621 0.226165
N17   N     N_3   0.530930 0.801011 0.339450 -0.600489
H45   H     H_    0.538717 0.861259 0.356055 0.229335
H46   H     H_    0.599752 0.731593 0.343413 0.227980
N18   N     N_3   0.192799 0.526735 0.577927 -0.658383
H47   H     H_    0.214794 0.582921 0.574659 0.264189
H48   H     H_    0.181971 0.493881 0.549723 0.235828
C100  C     C_3   0.149343 0.526947 0.658681 -0.227094
C101  C     C_3   0.058425 0.506750 0.643139 -0.290384
C102  C     C_3   0.956314 0.593320 0.658780 -0.464782
H49   H     H_    0.959226 0.596269 0.692281 0.150219
H50   H     H_    0.941352 0.669322 0.649066 0.153664
H51   H     H_    0.890965 0.579188 0.646498 0.139882
H52   H     H_    0.051230 0.502174 0.609619 0.195661
H53   H     H_    0.072314 0.431731 0.653589 0.161827
H54   H     H_    0.151160 0.533051 0.691947 0.158258
H55   H     H_    0.133899 0.604095 0.649994 0.153732
N19   N     N_3   0.497545 0.194979 0.834420 -0.607927
H56   H     H_    0.533313 0.239968 0.831126 0.232805
H57   H     H_    0.548765 0.135618 0.852855 0.217676
N20   N     N_3   0.958297 0.116288 0.792562 -0.644845
H58   H     H_    0.989246 0.048671 0.808133 0.221269
H59   H     H_    0.019509 0.112758 0.777905 0.232994
C103  C     C_3   0.702762 0.243539 0.684108 -0.255360
C104  C     C_3   0.734305 0.136098 0.662698 -0.311615
C105  C     C_3   0.719835 0.065689 0.688931 -0.451921
H60   H     H_    0.770860 0.052010 0.717097 0.165871
H61   H     H_    0.637793 0.101217 0.696984 0.165561
H62   H     H_    0.740739 0.989875 0.672131 0.138458
H63   H     H_    0.686273 0.144089 0.633989 0.150334
H64   H     H_    0.816816 0.098931 0.655104 0.168613
H65   H     H_    0.730257 0.233886 0.716393 0.170950
H66   H     H_    0.616547 0.289014 0.683279 0.148099
N21   N     N_3   0.821937 0.473545 0.901559 -0.604897
H67   H     H_    0.740975 0.515842 0.897568 0.225395
H68   H     H_    0.852859 0.519097 0.893309 0.226427
N22   N     N_3   0.558541 0.721359 0.612809 -0.585523
H69   H     H_    0.614924 0.712660 0.636137 0.215334
H70   H     H_    0.548807 0.782398 0.596420 0.226118
N23   N     N_3   0.187646 0.811280 0.592461 -0.610884
H71   H     H_    0.160690 0.759487 0.596833 0.225603
H72   H     H_    0.129513 0.887127 0.598656 0.227602
C106  C     C_3   0.198066 0.781448 0.800355 -0.256249
C107  C     C_3   0.121104 0.763969 0.822014 -0.308976
C108  C     C_3   0.067400 0.715158 0.792814 -0.452752
H73   H     H_    0.023146 0.766818 0.767949 0.145525
H74   H     H_    0.125511 0.638962 0.779776 0.184734
H75   H     H_    0.012468 0.703105 0.809178 0.139969
H76   H     H_    0.163060 0.711516 0.846893 0.168990
H77   H     H_    0.060318 0.839339 0.834664 0.154819
H78   H     H_    0.153965 0.834384 0.775960 0.139714
H79   H     H_    0.254656 0.705739 0.786235 0.170537
C109  C     C_3   0.168099 0.833314 0.680052 -0.249754
C110  C     C_3   0.104154 0.949767 0.690705 -0.299122
C111  C     C_3   0.999061 0.975570 0.705354 -0.463136
H80   H     H_    0.956758 0.947274 0.682390 0.146475
H81   H     H_    0.009182 0.938928 0.734013 0.158449
H82   H     H_    0.951850 0.060823 0.710518 0.178579
H83   H     H_    0.146708 0.975273 0.714722 0.174153
H84   H     H_    0.090802 0.993527 0.663612 0.165516
H85   H     H_    0.120145 0.806938 0.659507 0.131740
H86   H     H_    0.185767 0.789213 0.707334 0.140004
N24   N     N_3   0.184664 0.487039 0.403153 -0.664986
H87   H     H_    0.190528 0.446333 0.427979 0.232707
H88   H     H_    0.192186 0.552888 0.412824 0.260268
C112  C     C_3   0.146726 0.480110 0.095299 -0.243119
C113  C     C_3   0.103517 0.589915 0.115890 -0.321743
C114  C     C_3   0.034917 0.671532 0.086041 -0.458178
H89   H     H_    0.080503 0.667575 0.060758 0.150790
H90   H     H_    0.968324 0.659203 0.073679 0.155874
H91   H     H_    0.004006 0.749930 0.101686 0.143730
H92   H     H_    0.055016 0.598173 0.140835 0.157912
H93   H     H_    0.168661 0.604758 0.128238 0.169264
H94   H     H_    0.185356 0.478804 0.068132 0.152458
H95   H     H_    0.080060 0.465653 0.085403 0.172606
C115  C     C_3   0.133000 0.470624 0.312889 -0.230274
C116  C     C_3   0.038317 0.533670 0.338348 -0.289161
C117  C     C_3   0.937689 0.578342 0.311508 -0.465030
H96   H     H_    0.938746 0.630832 0.290206 0.158452
H97   H     H_    0.927622 0.515083 0.294023 0.174571
H98   H     H_    0.870422 0.623368 0.330568 0.143402
H99   H     H_    0.033490 0.483143 0.359603 0.197674
H100  H     H_    0.044247 0.599843 0.355216 0.189734
H101  H     H_    0.135777 0.523726 0.292282 0.138432
H102  H     H_    0.118238 0.412034 0.293743 0.150599

loop_
_geom_bond_atom_site_label_1
_geom_bond_atom_site_label_2
_ccdc_geom_bond_type
C25   N13   S    
C8    C9    A    
C7    C13   A    
C66   C68   A    
C112  H95   S    
C111  H81   S    
C40   C41   A    
C55   C59   A    
C7    C112  S    
C100  H54   S    
C52   N3    A    
C41   C42   A    
C74   C94   S    
C36   C42   S    
C84   C90   A    
C105  H62   S    
C21   N6    A    
C75   C76   A    
N21   H67   S    
C6    H1    S    
Cr2   O20   S    
C82   C86   A    
C7    C8    A    
C40   H10   S    
C55   H17   S    
C97   C98   S    
C110  C111  S    
C25   C28   A    
C103  C104  S    
C57   N19   S    
C26   C27   A    
N19   H56   S    
C37   N10   A    
C33   N17   S    
C95   O16   A    
C64   C103  S    
Cr5   O19   S    
C105  H61   S    
C38   C42   A    
Cr3   O5    S    
N14   H40   S    
C5    C6    A    
C89   C115  S    
N1    N5    A    
N13   H30   S    
C68   C74   A    
C109  C110  S    
C84   H27   S    
C101  H53   S    
C96   O18   A    
C4    H22   S    
N16   H44   S    
C113  C114  S    
C30   N14   S    
C20   N7    A    
C1    O12   A    
C36   N11   A    
C18   H5    S    
C115  H101  S    
C103  H65   S    
C91   O7    A    
C43   C93   S    
C98   C99   S    
Cr2   O26   S    
C51   N4    A    
Cr4   O14   S    
C40   C43   A    
C47   C48   A    
C113  H92   S    
C16   C17   A    
C37   N9    A    
C35   N15   S    
C92   O9    A    
C108  H73   S    
C47   C100  S    
C100  C101  S    
C65   H19   S    
Cr2   O2    S    
C3    H15   S    
C106  C107  S    
Cr6   O11   S    
C21   N5    A    
C16   H4    S    
C34   C75   S    
C72   C73   T    
Cr3   O23   S    
Cr4   O13   S    
C97   H37   S    
C101  C102  S    
C94   O15   A    
C77   C109  S    
C111  H80   S    
C112  C113  S    
C52   N2    A    
C108  H74   S    
N16   H43   S    
C67   C78   A    
C59   C95   S    
C20   N1    A    
C4    C67   A    
C34   O25   A    
C2    C11   S    
C104  H64   S    
C79   C88   S    
C44   C46   A    
C17   C18   A    
C99   H34   S    
C54   C59   A    
C77   C79   A    
C78   C89   A    
C38   C39   A    
C12   C67   S    
N2    N12   A    
C109  H85   S    
C110  H83   S    
C45   O3    A    
C46   N18   S    
C84   C85   A    
C99   H33   S    
C10   C11   T    
Cr6   O17   S    
C12   O22   A    
N24   H88   S    
C53   H16   S    
C18   C19   A    
C39   C43   A    
Cr1   O5    S    
C63   C73   S    
C26   C97   S    
Cr4   O7    S    
C25   C26   A    
C85   C86   A    
Cr5   O8    S    
N23   H71   S    
C17   C21   S    
C63   C64   A    
C32   C33   A    
N21   H68   S    
C61   H20   S    
C50   H12   S    
N17   H46   S    
C14   C23   S    
C2    C89   A    
C114  H90   S    
N14   H39   S    
Cr1   O1    S    
C5    C9    A    
C62   C63   A    
C45   O2    A    
C12   O21   A    
C23   O23   A    
C116  H99   S    
N22   H69   S    
C117  H98   S    
C91   O8    A    
C115  H102  S    
Cr6   O19   S    
C54   H13   S    
C1    C29   S    
C93   O6    A    
C69   C74   A    
C51   C58   S    
C107  H77   S    
C32   C37   S    
C105  H60   S    
N23   H72   S    
Cr6   O10   S    
C1    O20   A    
C92   O10   A    
C34   O26   A    
C110  H84   S    
C66   C71   A    
N15   H41   S    
C5    H7    S    
C106  H78   S    
C48   C49   A    
N22   H70   S    
Cr3   O3    S    
C117  H97   S    
Cr5   O15   S    
C82   C83   A    
C94   O14   A    
C22   C27   A    
C55   C57   A    
C13   C92   S    
C8    H28   S    
C101  H52   S    
C108  H75   S    
C85   C106  S    
C23   O1    A    
C114  H91   S    
C107  C108  S    
C96   O13   A    
C83   H24   S    
C53   C54   A    
C3    C4    A    
C98   H36   S    
C70   C71   A    
C44   C45   S    
N8    N9    A    
C86   C87   S    
C9    C10   S    
C44   C50   A    
C83   C90   A    
Cr3   O4    S    
C46   C47   A    
C116  H100  S    
C109  H86   S    
C81   N22   S    
N20   H59   S    
C100  H55   S    
C113  H93   S    
C78   N24   S    
C14   C19   A    
C31   C32   A    
C75   C81   A    
C24   C28   A    
C41   H11   S    
C80   C81   A    
C19   H2    S    
C93   O11   A    
C97   H38   S    
C62   H23   S    
Cr2   O21   S    
C53   C58   A    
C90   C96   S    
N3    N4    A    
C20   C27   S    
C51   N12   A    
Cr4   O6    S    
N18   H47   S    
Cr1   O25   S    
C60   C65   A    
N6    N7    A    
C29   C35   A    
Cr5   O9    S    
C116  C117  S    
N17   H45   S    
C69   N21   S    
C56   O4    A    
C112  H94   S    
C2    C3    A    
N24   H87   S    
C80   H26   S    
C71   C72   S    
C99   H32   S    
Cr1   O24   S    
N10   N11   A    
C64   C65   A    
C6    C13   A    
C76   N23   S    
C76   C77   A    
C57   C58   A    
C30   C31   A    
Cr2   O5    S    
C102  H49   S    
C102  H51   S    
C22   H6    S    
C56   O24   A    
N20   H58   S    
C33   C35   A    
C31   H8    S    
C114  H89   S    
C28   C91   S    
C22   C24   A    
C107  H76   S    
Cr1   O12   S    
C104  C105  S    
C61   C62   A    
C36   N8    A    
C69   C70   A    
C82   H25   S    
C103  H66   S    
C70   H21   S    
C29   C30   A    
C79   C80   A    
C38   H9    S    
C56   C60   S    
C106  H79   S    
C48   C52   S    
C49   H14   S    
C15   H29   S    
C117  H96   S    
Cr5   O16   S    
C87   C88   T    
N19   H57   S    
C49   C50   A    
C111  H82   S    
C115  C116  S    
C39   N16   S    
Cr6   O18   S    
C14   C15   A    
C60   C61   A    
Cr4   O19   S    
C24   H3    S    
N13   H31   S    
N18   H48   S    
C66   N20   S    
C104  H63   S    
N15   H42   S    
C98   H35   S    
C102  H50   S    
C68   H18   S    
C95   O17   A    
C15   C16   A    
Cr3   O22   S    
