data_mof_unit_13781.cif
_audit_creation_date              2012-12-11T14:57:53-0500
_audit_creation_method            fapswitch 2.2
_symmetry_space_group_name_H-M    P1
_symmetry_Int_Tables_number       1
_space_group_crystal_system       triclinic
_cell_length_a                    6.937892
_cell_length_b                    16.734207
_cell_length_c                    17.084045
_cell_angle_alpha                 100.464552
_cell_angle_beta                  91.784428
_cell_angle_gamma                 89.387277
_cell_volume                      1949.49825682

loop_
_atom_site_label
_atom_site_type_symbol
_atom_type_description
_atom_site_fract_x
_atom_site_fract_y
_atom_site_fract_z
_atom_type_partial_charge
O1    O     O_R   0.506180 0.438940 0.579430 -0.518228
O2    O     O_R   0.170520 0.406230 0.413590 -0.527916
O3    O     O_R   0.005180 0.561060 0.420570 -0.530303
C1    C     C_R   0.338707 0.383038 0.385253 0.924922
O4    O     O_R   0.176140 0.429310 0.578370 -0.501920
O5    O     O_R   0.010830 0.584300 0.586530 -0.545605
C2    C     C_R   0.348095 0.414528 0.605672 0.948901
O6    O     O_R   0.500520 0.415700 0.413470 -0.542762
O7    O     O_3   0.340830 0.550820 0.502480 -0.389260
V1    V     V_3+5 0.064040 0.490570 0.499540 1.706193
O8    O     O_R   0.681400 0.593770 0.586410 -0.528555
C3    C     C_R   0.851767 0.616622 0.614802 0.925818
O9    O     O_R   0.675790 0.570690 0.421630 -0.505989
C4    C     C_R   0.840561 0.585862 0.394162 0.839538
V2    V     V_3+5 0.564650 0.509430 0.500460 1.708630
O10   O     O_3   0.837730 0.449180 0.497520 -0.371686
C5    C     C_R   0.931693 0.859470 0.166130 -0.309629
C6    C     C_R   0.833981 0.638746 0.332480 -0.144804
C7    C     C_R   0.648651 0.695583 0.231069 -0.126220
C8    C     C_R   0.666135 0.640816 0.283739 0.594624
C9    C     C_R   0.985777 0.691828 0.325456 -0.101812
C10   C     C_R   0.967776 0.747670 0.272719 -0.038686
C11   C     C_R   0.797456 0.749991 0.225307 -0.060848
C12   C     C_R   0.779590 0.805998 0.172553 0.571706
C13   C     C_R   0.099371 0.857159 0.215043 0.603146
C14   C     C_R   0.116649 0.801971 0.267341 -0.175277
C15   C     C_R   0.796643 0.912349 0.725691 0.645897
C16   C     C_R   0.742892 0.926805 0.650444 -0.189319
C17   C     C_R   0.733149 0.863508 0.586039 -0.233896
C18   C     C_R   0.775148 0.784412 0.595767 0.562919
C19   C     C_R   0.826247 0.766324 0.672210 -0.122009
C20   C     C_R   0.839881 0.832098 0.738558 -0.122819
C21   C     C_R   0.867031 0.685262 0.683315 -0.144749
C22   C     C_R   0.925962 0.670054 0.760029 -0.073773
C23   C     C_R   0.941624 0.736111 0.825572 -0.003316
C24   C     C_R   0.899090 0.816583 0.814983 -0.104073
C25   C     C_R   0.968218 0.590118 0.774245 0.623220
C26   C     C_R   0.023881 0.577010 0.849984 -0.080449
C27   C     C_R   0.037823 0.641483 0.913416 -0.175914
C28   C     C_R   0.996731 0.719995 0.901814 -0.150690
H1    H     H_    0.710665 0.988142 0.641834 0.207163
C29   C     C_R   0.443788 0.217701 0.405931 0.517009
C30   C     C_R   0.507074 0.140962 0.416588 -0.188590
C31   C     C_R   0.541355 0.080468 0.351432 0.635619
C32   C     C_R   0.511652 0.095944 0.274728 -0.234350
C33   C     C_R   0.447737 0.173152 0.261325 -0.107041
C34   C     C_R   0.414091 0.236061 0.328199 -0.062596
C35   C     C_R   0.415588 0.187222 0.182582 -0.037707
C36   C     C_R   0.351932 0.265331 0.170149 -0.115200
C37   C     C_R   0.317883 0.328871 0.236890 -0.235965
C38   C     C_R   0.350250 0.314359 0.316059 -0.080338
C39   C     C_R   0.323226 0.282535 0.092030 0.538381
C40   C     C_R   0.260431 0.358706 0.080130 -0.297127
C41   C     C_R   0.225371 0.419876 0.144381 0.578141
C42   C     C_R   0.253637 0.406083 0.221856 0.514716
C43   C     C_R   0.394632 0.135993 0.831485 -0.391995
C44   C     C_R   0.371041 0.364023 0.668622 -0.385734
C45   C     C_R   0.550398 0.335740 0.785854 0.703971
C46   C     C_R   0.509122 0.386151 0.730546 0.450118
C47   C     C_R   0.269697 0.290877 0.664074 0.710399
C48   C     C_R   0.311423 0.238798 0.719373 -0.372764
C49   C     C_R   0.454266 0.261199 0.780711 -0.373776
C50   C     C_R   0.496104 0.209098 0.835973 0.712482
C51   C     C_R   0.256377 0.113901 0.769620 0.450715
C52   C     C_R   0.215176 0.164285 0.714276 0.703662
O11   O     O_R   0.265840 0.084300 0.086750 -0.534833
O12   O     O_R   0.589750 0.070740 0.921690 -0.494763
O13   O     O_R   0.755020 0.915730 0.913400 -0.534977
C53   C     C_R   0.417732 0.085471 0.894417 0.970946
O14   O     O_R   0.595830 0.093740 0.086480 -0.548240
O15   O     O_R   0.761150 0.938890 0.079360 -0.521381
C54   C     C_R   0.427553 0.117432 0.114368 0.796872
O16   O     O_R   0.259710 0.061140 0.920790 -0.511161
O17   O     O_3   0.425260 0.949200 0.997610 -0.379046
V3    V     V_3+5 0.702060 0.009430 0.000450 1.679470
O18   O     O_R   0.090530 0.929220 0.078150 -0.523272
C55   C     C_R   0.925648 0.913267 0.105086 0.760598
O19   O     O_R   0.084440 0.906220 0.913360 -0.549585
C56   C     C_R   0.914092 0.884087 0.884543 0.803335
V4    V     V_3+5 0.201450 0.990520 0.999290 1.663271
O20   O     O_3   0.928380 0.050800 0.002390 -0.360544
F1    F     F_    0.617679 0.806304 0.125696 -0.653768
H2    H     H_    0.694074 0.875935 0.527542 0.207570
F2    F     F_    0.768717 0.727073 0.528697 -0.730792
F3    F     F_    0.955439 0.523162 0.716280 -0.661656
H3    H     H_    0.055402 0.515956 0.859621 0.184723
H4    H     H_    0.007758 0.767691 0.953735 0.113282
F4    F     F_    0.164206 0.493810 0.131497 -0.608175
F5    F     F_    0.408443 0.272344 0.472791 -0.692358
H5    H     H_    0.528627 0.128250 0.476189 0.195739
F6    F     F_    0.602532 0.005982 0.362567 -0.640288
H6    H     H_    0.539804 0.046487 0.226088 0.173689
F7    F     F_    0.247977 0.908782 0.212767 -0.635918
F8    F     F_    0.359243 0.227121 0.025821 -0.675716
H7    H     H_    0.239681 0.370481 0.020151 0.219805
F9    F     F_    0.215803 0.469475 0.281076 -0.635841
F10   F     F_    0.629406 0.230536 0.895903 -0.569314
F11   F     F_    0.161387 0.042338 0.762283 -0.613052
F12   F     F_    0.685975 0.360286 0.844077 -0.569520
F13   F     F_    0.079488 0.139766 0.656093 -0.571133
F14   F     F_    0.603890 0.457769 0.737968 -0.614365
F15   F     F_    0.136688 0.269372 0.604044 -0.572029
H8    H     H_    0.517147 0.695496 0.195136 0.206536
H9    H     H_    0.247606 0.801626 0.303582 0.175815
F16   F     F_    0.517393 0.589499 0.286662 -0.633621
H10   H     H_    0.115114 0.691464 0.362685 0.167334
H11   H     H_    0.079881 0.630575 0.972150 0.188783
F17   F     F_    0.807045 0.978506 0.784648 -0.646623

loop_
_geom_bond_atom_site_label_1
_geom_bond_atom_site_label_2
_ccdc_geom_bond_type
C45   C49   A    
C41   F4    S    
C13   F7    S    
C40   H7    S    
C6    C9    A    
C4    C6    S    
O2    C1    A    
C7    C8    A    
C1    O6    A    
C32   C33   A    
C39   C40   A    
O13   V3    S    
C27   H11   S    
C25   C26   A    
C26   H3    S    
C20   C24   A    
C28   H4    S    
C25   F3    S    
C16   C17   A    
C17   H2    S    
O5    C3    A    
C26   C27   A    
V4    O20   S    
O19   V4    S    
C44   C46   A    
V2    O10   S    
C22   C25   A    
C16   H1    S    
C22   C23   A    
C32   H6    S    
C12   F1    S    
C14   H9    S    
C41   C42   A    
O8    V2    S    
O11   C54   A    
C23   C24   A    
C11   C12   A    
C19   C21   A    
C39   F8    S    
O1    V2    S    
O7    V1    S    
C9    H10   S    
O13   C56   A    
C51   F11   S    
O17   V4    S    
O9    C4    A    
C18   F2    S    
C7    H8    S    
C35   C54   S    
C47   F15   S    
C21   C22   A    
C33   C35   A    
C5    C12   A    
O17   V3    S    
C1    C38   S    
C30   H5    S    
O18   C55   A    
C27   C28   A    
O4    C2    A    
O19   C56   A    
V3    O20   S    
C44   C47   A    
C34   C38   A    
C45   C46   A    
C40   C41   A    
C47   C48   A    
O12   C53   A    
C46   F14   S    
C7    C11   A    
C30   C31   A    
C17   C18   A    
C19   C20   A    
C36   C39   A    
C49   C50   A    
C5    C55   S    
C37   C38   A    
C43   C50   A    
C53   O16   A    
C31   F6    S    
O3    C4    A    
C35   C36   A    
C43   C53   S    
O6    V2    S    
O9    V2    S    
O12   V3    S    
C29   C30   A    
O2    V1    S    
O15   C55   A    
C31   C32   A    
C8    F16   S    
C33   C34   A    
C15   C20   A    
O1    C2    A    
C45   F12   S    
O18   V4    S    
C52   F13   S    
C42   F9    S    
C24   C56   S    
O5    V1    S    
O8    C3    A    
O11   V4    S    
C37   C42   A    
C29   F5    S    
C5    C13   A    
C51   C52   A    
C23   C28   A    
C13   C14   A    
O4    V1    S    
C50   F10   S    
O3    V1    S    
V1    O10   S    
O15   V3    S    
C43   C51   A    
C18   C19   A    
C15   F17   S    
O16   V4    S    
C6    C8    A    
C29   C34   A    
O7    V2    S    
C48   C49   A    
C48   C52   A    
C36   C37   A    
C10   C14   A    
O14   V3    S    
C10   C11   A    
O14   C54   A    
C3    C21   S    
C9    C10   A    
C2    C44   S    
C15   C16   A    
