data_mof_unit_34975.cif
_audit_creation_date              2013-03-05T16:31:06-0500
_audit_creation_method            fapswitch 2.2
_symmetry_space_group_name_H-M    P1
_symmetry_Int_Tables_number       1
_space_group_crystal_system       triclinic
_cell_length_a                    10.891848
_cell_length_b                    10.936332
_cell_length_c                    9.574582
_cell_angle_alpha                 90.438725
_cell_angle_beta                  89.550541
_cell_angle_gamma                 91.125233
_cell_volume                      1140.20707265

loop_
_atom_site_label
_atom_site_type_symbol
_atom_site_description
_atom_site_fract_x
_atom_site_fract_y
_atom_site_fract_z
_atom_type_partial_charge
O1    O     O_R   0.500000 0.319640 0.618810 -0.599587
O2    O     O_R   0.500010 0.319680 0.381230 -0.597968
C1    C     C_R   0.491768 0.263242 0.499528 0.808685
O3    O     O_R   0.319640 0.499980 0.618820 -0.597052
O4    O     O_R   0.319650 0.500020 0.381230 -0.552588
C2    C     C_R   0.262177 0.509972 0.501521 0.819899
Cu1   Cu    Cu3+1 0.499990 0.499980 0.640670 0.996106
Cu2   Cu    Cu3+1 0.500010 0.500020 0.359330 1.020892
O5    O     O_R   0.499990 0.680320 0.618770 -0.546213
O6    O     O_R   0.500000 0.680360 0.381190 -0.540509
O7    O     O_R   0.680350 0.499980 0.618770 -0.552302
O8    O     O_R   0.680360 0.500020 0.381180 -0.600392
C3    C     C_R   0.494225 0.738389 0.499699 0.875063
C4    C     C_R   0.737327 0.490586 0.499035 0.857157
C5    C     C_R   0.105093 0.490601 0.763798 0.127349
C6    C     C_R   0.061596 0.406616 0.862853 -0.110907
H1    H     H_    0.099178 0.406238 0.967194 0.167700
C7    C     C_R   0.960838 0.330941 0.831896 -0.100743
H2    H     H_    0.928601 0.265544 0.909000 0.167509
C8    C     C_R   0.894644 0.348101 0.708407 0.176292
C9    C     C_R   0.939194 0.435092 0.609235 0.105659
C10   C     C_R   0.059250 0.482456 0.626526 0.021303
C11   C     C_R   0.126619 0.521422 0.506837 -0.237969
C12   C     C_R   0.061629 0.552643 0.386123 0.323114
H3    H     H_    0.884850 0.570495 0.296298 0.195061
C13   C     C_R   0.934729 0.535259 0.383676 -0.225846
C14   C     C_R   0.871673 0.479560 0.495159 -0.148365
C15   C     C_R   0.441347 0.066537 0.616426 -0.006439
C16   C     C_R   0.470199 0.131850 0.496708 -0.113738
C17   C     C_R   0.475603 0.067685 0.370661 -0.217248
H4    H     H_    0.485092 0.116942 0.273273 0.204346
C18   C     C_R   0.475842 0.939573 0.367746 0.354241
C19   C     C_R   0.475070 0.872537 0.495898 -0.184104
C20   C     C_R   0.448643 0.940409 0.617999 -0.029833
C21   C     C_3   0.497324 0.947470 0.765361 0.570710
C22   C     C_3   0.480730 0.085641 0.762568 -0.463552
H5    H     H_    0.404808 0.122934 0.826970 0.211652
H6    H     H_    0.567865 0.138808 0.771085 0.204372
C23   C     C_R   0.603476 0.531577 0.073383 0.178556
N1    N     N_R   0.500790 0.500930 0.147930 -0.170647
C24   C     C_R   0.405163 0.449138 0.074646 0.016111
H7    H     H_    0.326981 0.410281 0.129986 0.139326
C25   C     C_R   0.406534 0.446863 0.925861 -0.065077
H8    H     H_    0.330771 0.404266 0.870697 0.133634
N2    N     N_R   0.500790 0.500890 0.852020 -0.188993
C26   C     C_R   0.604881 0.528931 0.925956 0.147438
C27   C     C_3   0.676170 0.646271 0.921717 0.192765
C28   C     C_3   0.670312 0.650622 0.080288 -0.437346
H9    H     H_    0.625656 0.717244 0.868395 0.205191
H10   H     H_    0.759375 0.645407 0.134324 0.221989
H11   H     H_    0.611265 0.722632 0.120890 0.261125
N3    N     N_R   0.120432 0.617335 0.273758 0.140858
O9    O     O_R   0.191891 0.710707 0.302005 -0.294258
O10   O     O_R   0.083373 0.600422 0.146142 -0.355991
N4    N     N_R   0.627939 0.919183 0.778554 0.084630
O11   O     O_R   0.692814 0.887794 0.669793 -0.355085
O12   O     O_R   0.684965 0.947600 0.893496 -0.304746
N5    N     N_R   0.800766 0.631090 0.868399 0.149535
O13   O     O_R   0.879363 0.569771 0.939501 -0.377491
O14   O     O_R   0.838160 0.691353 0.759044 -0.295026
C29   C     C_3   0.161444 0.609849 0.815345 -0.510120
H12   H     H_    0.088106 0.667100 0.860678 0.288633
H13   H     H_    0.228819 0.595121 0.898653 0.241019
H14   H     H_    0.204730 0.664289 0.730363 0.221727
C30   C     C_3   0.786429 0.263963 0.682743 -0.794327
H15   H     H_    0.709688 0.292766 0.751295 0.246939
H16   H     H_    0.757923 0.262751 0.571917 0.208151
H17   H     H_    0.810204 0.168531 0.708856 0.261628
N6    N     N_R   0.484428 0.883087 0.233128 0.115933
O15   O     O_R   0.396943 0.809398 0.191312 -0.229952
O16   O     O_R   0.556533 0.933010 0.139856 -0.334049
N7    N     N_R   0.417412 0.883190 0.866439 0.146061
O17   O     O_R   0.408369 0.764682 0.863643 -0.374584
O18   O     O_R   0.344456 0.943070 0.949437 -0.295315

loop_
_geom_bond_atom_site_label_1
_geom_bond_atom_site_label_2
_geom_bond_distance
_ccdc_geom_bond_type
C12   N3    1.432216 S    
N4    O11   1.301555 A    
C24   H7    1.081028 S    
C21   C22   1.525833 S    
Cu1   Cu2   2.693715 S    
C27   H9    1.092283 S    
N2    C26   1.369732 A    
Cu1   O7    1.973976 S    
C13   C14   1.401473 A    
Cu1   N2    2.023623 S    
C15   C16   1.385968 A    
C12   C13   1.391842 A    
C7    H2    1.083487 S    
O4    C2    1.311350 A    
O7    C4    1.303638 A    
N5    O14   1.299932 A    
C5    C6    1.398839 A    
C29   H13   1.102938 S    
C20   C21   1.512048 S    
N6    O16   1.300776 A    
O5    C3    1.311770 A    
C28   H11   1.093721 S    
C6    H1    1.082664 S    
C30   H16   1.107849 S    
C11   C12   1.407788 A    
C4    C14   1.470750 S    
C28   H10   1.105646 S    
C9    C14   1.416018 A    
C15   C20   1.383420 A    
C9    C10   1.407520 A    
C24   C25   1.424550 A    
N6    O15   1.299465 A    
O3    Cu1   1.977084 S    
N3    O10   1.300556 A    
C5    C10   1.411187 A    
C21   N4    1.468425 S    
C8    C30   1.501599 S    
N7    O18   1.301669 A    
C23   N1    1.359821 A    
N5    O13   1.297954 A    
O1    C1    1.296707 A    
C29   H14   1.108678 S    
C25   H8    1.079312 S    
C3    C19   1.486653 S    
C16   C17   1.392809 A    
C27   C28   1.519512 S    
Cu2   O8    1.977086 S    
C30   H17   1.111061 S    
C19   C20   1.410798 A    
C5    C29   1.511466 S    
C25   N2    1.368974 A    
C23   C26   1.411603 A    
Cu2   O6    1.981741 S    
N1    C24   1.371201 A    
O8    C4    1.297779 A    
C21   N7    1.470215 S    
N4    O12   1.300551 A    
O3    C2    1.296372 A    
N3    O9    1.299822 A    
Cu1   O5    1.984969 S    
C26   C27   1.487442 S    
C22   H5    1.109863 S    
O1    Cu1   1.981740 S    
O2    Cu2   1.984970 S    
N7    O17   1.297936 A    
O6    C3    1.297546 A    
O4    Cu2   1.973976 S    
C18   N6    1.428231 S    
C18   C19   1.434040 A    
C22   H6    1.106457 S    
O2    C1    1.295705 A    
H3    C13   1.078822 S    
C27   N5    1.458263 S    
C17   C18   1.401186 A    
C1    C16   1.451545 S    
C17   H4    1.083667 S    
C2    C11   1.484673 S    
C7    C8    1.405377 A    
C29   H12   1.108397 S    
C8    C9    1.424997 A    
C15   C22   1.478846 S    
C6    C7    1.393862 A    
C30   H15   1.107810 S    
C10   C11   1.419607 A    
Cu2   N1    2.024117 S    
C23   C28   1.480374 S    
