data_mof_unit_8099.cif
_audit_creation_date              2012-12-10T17:47:43-0500
_audit_creation_method            fapswitch 2.2
_symmetry_space_group_name_H-M    P1
_symmetry_Int_Tables_number       1
_space_group_crystal_system       triclinic
_cell_length_a                    14.778432
_cell_length_b                    14.812433
_cell_length_c                    14.353615
_cell_angle_alpha                 76.537839
_cell_angle_beta                  102.875259
_cell_angle_gamma                 115.646447
_cell_volume                      2727.86197907

loop_
_atom_site_label
_atom_site_type_symbol
_atom_type_description
_atom_site_fract_x
_atom_site_fract_y
_atom_site_fract_z
_atom_type_partial_charge
C1    C     C_R   0.879952 0.312144 0.515105 0.780624
C2    C     C_R   0.120030 0.687797 0.486590 0.783990
C3    C     C_R   0.635566 0.084059 0.542144 0.062503
C4    C     C_R   0.355523 0.930740 0.515541 0.071749
C5    C     C_R   0.670244 0.015370 0.610406 0.032094
C6    C     C_R   0.317100 0.003000 0.463305 0.047877
C7    C     C_R   0.529071 0.062099 0.520870 -0.082935
C8    C     C_R   0.459770 0.963174 0.556245 -0.092204
C9    C     C_R   0.496417 0.900192 0.631432 -0.136622
C10   C     C_R   0.487693 0.135072 0.470669 -0.096586
C11   C     C_R   0.600657 0.922514 0.651901 0.402353
C12   C     C_R   0.382156 0.105356 0.447508 0.408418
C13   C     C_R   0.682151 0.600924 0.307399 -0.191373
C14   C     C_R   0.284421 0.338510 0.672349 -0.166884
C15   C     C_R   0.778512 0.603657 0.348281 0.531850
C16   C     C_R   0.200756 0.365046 0.636700 0.530436
C17   C     C_R   0.727759 0.538073 0.503774 0.675238
C18   C     C_R   0.288205 0.488259 0.511539 0.640040
C19   C     C_R   0.624848 0.523432 0.466544 -0.108254
C20   C     C_R   0.369781 0.455335 0.538804 -0.141259
C21   C     C_R   0.603756 0.556285 0.365767 -0.166264
C22   C     C_R   0.372136 0.389729 0.626653 -0.128320
C23   C     C_R   0.000496 0.499949 0.668831 0.808284
C24   C     C_R   0.999626 0.500351 0.331117 0.806153
C25   C     C_R   0.542416 0.477789 0.523685 -0.029238
C26   C     C_R   0.446759 0.482344 0.480451 -0.086102
C27   C     C_R   0.425015 0.499033 0.378546 0.522131
C28   C     C_R   0.546845 0.418949 0.617658 0.524124
C29   C     C_R   0.504017 0.539531 0.323452 -0.187169
C30   C     C_R   0.459583 0.371264 0.663578 -0.261913
C31   C     C_1   0.001218 0.499955 0.771388 -0.191071
C32   C     C_1   0.998860 0.500676 0.228458 -0.133884
C33   C     C_1   0.000980 0.500047 0.856745 -0.014950
C34   C     C_1   0.999005 0.500663 0.143046 0.017926
C35   C     C_1   0.000281 0.500253 0.957255 0.011870
C36   C     C_1   0.999630 0.500463 0.042504 0.016959
C37   C     C_R   0.812093 0.204425 0.536617 -0.060368
C38   C     C_R   0.187097 0.796439 0.481452 -0.042913
C39   C     C_R   0.775144 0.042826 0.640327 -0.160432
C40   C     C_R   0.213322 0.972003 0.427706 -0.149001
C41   C     C_R   0.845009 0.138014 0.606457 -0.198996
C42   C     C_R   0.148949 0.870067 0.438744 -0.209395
C43   C     C_R   0.709844 0.171723 0.497407 -0.138791
C44   C     C_R   0.289655 0.827223 0.519889 -0.176781
Cu1   Cu    Cu3+1 0.081740 0.475690 0.523180 1.018774
Cu2   Cu    Cu3+1 0.918260 0.524310 0.476820 1.030300
H1    H     H_    0.317614 0.769365 0.551414 0.132569
H2    H     H_    0.690805 0.217136 0.432397 0.141980
H3    H     H_    0.069788 0.849210 0.411545 0.143740
H4    H     H_    0.924075 0.160605 0.637124 0.206516
H5    H     H_    0.803483 0.993356 0.694511 0.188292
H6    H     H_    0.181449 0.026204 0.389692 0.177594
H7    H     H_    0.485386 0.556208 0.246114 0.181494
H8    H     H_    0.460299 0.316864 0.728000 0.190414
N1    N     N_R   0.795420 0.560790 0.441960 -0.280432
N2    N     N_R   0.204580 0.439210 0.558040 -0.263761
O1    O     O_R   0.977910 0.338120 0.530560 -0.538470
O2    O     O_R   0.022090 0.661880 0.469440 -0.572487
O3    O     O_R   0.839850 0.379180 0.491410 -0.546732
O4    O     O_R   0.160150 0.620820 0.508590 -0.551385
O5    O     O_R   0.069040 0.479460 0.643530 -0.552782
O6    O     O_R   0.930960 0.520540 0.356470 -0.510785
O7    O     O_R   0.930990 0.520530 0.604380 -0.506791
O8    O     O_R   0.069010 0.479470 0.395620 -0.526225
O9    O     O_3   0.635206 0.857391 0.720384 -0.543816
C45   C     C_3   0.646643 0.790973 0.671929 -0.267722
H9    H     H_    0.706019 0.832643 0.623484 0.127806
H10   H     H_    0.573942 0.746429 0.629712 0.167291
H11   H     H_    0.670970 0.736358 0.726638 0.196272
O10   O     O_3   0.342689 0.177178 0.404738 -0.576550
C46   C     C_3   0.317306 0.206977 0.478402 -0.311357
H12   H     H_    0.286065 0.264786 0.445274 0.202376
H13   H     H_    0.385350 0.241413 0.530646 0.183398
H14   H     H_    0.258115 0.142343 0.517333 0.177481
O11   O     O_3   0.325283 0.474422 0.333993 -0.550955
C47   C     C_3   0.300060 0.412102 0.263068 -0.298720
H15   H     H_    0.337220 0.357578 0.283133 0.205003
H16   H     H_    0.318936 0.459365 0.192040 0.175990
H17   H     H_    0.216969 0.366930 0.254707 0.191947
O12   O     O_3   0.626024 0.388039 0.653690 -0.506949
C48   C     C_3   0.659074 0.395778 0.753122 -0.174016
H18   H     H_    0.614980 0.324886 0.798639 0.146890
H19   H     H_    0.656092 0.462803 0.772918 0.139459
H20   H     H_    0.739329 0.404976 0.769737 0.201020
C49   C     C_2   0.430048 0.822412 0.701604 0.892729
O13   O     O_2   0.366830 0.839519 0.728472 -0.577979
O14   O     O_R   0.439740 0.730308 0.737250 -0.746526
H21   H     H_    0.389794 0.684112 0.783729 0.333302
C50   C     C_2   0.548760 0.245158 0.449235 0.854965
O15   O     O_2   0.608765 0.290671 0.513058 -0.556006
O16   O     O_R   0.537764 0.296467 0.355319 -0.728318
H22   H     H_    0.588036 0.369688 0.347774 0.326770
O17   O     O_3   0.291153 0.570019 0.439760 -0.502062
C51   C     C_3   0.375492 0.658802 0.463537 -0.279752
H23   H     H_    0.444738 0.665338 0.439827 0.157192
H24   H     H_    0.390373 0.663554 0.542213 0.133417
H25   H     H_    0.360145 0.725343 0.423105 0.187794
O18   O     O_3   0.764598 0.544630 0.599942 -0.524723
C52   C     C_3   0.800104 0.646547 0.612548 -0.359970
H26   H     H_    0.737954 0.673864 0.592252 0.129227
H27   H     H_    0.864007 0.696462 0.570739 0.168963
H28   H     H_    0.828945 0.651888 0.690202 0.196644
O19   O     O_3   0.111699 0.313238 0.677642 -0.551200
C53   C     C_3   0.126575 0.330217 0.774118 -0.241921
H29   H     H_    0.055066 0.327533 0.789372 0.172308
H30   H     H_    0.187685 0.405221 0.788086 0.145782
H31   H     H_    0.141234 0.268215 0.826049 0.178188
O20   O     O_3   0.857180 0.649695 0.293406 -0.516486
C54   C     C_3   0.894883 0.755768 0.288454 -0.268467
H32   H     H_    0.971640 0.790039 0.266539 0.183116
H33   H     H_    0.900796 0.778518 0.359069 0.116430
H34   H     H_    0.847202 0.787783 0.232218 0.171782
C55   C     C_2   0.665146 0.641021 0.202844 0.873946
O21   O     O_2   0.624496 0.700950 0.176323 -0.598901
O22   O     O_R   0.699218 0.612832 0.135327 -0.716414
H35   H     H_    0.684669 0.646002 0.066777 0.339340
C56   C     C_2   0.275505 0.251540 0.751189 0.849564
O23   O     O_2   0.212258 0.166819 0.738733 -0.575573
O24   O     O_R   0.337260 0.267107 0.840231 -0.776332
H36   H     H_    0.323340 0.202113 0.888296 0.339588

loop_
_geom_bond_atom_site_label_1
_geom_bond_atom_site_label_2
_ccdc_geom_bond_type
C7    C10   A    
C45   H10   S    
O14   H21   S    
Cu1   O4    S    
O17   C51   S    
Cu2   O3    S    
C27   C29   A    
C39   H5    S    
C35   C36   T    
C47   H17   S    
C4    C8    A    
C16   N2    A    
C48   H18   S    
C7    C8    A    
C39   C41   A    
Cu1   Cu2   S    
C25   C28   A    
C30   H8    S    
C3    C43   A    
C26   C27   A    
C20   C26   A    
Cu2   O6    S    
C19   C21   A    
C47   H16   S    
C5    C11   A    
C3    C7    A    
C1    O3    A    
C6    C12   A    
C2    O4    A    
C23   O7    A    
C45   H11   S    
O22   H35   S    
O20   C54   S    
C54   H33   S    
C9    C49   S    
Cu1   N2    S    
C8    C9    A    
Cu2   N1    S    
C31   C33   T    
O10   C46   S    
C14   C16   A    
C50   O16   S    
C43   H2    S    
C17   N1    A    
C18   C20   A    
C44   H1    S    
C18   N2    A    
C40   C42   A    
C45   H9    S    
C24   O8    A    
Cu2   O2    S    
C27   O11   S    
C53   H30   S    
C53   H29   S    
C48   H19   S    
C49   O14   S    
C47   H15   S    
C10   C50   S    
C4    C6    A    
C54   H34   S    
O16   H22   S    
C46   H13   S    
C17   C19   A    
C4    C44   A    
C51   H25   S    
C23   C31   S    
C25   C26   A    
C49   O13   D    
C21   C29   A    
C15   N1    A    
C15   O20   S    
C37   C43   A    
O11   C47   S    
C24   C32   S    
C38   C44   A    
C1    O1    A    
C2    C38   S    
C16   O19   S    
C52   H26   S    
C23   O5    A    
C14   C56   S    
Cu1   O1    S    
C13   C21   A    
C51   H24   S    
C9    C11   A    
C10   C12   A    
C52   H27   S    
C20   C22   A    
O9    C45   S    
C13   C15   A    
C6    C40   A    
C28   O12   S    
C41   H4    S    
C48   H20   S    
C55   O21   D    
C17   O18   S    
C5    C39   A    
C12   O10   S    
C24   O6    A    
C22   C30   A    
O12   C48   S    
C3    C5    A    
C46   H14   S    
O24   H36   S    
C2    O2    A    
C38   C42   A    
C1    C37   S    
Cu1   O8    S    
Cu2   O7    S    
C14   C22   A    
C56   O24   S    
C28   C30   A    
C40   H6    S    
C54   H32   S    
C29   H7    S    
Cu1   O5    S    
C33   C35   S    
C34   C36   S    
C37   C41   A    
C51   H23   S    
C19   C25   A    
C42   H3    S    
C46   H12   S    
C52   H28   S    
O18   C52   S    
O19   C53   S    
C18   O17   S    
C50   O15   D    
C56   O23   D    
C53   H31   S    
C13   C55   S    
C11   O9    S    
C32   C34   T    
C55   O22   S    
