data_mof_unit_56884.cif
_audit_creation_date              2012-12-10T18:05:40-0500
_audit_creation_method            fapswitch 2.2
_symmetry_space_group_name_H-M    P1
_symmetry_Int_Tables_number       1
_space_group_crystal_system       triclinic
_cell_length_a                    10.895988
_cell_length_b                    10.87981
_cell_length_c                    9.532292
_cell_angle_alpha                 89.055659
_cell_angle_beta                  91.487245
_cell_angle_gamma                 89.985495
_cell_volume                      1129.48338458

loop_
_atom_site_label
_atom_site_type_symbol
_atom_type_description
_atom_site_fract_x
_atom_site_fract_y
_atom_site_fract_z
_atom_type_partial_charge
C1    C     C_R   0.501627 0.262203 0.501397 0.792878
C2    C     C_R   0.498377 0.737797 0.498603 0.792872
C3    C     C_R   0.871818 0.501605 0.505663 -0.085357
C4    C     C_R   0.128182 0.498397 0.494337 -0.085356
C5    C     C_R   0.943069 0.470981 0.627132 -0.003348
C6    C     C_R   0.056931 0.529017 0.372867 -0.003353
C7    C     C_R   0.467079 0.068570 0.379978 -0.236182
C8    C     C_R   0.532933 0.931431 0.620022 -0.236179
C9    C     C_R   0.464645 0.941460 0.374821 -0.012273
C10   C     C_R   0.535371 0.058541 0.625178 -0.012278
C11   C     C_R   0.498061 0.871750 0.496255 -0.089127
C12   C     C_R   0.501950 0.128250 0.503746 -0.089126
C13   C     C_R   0.451758 0.403622 0.074538 0.001105
C14   C     C_R   0.548240 0.596378 0.925462 0.001080
C15   C     C_R   0.451575 0.403810 0.925965 0.004267
C16   C     C_R   0.548424 0.596191 0.074035 0.004264
C17   C     C_R   0.262131 0.499729 0.497858 0.790091
C18   C     C_R   0.737869 0.500271 0.502142 0.790089
C19   C     C_R   0.156168 0.697565 0.045778 -0.112993
C20   C     C_R   0.843905 0.302403 0.954232 -0.113002
C21   C     C_R   0.119468 0.675187 0.183338 -0.142995
C22   C     C_R   0.880594 0.324793 0.816670 -0.143043
C23   C     C_R   0.108167 0.553997 0.233830 0.138015
C24   C     C_R   0.891835 0.445985 0.766167 0.138023
C25   C     C_R   0.132170 0.455734 0.145300 -0.102991
C26   C     C_R   0.867787 0.544240 0.854692 -0.102951
C27   C     C_R   0.168703 0.478515 0.008141 -0.137602
C28   C     C_R   0.831271 0.521448 0.991854 -0.137588
C29   C     C_R   0.181666 0.599343 0.958532 -0.099926
C30   C     C_R   0.818363 0.400617 0.041472 -0.099901
C31   C     C_R   0.930169 0.531765 0.380987 -0.248202
C32   C     C_R   0.069830 0.468237 0.619012 -0.248202
Cu1   Cu    Cu3+1 0.500000 0.500020 0.640660 0.954302
Cu2   Cu    Cu3+1 0.500000 0.499980 0.359340 0.954307
H1    H     H_    0.210586 0.616999 0.852382 0.147356
H2    H     H_    0.789456 0.382952 0.147625 0.147338
H3    H     H_    0.410873 0.327451 0.870577 0.124866
H4    H     H_    0.589127 0.672548 0.129423 0.124874
H5    H     H_    0.164173 0.791031 0.006514 0.139206
H6    H     H_    0.835946 0.208936 0.993502 0.139182
H7    H     H_    0.098198 0.751802 0.249649 0.119719
H8    H     H_    0.901902 0.248185 0.750367 0.119726
H9    H     H_    0.120756 0.361755 0.181929 0.111176
H10   H     H_    0.879154 0.638221 0.818056 0.111166
H11   H     H_    0.187007 0.402029 0.940845 0.108514
H12   H     H_    0.812938 0.597927 0.059148 0.108505
H13   H     H_    0.876649 0.557818 0.288257 0.153047
H14   H     H_    0.123351 0.442181 0.711740 0.153044
H15   H     H_    0.440043 0.121235 0.286556 0.152725
H16   H     H_    0.559970 0.878765 0.713444 0.152723
H17   H     H_    0.411316 0.326907 0.129978 0.114496
H18   H     H_    0.588682 0.673094 0.870022 0.114496
N1    N     N_R   0.500030 0.500030 0.852070 -0.162745
N2    N     N_R   0.499970 0.499970 0.147930 -0.162744
O1    O     O_R   0.499990 0.319660 0.618740 -0.578742
O2    O     O_R   0.500010 0.680340 0.381260 -0.578741
O3    O     O_R   0.499990 0.319630 0.381170 -0.595924
O4    O     O_R   0.500010 0.680370 0.618830 -0.595924
O5    O     O_R   0.319650 0.500020 0.618780 -0.597879
O6    O     O_R   0.680350 0.499980 0.381220 -0.597874
O7    O     O_R   0.319640 0.500000 0.381210 -0.567933
O8    O     O_R   0.680360 0.500000 0.618790 -0.567941
C33   C     C_1   0.425388 0.887474 0.243735 0.236635
N3    N     N_1   0.394171 0.845409 0.138034 -0.314173
C34   C     C_1   0.574643 0.112530 0.756257 0.236638
N4    N     N_1   0.605872 0.154597 0.861953 -0.314130

loop_
_geom_bond_atom_site_label_1
_geom_bond_atom_site_label_2
_ccdc_geom_bond_type
Cu1   O1    S    
Cu2   O3    S    
C3    C31   A    
C16   H4    S    
C2    O4    A    
C14   H18   S    
Cu2   O2    S    
Cu1   O4    S    
C14   C16   A    
C1    O3    A    
C27   C29   A    
C32   H14   S    
C29   H1    S    
C26   C28   A    
C13   C15   A    
C30   H2    S    
C34   N4    T    
C5    C32   A    
C25   H9    S    
C28   C30   A    
C6    C31   A    
C1    O1    A    
C26   H10   S    
Cu1   O5    S    
C31   H13   S    
C23   C25   A    
Cu2   O6    S    
C9    C11   A    
C28   H12   S    
C22   H8    S    
C1    C12   S    
C19   H5    S    
C17   O5    A    
C8    C11   A    
C21   H7    S    
C2    C11   S    
C15   N1    A    
C4    C6    A    
C19   C21   A    
C20   C22   A    
Cu2   N2    S    
C22   C24   A    
C21   C23   A    
Cu1   N1    S    
C7    C12   A    
C10   C12   A    
C16   N2    A    
C25   C27   A    
C27   H11   S    
C4    C17   S    
C4    C32   A    
C19   C29   A    
C8    H16   S    
C14   N1    A    
Cu1   Cu2   S    
C13   H17   S    
C7    H15   S    
C3    C18   S    
C8    C10   A    
C13   N2    A    
Cu2   O7    S    
C10   C34   S    
C18   O6    A    
C7    C9    A    
C5    C24   S    
C20   C30   A    
C17   O7    A    
C6    C23   S    
C9    C33   S    
C20   H6    S    
C2    O2    A    
C18   O8    A    
C33   N3    T    
C24   C26   A    
Cu1   O8    S    
C3    C5    A    
C15   H3    S    
