data_mof_unit_50559.cif
_audit_creation_date              2013-03-05T16:31:28-0500
_audit_creation_method            fapswitch 2.2
_symmetry_space_group_name_H-M    P1
_symmetry_Int_Tables_number       1
_space_group_crystal_system       triclinic
_cell_length_a                    15.040074
_cell_length_b                    10.861639
_cell_length_c                    9.536547
_cell_angle_alpha                 90.034227
_cell_angle_beta                  89.801073
_cell_angle_gamma                 90.421517
_cell_volume                      1557.83712564

loop_
_atom_site_label
_atom_site_type_symbol
_atom_site_description
_atom_site_fract_x
_atom_site_fract_y
_atom_site_fract_z
_atom_type_partial_charge
O1    O     O_R   0.500000 0.319640 0.618810 -0.577311
O2    O     O_R   0.500010 0.319680 0.381230 -0.567647
C1    C     C_R   0.499987 0.262715 0.499806 0.849080
O3    O     O_R   0.370250 0.499950 0.618800 -0.589993
O4    O     O_R   0.370260 0.499990 0.381220 -0.591986
C2    C     C_R   0.328857 0.499404 0.500247 0.796838
Cu1   Cu    Cu3+1 0.500000 0.499980 0.640670 0.983062
Cu2   Cu    Cu3+1 0.500000 0.500020 0.359330 0.994933
O5    O     O_R   0.499990 0.680320 0.618770 -0.586684
O6    O     O_R   0.500000 0.680360 0.381190 -0.595898
O7    O     O_R   0.629740 0.500010 0.618780 -0.574039
O8    O     O_R   0.629750 0.500050 0.381200 -0.554934
C3    C     C_R   0.499990 0.737335 0.499863 0.799250
C4    C     C_R   0.671154 0.495727 0.499755 0.873153
C5    C     C_R   0.814722 0.556248 0.597213 -0.276706
C6    C     C_R   0.767787 0.485793 0.500063 -0.180377
C7    C     C_R   0.812572 0.407308 0.405534 0.315212
C8    C     C_R   0.906962 0.401135 0.408624 -0.081769
C9    C     C_R   0.953505 0.479292 0.503199 -0.028551
C10   C     C_R   0.906824 0.554957 0.598685 0.148085
C11   C     C_R   0.956428 0.318830 0.322604 0.152621
C12   C     C_R   0.050014 0.326756 0.318640 0.269218
C13   C     C_R   0.095166 0.409222 0.407858 -0.035045
C14   C     C_R   0.046971 0.482096 0.503734 0.035752
C15   C     C_R   0.092533 0.559002 0.600153 0.146788
C16   C     C_R   0.045061 0.631269 0.695424 -0.188593
C17   C     C_R   0.952742 0.629521 0.694421 -0.167157
C18   C     C_R   0.188083 0.419324 0.404906 -0.162208
C19   C     C_R   0.232454 0.494696 0.500970 -0.080355
C20   C     C_R   0.185083 0.562861 0.599677 -0.221783
H1    H     H_    0.779116 0.615646 0.669327 0.155762
H2    H     H_    0.226918 0.366818 0.330330 0.189254
H3    H     H_    0.220388 0.621001 0.673803 0.146273
H4    H     H_    0.079376 0.690035 0.769872 0.152416
H5    H     H_    0.917114 0.687115 0.768206 0.152861
C21   C     C_R   0.502315 0.062298 0.620967 0.056994
C22   C     C_R   0.499640 0.130181 0.498026 -0.091790
C23   C     C_R   0.496498 0.064528 0.370268 -0.132989
H6    H     H_    0.494284 0.112173 0.270599 0.184876
C24   C     C_R   0.496462 0.935374 0.370355 -0.200410
H7    H     H_    0.494347 0.887529 0.270711 0.166845
C25   C     C_R   0.499362 0.869967 0.498216 -0.076631
C26   C     C_R   0.501797 0.938155 0.621165 0.074851
C27   C     C_3   0.507716 0.928697 0.776888 -0.516290
C28   C     C_3   0.508426 0.070739 0.776904 0.162491
H8    H     H_    0.446542 0.887859 0.823862 0.176047
H9    H     H_    0.570966 0.886611 0.811423 0.219701
H10   H     H_    0.449133 0.112997 0.827074 0.090151
C29   C     C_R   0.541993 0.592189 0.073479 0.233015
N1    N     N_R   0.500570 0.500930 0.147930 -0.183621
C30   C     C_R   0.450751 0.416925 0.074698 -0.007229
H11   H     H_    0.412424 0.348035 0.130765 0.135044
C31   C     C_R   0.450462 0.417249 0.925716 0.003762
H12   H     H_    0.411815 0.348737 0.869964 0.130670
N2    N     N_R   0.500570 0.500890 0.852020 -0.185434
C32   C     C_R   0.542838 0.591273 0.926057 0.240809
C33   C     C_3   0.639717 0.621469 0.920996 -0.473701
C34   C     C_3   0.638129 0.625854 0.079978 -0.456464
H13   H     H_    0.680296 0.544373 0.879470 0.247095
H14   H     H_    0.653726 0.712278 0.872151 0.185110
H15   H     H_    0.679428 0.553647 0.128728 0.266724
H16   H     H_    0.648633 0.720031 0.122848 0.190514
N3    N     N_R   0.593161 0.123507 0.823569 0.165203
O9    O     O_R   0.667830 0.091750 0.764741 -0.331847
O10   O     O_R   0.594253 0.202460 0.926117 -0.329457
N4    N     N_R   0.761654 0.336205 0.306925 0.146429
O11   O     O_R   0.704465 0.254425 0.351134 -0.347788
O12   O     O_R   0.768237 0.358660 0.173273 -0.331252
N5    N     N_2   0.913235 0.221514 0.248545 -0.352970
H17   H     H_    0.937860 0.204691 0.149454 0.306576
C35   C     C_3   0.900941 0.110177 0.329763 -0.527193
H18   H     H_    0.860861 0.042906 0.268611 0.234297
H19   H     H_    0.864953 0.130294 0.429060 0.243088
H20   H     H_    0.966325 0.068536 0.354344 0.224315
N6    N     N_R   0.099027 0.245574 0.228884 0.101647
O13   O     O_R   0.099073 0.262441 0.093855 -0.364911
O14   O     O_R   0.146217 0.157494 0.282481 -0.375797

loop_
_geom_bond_atom_site_label_1
_geom_bond_atom_site_label_2
_geom_bond_distance
_ccdc_geom_bond_type
C34   H16   1.111762 S    
N4    O12   1.301145 A    
N2    C32   1.363640 A    
N3    O10   1.300374 A    
C8    C11   1.424879 A    
C9    C10   1.414465 A    
Cu1   N2    2.015615 S    
C26   C27   1.491684 S    
Cu1   Cu2   2.683012 S    
C31   H12   1.081485 S    
Cu1   O7    1.961709 S    
C7    N4    1.436192 S    
C19   C20   1.394320 A    
C18   C19   1.396478 A    
O4    C2    1.292792 A    
O7    C4    1.293839 A    
C33   H13   1.111734 S    
C5    C6    1.392128 A    
C32   C33   1.491801 S    
C8    C9    1.420868 A    
N5    C35   1.446840 S    
O5    C3    1.292369 A    
C16   H4    1.083973 S    
C6    C7    1.412935 A    
C13   C14   1.410998 A    
C27   H9    1.109554 S    
C34   H15   1.107552 S    
C24   C25   1.412542 A    
N4    O11   1.301262 A    
C11   C12   1.409924 A    
C12   N6    1.434532 S    
O3    Cu1   1.963282 S    
C3    C25   1.440794 S    
C27   H8    1.111445 S    
C7    C8    1.422115 A    
C31   N2    1.369026 A    
C5    C10   1.385520 A    
C30   H11   1.081689 S    
C18   H2    1.083396 S    
C14   C15   1.416989 A    
O3    C2    1.292544 A    
C35   H19   1.111464 S    
C33   H14   1.109521 S    
C17   H5    1.084150 S    
C15   C16   1.397951 A    
C28   N3    1.464092 S    
C29   C34   1.490297 S    
C11   N5    1.424888 S    
O1    C1    1.292060 A    
N6    O13   1.300784 A    
C22   C23   1.412103 A    
C35   H20   1.111230 S    
Cu2   O8    1.963281 S    
N1    C30   1.369128 A    
C16   C17   1.388538 A    
C21   C28   1.492975 S    
C13   C18   1.401162 A    
N6    O14   1.301279 A    
C24   H7    1.083253 S    
O8    C4    1.293688 A    
C4    C6    1.458172 S    
C25   C26   1.386911 A    
Cu2   N1    2.016044 S    
C27   C28   1.542757 S    
C28   H10   1.112499 S    
C15   C20   1.392272 A    
Cu1   O5    1.970015 S    
C21   C22   1.386233 A    
C20   H3    1.085173 S    
O1    Cu1   1.969726 S    
O2    Cu2   1.970015 S    
O6    C3    1.289554 A    
O4    Cu2   1.961712 S    
C5    H1    1.085341 S    
C10   C17   1.400600 A    
C29   C32   1.405935 A    
O2    C1    1.289341 A    
C35   H18   1.110313 S    
C23   C24   1.402814 A    
C33   C34   1.516966 S    
C23   H6    1.083253 S    
C9    C14   1.405868 A    
N5    H17   1.030489 S    
N3    O9    1.302307 A    
C2    C19   1.450420 S    
C1    C22   1.439598 S    
Cu2   O6    1.969726 S    
C29   N1    1.365084 A    
C12   C13   1.407657 A    
C21   C26   1.348363 A    
C30   C31   1.420797 A    
