data_mof_unit_57454.cif
_audit_creation_date              2012-12-10T17:47:13-0500
_audit_creation_method            fapswitch 2.2
_symmetry_space_group_name_H-M    P1
_symmetry_Int_Tables_number       1
_space_group_crystal_system       triclinic
_cell_length_a                    11.663909
_cell_length_b                    14.693108
_cell_length_c                    14.84099
_cell_angle_alpha                 63.94541
_cell_angle_beta                  103.613723
_cell_angle_gamma                 103.062727
_cell_volume                      2198.75055552

loop_
_atom_site_label
_atom_site_type_symbol
_atom_type_description
_atom_site_fract_x
_atom_site_fract_y
_atom_site_fract_z
_atom_type_partial_charge
C1    C     C_R   0.479830 0.120874 0.311541 0.869476
C2    C     C_R   0.524141 0.879230 0.687959 0.840737
C3    C     C_R   0.336078 0.336724 0.028977 -0.293983
C4    C     C_R   0.549695 0.687015 0.006340 -0.261339
C5    C     C_R   0.458346 0.477359 0.071509 -0.098314
C6    C     C_R   0.419745 0.547140 0.971467 -0.158728
C7    C     C_R   0.316861 0.513981 0.914355 0.423155
C8    C     C_R   0.518711 0.518273 0.144452 0.410675
C9    C     C_R   0.274643 0.410008 0.944769 0.557506
C10   C     C_R   0.550281 0.625701 0.110069 0.476186
C11   C     C_R   0.719403 0.293656 0.648450 -0.333988
C12   C     C_R   0.263671 0.688428 0.385359 -0.360033
C13   C     C_R   0.680447 0.210218 0.623476 0.689658
C14   C     C_R   0.312046 0.782076 0.389354 0.697223
C15   C     C_R   0.504794 0.279150 0.523968 0.739623
C16   C     C_R   0.493695 0.719232 0.480117 0.774303
C17   C     C_R   0.535231 0.362443 0.554601 -0.191935
C18   C     C_R   0.445426 0.618433 0.486363 -0.128993
C19   C     C_R   0.648277 0.371186 0.613220 -0.175377
C20   C     C_R   0.329262 0.605708 0.433061 -0.144448
C21   C     C_R   0.461804 0.440513 0.522693 -0.099887
C22   C     C_R   0.509584 0.532099 0.538061 -0.113388
C23   C     C_R   0.284221 0.999731 0.500357 0.819569
C24   C     C_R   0.715820 0.999874 0.500172 0.784965
C25   C     C_R   0.613728 0.529668 0.611566 0.444195
C26   C     C_R   0.338860 0.424008 0.486358 0.454910
C27   C     C_R   0.689263 0.456071 0.637698 0.356919
C28   C     C_R   0.278082 0.510758 0.428800 0.367915
C29   C     C_1   0.162566 0.999076 0.501203 -0.145849
C30   C     C_1   0.837556 0.999102 0.501031 -0.149510
C31   C     C_1   0.059993 0.998647 0.501661 -0.007765
C32   C     C_1   0.940161 0.998610 0.501555 -0.014197
C33   C     C_R   0.451897 0.191560 0.203057 -0.364781
C34   C     C_R   0.542147 0.810328 0.797130 -0.370996
C35   C     C_R   0.309556 0.231508 0.046512 0.445478
C36   C     C_R   0.618139 0.785116 0.972726 0.430878
C37   C     C_R   0.374808 0.159318 0.130023 0.277918
C38   C     C_R   0.617668 0.844829 0.868754 0.265322
C39   C     C_R   0.490036 0.295776 0.176799 0.627523
C40   C     C_R   0.483238 0.709418 0.830586 0.573404
C41   C     C_R   0.428317 0.370247 0.094198 -0.121131
C42   C     C_R   0.482158 0.648142 0.935130 -0.152453
Cu1   Cu    Cu3+1 0.469550 0.918260 0.475690 1.073399
Cu2   Cu    Cu3+1 0.530450 0.081740 0.524310 1.061676
H1    H     H_    0.804674 0.296185 0.696544 0.223333
H2    H     H_    0.173035 0.680376 0.347603 0.209883
N1    N     N_R   0.576230 0.204580 0.560790 -0.278505
N2    N     N_R   0.423770 0.795420 0.439210 -0.295471
O1    O     O_R   0.459870 0.022090 0.338120 -0.558677
O2    O     O_R   0.540130 0.977910 0.661880 -0.539772
O3    O     O_R   0.511290 0.160150 0.379180 -0.497053
O4    O     O_R   0.488710 0.839850 0.620820 -0.509835
O5    O     O_R   0.311490 0.930960 0.479480 -0.521163
O6    O     O_R   0.688510 0.069040 0.520520 -0.544606
O7    O     O_R   0.362910 0.069020 0.520540 -0.548856
O8    O     O_R   0.637090 0.930980 0.479460 -0.523556
F1    F     F_    0.174779 0.382138 0.888757 -0.649100
F2    F     F_    0.581738 0.670861 0.176451 -0.673975
O9    O     O_3   0.635046 0.596707 0.659193 -0.544045
C43   C     C_3   0.670132 0.551953 0.766149 0.152452
H3    H     H_    0.672406 0.611420 0.793920 0.163227
H4    H     H_    0.762989 0.535242 0.787098 0.176766
C44   C     C_3   0.583349 0.458521 0.822697 -0.404916
H5    H     H_    0.494645 0.481731 0.810038 0.262487
H6    H     H_    0.572028 0.397713 0.794914 0.212132
C45   C     C_3   0.630453 0.413205 0.936237 -0.881145
H7    H     H_    0.719000 0.389307 0.949917 0.268477
H8    H     H_    0.568687 0.344700 0.975759 0.243651
H9    H     H_    0.638903 0.470282 0.968390 0.261888
O10   O     O_3   0.283272 0.323228 0.533346 -0.610259
C46   C     C_3   0.168321 0.294963 0.488422 0.186619
H10   H     H_    0.159237 0.211483 0.509411 0.163650
H11   H     H_    0.156279 0.328487 0.404746 0.158466
C47   C     C_3   0.071815 0.310867 0.532619 -0.397535
H12   H     H_    0.079489 0.261186 0.615199 0.217405
H13   H     H_    0.083147 0.391043 0.523919 0.256319
C48   C     C_3   0.947905 0.284447 0.480484 -0.839506
H14   H     H_    0.939259 0.331856 0.397514 0.261656
H15   H     H_    0.879787 0.299492 0.511344 0.263666
H16   H     H_    0.931572 0.202508 0.493944 0.262269
F3    F     F_    0.437567 0.668495 0.761294 -0.620605
F4    F     F_    0.596786 0.321699 0.225704 -0.671732
O11   O     O_3   0.696471 0.935071 0.839466 -0.547775
C49   C     C_3   0.790363 0.922860 0.801370 0.164848
H17   H     H_    0.765996 0.947618 0.718033 0.189399
H18   H     H_    0.808571 0.842111 0.833607 0.049233
C50   C     C_3   0.905872 0.988411 0.825333 -0.271539
H19   H     H_    0.885971 0.059970 0.822935 0.273711
H20   H     H_    0.950843 0.945624 0.903199 0.175659
C51   C     C_3   0.991328 0.016455 0.750433 -0.914862
H21   H     H_    0.009612 0.946851 0.748095 0.251560
H22   H     H_    0.076879 0.057319 0.773897 0.235822
H23   H     H_    0.952775 0.067227 0.673195 0.295211
O12   O     O_3   0.354133 0.057681 0.142579 -0.556335
C52   C     C_3   0.462116 0.022596 0.150277 0.138308
H24   H     H_    0.453067 0.939176 0.199002 0.182932
H25   H     H_    0.542580 0.058161 0.186952 0.130521
C53   C     C_3   0.486391 0.038889 0.046984 -0.487947
H26   H     H_    0.415669 0.991812 0.014774 0.229783
H27   H     H_    0.488008 0.120959 0.994967 0.224328
C54   C     C_3   0.606592 0.008163 0.056635 -0.774430
H28   H     H_    0.680033 0.059013 0.081626 0.238898
H29   H     H_    0.618961 0.015119 0.981812 0.294119
H30   H     H_    0.610588 0.927865 0.112879 0.298856
O13   O     O_3   0.208168 0.199500 0.990735 -0.521894
C55   C     C_3   0.234717 0.166073 0.922764 0.143497
H31   H     H_    0.148353 0.147164 0.879478 0.160559
H32   H     H_    0.271912 0.093465 0.964246 0.156554
C56   C     C_3   0.312536 0.247407 0.844865 -0.429345
H33   H     H_    0.265060 0.314467 0.796096 0.277415
H34   H     H_    0.397713 0.273740 0.884050 0.199359
C57   C     C_3   0.341588 0.204675 0.777216 -0.871221
H35   H     H_    0.387404 0.136248 0.823477 0.249700
H36   H     H_    0.401679 0.263659 0.725239 0.284359
H37   H     H_    0.258942 0.183392 0.731462 0.269593
O14   O     O_3   0.684076 0.825778 0.040430 -0.545814
C58   C     C_3   0.798698 0.795428 0.073175 0.109901
H38   H     H_    0.836294 0.794434 0.011359 0.095827
H39   H     H_    0.794646 0.717693 0.135108 0.176505
C59   C     C_3   0.882045 0.869907 0.114032 -0.333535
H40   H     H_    0.886200 0.948467 0.052716 0.230844
H41   H     H_    0.846323 0.870133 0.177087 0.241902
C60   C     C_3   0.007397 0.840572 0.153019 -0.868814
H42   H     H_    0.005399 0.764350 0.217812 0.249043
H43   H     H_    0.066132 0.897875 0.179294 0.319605
H44   H     H_    0.044816 0.838664 0.091710 0.240341
O15   O     O_3   0.252371 0.581870 0.830293 -0.526057
C61   C     C_3   0.183079 0.624947 0.863489 0.066545
H45   H     H_    0.241734 0.672569 0.901942 0.140884
H46   H     H_    0.124267 0.563482 0.915830 0.149398
C62   C     C_3   0.105265 0.694700 0.772172 -0.281792
H47   H     H_    0.162648 0.761804 0.724188 0.219409
H48   H     H_    0.054521 0.652563 0.725884 0.229025
C63   C     C_3   0.016886 0.731488 0.805568 -0.974789
H49   H     H_    0.956629 0.665365 0.851246 0.253153
H50   H     H_    0.961734 0.781780 0.737540 0.265458
H51   H     H_    0.065055 0.774955 0.851718 0.258367
O16   O     O_3   0.528372 0.453889 0.247818 -0.549601
C64   C     C_3   0.634179 0.477865 0.309352 0.241965
H52   H     H_    0.639180 0.411938 0.384072 0.134061
H53   H     H_    0.627033 0.541906 0.327204 0.179501
C65   C     C_3   0.752287 0.491706 0.271333 -0.350055
H54   H     H_    0.771164 0.416433 0.282710 0.266579
H55   H     H_    0.748864 0.541658 0.189436 0.192428
C66   C     C_3   0.856375 0.537473 0.329875 -0.978587
H56   H     H_    0.840668 0.612781 0.321494 0.273492
H57   H     H_    0.939490 0.548600 0.299933 0.289969
H58   H     H_    0.868027 0.485217 0.411552 0.264018
O17   O     O_3   0.804738 0.467024 0.686619 -0.617912
C67   C     C_3   0.879321 0.533823 0.614193 0.032111
H59   H     H_    0.889673 0.612074 0.611326 0.180870
H60   H     H_    0.844042 0.538168 0.535800 0.136294
C68   C     C_3   0.000844 0.496532 0.646776 -0.327485
H61   H     H_    0.037558 0.489887 0.725180 0.294173
H62   H     H_    0.989904 0.419370 0.646919 0.219553
C69   C     C_3   0.088768 0.568859 0.575625 -0.846653
H63   H     H_    0.055020 0.573770 0.497391 0.258848
H64   H     H_    0.175827 0.539456 0.602090 0.279104
H65   H     H_    0.102563 0.646583 0.574581 0.266561
O18   O     O_3   0.169481 0.504986 0.367343 -0.649379
C70   C     C_3   0.188250 0.512999 0.272840 0.013899
H66   H     H_    0.108029 0.470923 0.243177 0.167450
H67   H     H_    0.265652 0.476167 0.279592 0.169852
C71   C     C_3   0.202004 0.624604 0.195632 -0.323999
H68   H     H_    0.127253 0.661634 0.192440 0.218213
H69   H     H_    0.287704 0.666287 0.218214 0.242325
C72   C     C_3   0.201132 0.632069 0.090128 -0.935443
H70   H     H_    0.273745 0.593924 0.091130 0.258352
H71   H     H_    0.214917 0.713910 0.036971 0.255882
H72   H     H_    0.113985 0.595546 0.063049 0.247825
F5    F     F_    0.611996 0.745147 0.504419 -0.625620
F6    F     F_    0.411897 0.277524 0.449723 -0.635105
F7    F     F_    0.245901 0.859895 0.343265 -0.638742
F8    F     F_    0.749910 0.136052 0.659795 -0.668589

loop_
_geom_bond_atom_site_label_1
_geom_bond_atom_site_label_2
_ccdc_geom_bond_type
C45   H8    S    
C50   H19   S    
C4    C36   A    
C54   H28   S    
C38   O11   S    
C58   H38   S    
C11   C13   A    
C52   H24   S    
Cu2   O7    S    
C49   C50   S    
C15   N1    A    
C21   C26   A    
C62   C63   S    
C61   H45   S    
C16   N2    A    
C63   H51   S    
C44   H6    S    
C70   H66   S    
C52   C53   S    
C1    C33   S    
C60   H42   S    
C39   C41   A    
C48   H14   S    
C11   C19   A    
C71   H69   S    
C33   C39   A    
C47   H13   S    
C43   C44   S    
C34   C40   A    
C23   C29   S    
C8    O16   S    
C69   H63   S    
C10   F2    S    
C49   H18   S    
C14   F7    S    
C58   H39   S    
C66   H56   S    
C5    C6    A    
C64   C65   S    
Cu1   O4    S    
C60   H43   S    
C45   H9    S    
C55   H31   S    
C24   O6    A    
C28   O18   S    
O14   C58   S    
C43   H4    S    
C2    O2    A    
C66   H57   S    
Cu1   O5    S    
C3    C41   A    
C31   C32   S    
C47   C48   S    
C37   O12   S    
O10   C46   S    
C68   H62   S    
C19   C27   A    
Cu1   N2    S    
C18   C20   A    
Cu2   N1    S    
C2    C34   S    
C40   C42   A    
C45   H7    S    
C44   C45   S    
O9    C43   S    
C27   O17   S    
C34   C38   A    
C21   C22   A    
C72   H71   S    
C65   C66   S    
C57   H36   S    
C57   H35   S    
C70   H67   S    
C59   H41   S    
C23   O5    A    
C72   H72   S    
C48   H15   S    
C13   F8    S    
C47   H12   S    
C49   H17   S    
C12   H2    S    
C58   C59   S    
C72   H70   S    
C46   H11   S    
Cu1   O1    S    
C60   H44   S    
C63   H50   S    
C20   C28   A    
C22   C25   A    
C17   C21   A    
C43   H3    S    
C59   C60   S    
Cu1   Cu2   S    
C35   O13   S    
C5    C8    A    
C1    O3    A    
C51   H22   S    
O11   C49   S    
C3    C35   A    
C12   C20   A    
C68   C69   S    
C23   O7    A    
C3    C9    A    
C67   C68   S    
C63   H49   S    
C2    O4    A    
Cu2   O3    S    
C16   C18   A    
C12   C14   A    
C54   H30   S    
C53   H27   S    
C70   C71   S    
C50   H20   S    
C26   O10   S    
C4    C42   A    
C67   H60   S    
C56   C57   S    
C24   O8    A    
C4    C10   A    
C62   H47   S    
C36   O14   S    
C61   C62   S    
C66   H58   S    
C59   H40   S    
C51   H23   S    
C13   N1    A    
C54   H29   S    
C48   H16   S    
Cu2   O2    S    
C7    C9    A    
C5    C41   A    
C71   H68   S    
C35   C37   A    
C18   C22   A    
C40   F3    S    
C69   H65   S    
C39   F4    S    
C62   H48   S    
C61   H46   S    
C46   C47   S    
C14   N2    A    
C64   H52   S    
C52   H25   S    
C15   C17   A    
C6    C7    A    
C25   C27   A    
C53   C54   S    
O13   C55   S    
C26   C28   A    
C33   C37   A    
O18   C70   S    
C56   H34   S    
C46   H10   S    
C29   C31   T    
O17   C67   S    
C36   C38   A    
C30   C32   T    
C64   H53   S    
C16   F5    S    
C51   H21   S    
C55   H32   S    
C69   H64   S    
C17   C19   A    
C15   F6    S    
C9    F1    S    
C71   C72   S    
O12   C52   S    
C24   C30   S    
C11   H1    S    
O16   C64   S    
C44   H5    S    
Cu2   O6    S    
Cu1   O8    S    
C8    C10   A    
C53   H26   S    
C6    C42   A    
C50   C51   S    
C65   H54   S    
C67   H59   S    
C25   O9    S    
C7    O15   S    
C68   H61   S    
C56   H33   S    
C1    O1    A    
C57   H37   S    
C65   H55   S    
O15   C61   S    
C55   C56   S    
