data_mof_unit_11942.cif
_audit_creation_date              2012-12-10T17:35:38-0500
_audit_creation_method            fapswitch 2.2
_symmetry_space_group_name_H-M    P1
_symmetry_Int_Tables_number       1
_space_group_crystal_system       triclinic
_cell_length_a                    10.763109
_cell_length_b                    12.378056
_cell_length_c                    13.11017
_cell_angle_alpha                 116.691438
_cell_angle_beta                  75.337708
_cell_angle_gamma                 100.532366
_cell_volume                      1504.84851883

loop_
_atom_site_label
_atom_site_type_symbol
_atom_type_description
_atom_site_fract_x
_atom_site_fract_y
_atom_site_fract_z
_atom_type_partial_charge
C1    C     C_R   0.509400 0.855333 0.285601 0.878616
C2    C     C_3   0.124020 0.004861 0.500122 0.034254
C3    C     C_3   0.041682 0.022253 0.621839 -0.434256
C4    C     C_3   0.076546 0.884788 0.406603 -0.391736
C5    C     C_R   0.337124 0.278234 0.034723 -0.118357
C6    C     C_R   0.457019 0.227333 0.838293 -0.058098
C7    C     C_R   0.572394 0.811354 0.071332 0.401502
C8    C     C_R   0.592132 0.728222 0.955417 -0.127492
C9    C     C_R   0.556490 0.606261 0.924655 -0.228180
C10   C     C_R   0.492375 0.563849 0.009484 0.102983
C11   C     C_R   0.456946 0.650000 0.126349 0.052704
C12   C     C_R   0.739507 0.003001 0.503917 0.825260
C13   C     C_R   0.457815 0.438588 0.980540 0.109407
C14   C     C_R   0.375050 0.401735 0.064079 0.136957
C15   C     C_R   0.327555 0.488829 0.174324 -0.213956
C16   C     C_R   0.366109 0.610996 0.204464 -0.163125
C17   C     C_R   0.502974 0.348652 0.870215 -0.211602
C18   C     C_R   0.376379 0.191425 0.921649 -0.140268
C19   C     C_R   0.509964 0.773012 0.160249 -0.189264
C20   C     C_R   0.644272 0.304685 0.282830 0.335990
C21   C     C_R   0.338414 0.772827 0.660801 -0.059210
C22   C     C_R   0.291903 0.679506 0.695200 0.300428
C23   C     C_R   0.481281 0.144676 0.714296 0.776868
C24   C     C_R   0.337692 0.563914 0.628395 0.324366
C25   C     C_R   0.438364 0.544074 0.528958 -0.175510
C26   C     C_R   0.477069 0.641230 0.492512 0.126363
C27   C     C_R   0.502933 0.432598 0.462606 -0.006551
C28   C     C_R   0.572927 0.407720 0.348131 -0.015133
C29   C     C_R   0.582274 0.492262 0.304706 -0.209122
C30   C     C_R   0.560759 0.611189 0.380806 0.392109
C31   C     C_R   0.507977 0.347142 0.505556 0.073822
C32   C     C_R   0.646013 0.227194 0.332066 0.068932
C33   C     C_R   0.260692 0.001227 0.500212 0.781395
C34   C     C_3   0.961667 0.114047 0.475911 -0.044813
C35   C     C_3   0.105057 0.112239 0.474938 0.201783
C36   C     C_3   0.897000 0.017621 0.623247 -0.369233
C37   C     C_3   0.932823 0.886271 0.410921 -0.365773
C38   C     C_3   0.878717 0.008062 0.505797 0.037025
Cu1   Cu    Cu3+1 0.529690 0.098270 0.475420 1.005734
Cu2   Cu    Cu3+1 0.470310 0.901730 0.524580 0.978785
H1    H     H_    0.090828 0.806741 0.421887 0.184560
H2    H     H_    0.846732 0.936711 0.636762 0.197300
H3    H     H_    0.057099 0.950156 0.645008 0.207920
H4    H     H_    0.340011 0.097523 0.898446 0.170148
H5    H     H_    0.259647 0.462560 0.237530 0.164237
H6    H     H_    0.273333 0.249414 0.097994 0.177529
H7    H     H_    0.573160 0.370708 0.806146 0.142413
H8    H     H_    0.575179 0.548386 0.832690 0.148078
H9    H     H_    0.638382 0.758056 0.887760 0.180907
H10   H     H_    0.953368 0.088656 0.384713 0.187563
H11   H     H_    0.319293 0.674206 0.288323 0.165422
H12   H     H_    0.700585 0.148374 0.284379 0.199250
H13   H     H_    0.634390 0.473560 0.216890 0.238047
H14   H     H_    0.462929 0.360234 0.592834 0.185279
H15   H     H_    0.299948 0.860514 0.712033 0.175548
H16   H     H_    0.138355 0.197585 0.544362 0.184443
H17   H     H_    0.852651 0.095894 0.699076 0.185339
H18   H     H_    0.072100 0.110751 0.689605 0.177436
H19   H     H_    0.882517 0.810777 0.432851 0.243029
H20   H     H_    0.917914 0.869172 0.323776 0.217842
H21   H     H_    0.132875 0.870700 0.318428 0.218583
N1    N     N_R   0.574690 0.246280 0.438200 -0.244838
N2    N     N_R   0.426100 0.754320 0.561190 -0.216704
O1    O     O_R   0.537340 0.972510 0.318130 -0.521364
O2    O     O_R   0.487200 0.806530 0.359650 -0.553564
O3    O     O_R   0.707380 0.082980 0.479220 -0.603352
O4    O     O_R   0.657240 0.917000 0.520740 -0.521972
O5    O     O_R   0.512800 0.193470 0.640350 -0.593107
O6    O     O_R   0.462660 0.027490 0.681870 -0.589490
O7    O     O_R   0.342760 0.083000 0.479260 -0.521153
O8    O     O_R   0.292620 0.917020 0.520780 -0.609058
C39   C     C_3   0.920792 0.247618 0.542307 -0.400553
C40   C     C_3   0.884921 0.298348 0.674662 -0.721775
H22   H     H_    0.789118 0.257493 0.701711 0.224125
H23   H     H_    0.959761 0.283688 0.710795 0.270763
H24   H     H_    0.877435 0.397619 0.711281 0.262078
H25   H     H_    0.001718 0.308366 0.520048 0.247198
H26   H     H_    0.841275 0.259871 0.509736 0.226837
Cl1   Cl    Cl    0.627293 0.961807 0.095558 -0.554013
Cl2   Cl    Cl    0.737105 0.270875 0.141601 -0.558179
Cl3   Cl    Cl    0.247104 0.444264 0.659736 -0.624470
Cl4   Cl    Cl    0.170885 0.709993 0.821452 -0.521134
Cl5   Cl    Cl    0.687841 0.700839 0.337544 -0.658267
Cl6   Cl    Cl    0.200556 0.108335 0.338430 -0.592487

loop_
_geom_bond_atom_site_label_1
_geom_bond_atom_site_label_2
_ccdc_geom_bond_type
C2    C35   S    
Cu2   O8    S    
C40   H22   S    
C23   O6    A    
C36   H2    S    
C16   H11   S    
C26   N2    A    
C7    C8    A    
Cu1   O1    S    
C11   C19   A    
C37   C38   S    
Cu2   N2    S    
C22   Cl4   S    
C28   C29   A    
C4    H1    S    
C15   C16   A    
C34   C35   S    
Cu1   O5    S    
C30   Cl5   S    
C6    C17   A    
C32   H12   S    
C39   H26   S    
C39   H25   S    
C8    C9    A    
Cu2   O4    S    
C1    O2    A    
C9    C10   A    
C21   C22   A    
C40   H23   S    
C31   N1    A    
C6    C18   A    
C12   O4    A    
C34   H10   S    
C1    C19   S    
Cu2   O6    S    
C20   Cl2   S    
C27   C31   A    
C24   C25   A    
C36   H17   S    
Cu1   Cu2   S    
C21   H15   S    
C5    C18   A    
C20   C28   A    
C25   C26   A    
C12   O3    A    
C4    H21   S    
C23   O5    A    
C2    C4    S    
C24   Cl3   S    
C29   C30   A    
C18   H4    S    
C11   C16   A    
C3    H3    S    
C5    C14   A    
C37   H19   S    
C33   O7    A    
C2    C33   S    
C26   C30   A    
C7    C19   A    
Cu2   O2    S    
C40   H24   S    
C22   C24   A    
C15   H5    S    
C1    O1    A    
C34   C39   S    
C7    Cl1   S    
C20   C32   A    
Cu1   N1    S    
C35   H16   S    
C34   C38   S    
C17   H7    S    
C39   C40   S    
C10   C13   A    
C35   Cl6   S    
C25   C27   A    
C5    H6    S    
C13   C17   A    
C36   C38   S    
C2    C3    S    
C32   N1    A    
C29   H13   S    
C3    C36   S    
C6    C23   S    
Cu1   O3    S    
Cu1   O7    S    
C31   H14   S    
C12   C38   S    
C21   N2    A    
C37   H20   S    
C10   C11   A    
C33   O8    A    
C3    H18   S    
C4    C37   S    
C9    H8    S    
C27   C28   A    
C14   C15   A    
C13   C14   A    
C8    H9    S    
