data_mof_unit_40124.cif
_audit_creation_date              2012-12-10T18:05:12-0500
_audit_creation_method            fapswitch 2.2
_symmetry_space_group_name_H-M    P1
_symmetry_Int_Tables_number       1
_space_group_crystal_system       triclinic
_cell_length_a                    9.517095
_cell_length_b                    10.932145
_cell_length_c                    17.108904
_cell_angle_alpha                 88.531278
_cell_angle_beta                  94.296919
_cell_angle_gamma                 89.191244
_cell_volume                      1774.2329014

loop_
_atom_site_label
_atom_site_type_symbol
_atom_type_description
_atom_site_fract_x
_atom_site_fract_y
_atom_site_fract_z
_atom_type_partial_charge
C1    C     C_R   0.500401 0.262202 0.496735 0.850005
C2    C     C_R   0.499641 0.737587 0.503954 0.840631
C3    C     C_R   0.370936 0.939400 0.504933 -0.179380
C4    C     C_R   0.629121 0.059934 0.498595 -0.177072
C5    C     C_R   0.498995 0.871538 0.508385 -0.269632
C6    C     C_R   0.501226 0.127902 0.494775 -0.256594
C7    C     C_R   0.083639 0.428657 0.552598 -0.058135
C8    C     C_R   0.916391 0.571478 0.447481 -0.048272
C9    C     C_R   0.935070 0.428476 0.552881 0.074581
C10   C     C_R   0.064968 0.571696 0.447218 0.074785
C11   C     C_R   0.517794 0.498490 0.650955 0.791742
C12   C     C_R   0.482202 0.501176 0.349051 0.793841
C13   C     C_R   0.527573 0.498135 0.736872 -0.021262
C14   C     C_R   0.472413 0.500280 0.263159 -0.022072
C15   C     C_R   0.404615 0.488041 0.776831 -0.234575
C16   C     C_R   0.595661 0.507111 0.223211 -0.233232
C17   C     C_R   0.411912 0.488606 0.858170 -0.157798
C18   C     C_R   0.588353 0.505356 0.141908 -0.157347
C19   C     C_R   0.543175 0.499468 0.901282 0.384729
C20   C     C_R   0.456786 0.496580 0.098802 0.383759
C21   C     C_R   0.665656 0.509163 0.861324 -0.196108
C22   C     C_R   0.334056 0.489696 0.138759 -0.193541
C23   C     C_R   0.658340 0.508579 0.779658 -0.209169
C24   C     C_R   0.341377 0.491545 0.220395 -0.206838
C25   C     C_R   0.371893 0.065929 0.493087 0.399921
C26   C     C_R   0.628624 0.933761 0.510983 0.409483
Cu1   Cu    Cu3+1 0.640660 0.500020 0.500000 0.963853
Cu2   Cu    Cu3+1 0.359340 0.499980 0.500000 0.963959
H1    H     H_    0.698226 0.513882 0.254688 0.159921
H2    H     H_    0.302305 0.479599 0.745328 0.159335
H3    H     H_    0.685764 0.510821 0.113226 0.152653
H4    H     H_    0.314743 0.480664 0.886874 0.152547
H5    H     H_    0.767125 0.517594 0.893722 0.139789
H6    H     H_    0.232354 0.482789 0.106384 0.139900
H7    H     H_    0.754679 0.516940 0.750159 0.159708
H8    H     H_    0.244793 0.485711 0.249874 0.162874
H9    H     H_    0.147692 0.371361 0.594240 0.148153
H10   H     H_    0.852353 0.628823 0.405861 0.145525
N1    N     N_2   0.556866 0.501320 0.984342 -0.266040
N2    N     N_2   0.443031 0.494458 0.015744 -0.266182
N3    N     N_R   0.852070 0.500030 0.499980 -0.193087
N4    N     N_R   0.147930 0.499970 0.500020 -0.194909
O1    O     O_R   0.618740 0.319660 0.500000 -0.581900
O2    O     O_R   0.381260 0.680340 0.500000 -0.575464
O3    O     O_R   0.381170 0.319630 0.500010 -0.539422
O4    O     O_R   0.618830 0.680370 0.499990 -0.549214
O5    O     O_R   0.631780 0.498870 0.613920 -0.593637
O6    O     O_R   0.368220 0.501130 0.386080 -0.600359
O7    O     O_R   0.394210 0.498840 0.613930 -0.592983
O8    O     O_R   0.605790 0.501160 0.386070 -0.591282
O9    O     O_3   0.244837 0.129737 0.480012 -0.585603
C27   C     C_3   0.190199 0.116061 0.401260 0.082143
H11   H     H_    0.099383 0.053261 0.401192 0.184303
H12   H     H_    0.267449 0.077200 0.362000 0.113663
C28   C     C_3   0.139798 0.240812 0.366566 -0.295199
H13   H     H_    0.069644 0.285778 0.406546 0.248665
H14   H     H_    0.232388 0.299679 0.360167 0.224997
C29   C     C_3   0.060478 0.229185 0.286340 -0.939260
H15   H     H_    0.129703 0.186771 0.244748 0.260619
H16   H     H_    0.026607 0.321491 0.262924 0.250461
H17   H     H_    0.965416 0.172500 0.291237 0.271006
O10   O     O_3   0.757461 0.871796 0.521071 -0.587117
C30   C     C_3   0.788271 0.839263 0.601410 0.113952
H18   H     H_    0.862273 0.759448 0.604108 0.184007
H19   H     H_    0.693802 0.808819 0.631102 0.106920
C31   C     C_3   0.859420 0.944285 0.646132 -0.362937
H20   H     H_    0.949276 0.978286 0.614323 0.257811
H21   H     H_    0.782489 0.020798 0.650140 0.222553
C32   C     C_3   0.913383 0.902862 0.728935 -0.895637
H22   H     H_    0.824985 0.869238 0.762095 0.254433
H23   H     H_    0.962415 0.981173 0.760133 0.267747
H24   H     H_    0.993869 0.828665 0.726769 0.255521
C33   C     C_1   0.236640 0.884092 0.517329 0.352600
N5    N     N_1   0.129083 0.840909 0.527736 -0.292340
C34   C     C_1   0.763402 0.114924 0.486258 0.369218
N6    N     N_1   0.871207 0.157566 0.476021 -0.303001
C35   C     C_1   0.873438 0.350532 0.609600 0.291753
N7    N     N_1   0.824931 0.287353 0.655412 -0.317594
C36   C     C_1   0.126732 0.650230 0.390871 0.292708
N8    N     N_1   0.175388 0.713981 0.345421 -0.312586

loop_
_geom_bond_atom_site_label_1
_geom_bond_atom_site_label_2
_ccdc_geom_bond_type
C31   H21   S    
C28   H13   S    
C30   H19   S    
C10   N4    A    
C33   N5    T    
C11   O5    A    
C12   O6    A    
C35   N7    T    
C2    O4    A    
C24   H8    S    
C22   C24   A    
C19   C21   A    
C20   N2    S    
C31   C32   S    
C21   H5    S    
C29   H16   S    
C13   C23   A    
C15   C17   A    
C7    N4    A    
C14   C24   A    
C32   H23   S    
C4    C34   S    
C1    O1    A    
C2    O2    A    
Cu1   O8    S    
C29   H17   S    
C31   H20   S    
C30   C31   S    
C8    H10   S    
C27   H12   S    
C22   H6    S    
Cu2   O3    S    
O9    C27   S    
C3    C25   A    
C8    N3    A    
C4    C6    A    
N1    N2    D    
C29   H15   S    
Cu2   O2    S    
C1    C6    S    
C32   H24   S    
C34   N6    T    
C25   O9    S    
O10   C30   S    
C11   O7    A    
Cu2   O7    S    
Cu1   N3    S    
C12   O8    A    
C13   C15   A    
C7    H9    S    
C9    C35   S    
C19   N1    S    
Cu1   O4    S    
C16   C18   A    
C12   C14   S    
C23   H7    S    
C28   H14   S    
C14   C16   A    
C36   N8    T    
C2    C5    S    
C27   H11   S    
C15   H2    S    
Cu1   O5    S    
C7    C9    A    
Cu2   O6    S    
C20   C22   A    
C30   H18   S    
C3    C5    A    
C4    C26   A    
C10   C36   S    
C27   C28   S    
C9    N3    A    
C21   C23   A    
C26   O10   S    
C11   C13   S    
C1    O3    A    
Cu2   N4    S    
C17   C19   A    
C18   C20   A    
C32   H22   S    
C3    C33   S    
C5    C26   A    
C6    C25   A    
Cu1   O1    S    
C16   H1    S    
C8    C10   A    
C28   C29   S    
Cu1   Cu2   S    
C17   H4    S    
C18   H3    S    
