data_mof_unit_5719.cif
_audit_creation_date              2012-12-11T16:09:34-0500
_audit_creation_method            fapswitch 2.2
_symmetry_space_group_name_H-M    P1
_symmetry_Int_Tables_number       1
_space_group_crystal_system       triclinic
_cell_length_a                    6.94615
_cell_length_b                    21.345247
_cell_length_c                    23.592919
_cell_angle_alpha                 90.061156
_cell_angle_beta                  89.867469
_cell_angle_gamma                 89.887588
_cell_volume                      3498.04000293

loop_
_atom_site_label
_atom_site_type_symbol
_atom_type_description
_atom_site_fract_x
_atom_site_fract_y
_atom_site_fract_z
_atom_type_partial_charge
O1    O     O_R   0.494270 0.443530 0.442350 -0.534821
O2    O     O_R   0.824060 0.436290 0.557250 -0.537902
O3    O     O_R   0.994370 0.556470 0.557650 -0.534394
C1    C     C_R   0.655234 0.421212 0.576762 0.727971
O4    O     O_R   0.823990 0.436120 0.442760 -0.538016
O5    O     O_R   0.994300 0.556300 0.442340 -0.534675
C2    C     C_R   0.655552 0.420817 0.423319 0.725916
O6    O     O_R   0.494350 0.443700 0.557660 -0.534847
O7    O     O_3   0.660800 0.539430 0.500000 -0.366560
V1    V     V_3+5 0.935650 0.492690 0.500000 1.413472
O8    O     O_R   0.324020 0.563710 0.442750 -0.537992
C3    C     C_R   0.155207 0.578964 0.423335 0.726857
O9    O     O_R   0.324090 0.563880 0.557240 -0.537299
C4    C     C_R   0.155024 0.579053 0.576669 0.727681
V2    V     V_3+5 0.435660 0.507310 0.500000 1.414106
O10   O     O_3   0.160640 0.460570 0.500000 -0.367409
C5    C     C_3   0.064952 0.719567 0.797853 -0.137978
C6    C     C_3   0.246871 0.707098 0.761275 -0.138649
H1    H     H_    0.360202 0.671877 0.770627 0.105998
H2    H     H_    0.027837 0.695014 0.837852 0.107721
H3    H     H_    0.420145 0.802756 0.761035 0.107937
C7    C     C_1   0.144604 0.624803 0.622139 -0.193965
C8    C     C_1   0.074992 0.874421 0.877090 -0.194614
C9    C     C_3   0.939883 0.720528 0.743495 -0.137592
C10   C     C_3   0.121645 0.708671 0.707542 0.170681
C11   C     C_3   0.972802 0.792091 0.737981 -0.139922
C12   C     C_3   0.098027 0.790519 0.791714 0.170585
C13   C     C_3   0.154720 0.779623 0.701405 -0.139640
C14   C     C_3   0.279789 0.778661 0.755761 -0.138394
C15   C     C_1   0.134666 0.662715 0.660502 -0.066711
C16   C     C_1   0.084979 0.836490 0.838742 -0.067048
H4    H     H_    0.191836 0.804174 0.661404 0.105816
H5    H     H_    0.859467 0.827310 0.728629 0.104434
H6    H     H_    0.799529 0.696432 0.738222 0.108436
C17   C     C_3   0.253868 0.811492 0.251161 -0.328389
C18   C     C_3   0.902705 0.786436 0.240042 -0.330512
C19   C     C_3   0.917109 0.738337 0.289449 -0.328809
H7    H     H_    0.240561 0.787559 0.341557 0.136334
H8    H     H_    0.219010 0.858624 0.268653 0.133876
H9    H     H_    0.787232 0.771690 0.210271 0.135652
H10   H     H_    0.860816 0.833072 0.257288 0.137648
H11   H     H_    0.882076 0.762083 0.330212 0.136778
H12   H     H_    0.808436 0.700727 0.283177 0.135537
C20   C     C_1   0.145285 0.624908 0.377967 -0.192890
C21   C     C_3   0.097299 0.791586 0.207911 0.292645
C22   C     C_3   0.268369 0.763347 0.300546 -0.328119
C23   C     C_3   0.121917 0.709253 0.292459 0.292589
C24   C     C_3   0.165076 0.677423 0.234634 -0.329652
C25   C     C_3   0.150740 0.725523 0.185246 -0.327471
C26   C     C_1   0.135387 0.662981 0.339702 -0.102277
C27   C     C_1   0.083841 0.837629 0.160518 -0.101821
C28   C     C_1   0.073953 0.875261 0.121919 -0.189790
H13   H     H_    0.290814 0.727493 0.162322 0.136649
H14   H     H_    0.040318 0.709569 0.154355 0.136919
H15   H     H_    0.311945 0.656493 0.235190 0.135290
H16   H     H_    0.395944 0.815166 0.229510 0.136618
H17   H     H_    0.417270 0.744084 0.302326 0.137331
H18   H     H_    0.061435 0.638581 0.227256 0.136143
C29   C     C_3   0.430296 0.254916 0.704977 -0.333008
C30   C     C_3   0.790989 0.244447 0.705914 -0.331718
C31   C     C_3   0.774786 0.195526 0.754613 -0.362132
H19   H     H_    0.407495 0.157963 0.734337 0.139120
H20   H     H_    0.420151 0.230728 0.663284 0.140165
H21   H     H_    0.930515 0.269677 0.709432 0.135841
H22   H     H_    0.790981 0.219742 0.664357 0.141513
H23   H     H_    0.764394 0.147642 0.736163 0.146264
H24   H     H_    0.908241 0.196628 0.780613 0.137997
C32   C     C_1   0.573976 0.123830 0.877146 -0.184396
C33   C     C_3   0.621871 0.292072 0.708335 0.276543
C34   C     C_3   0.416963 0.205594 0.753361 -0.332541
C35   C     C_3   0.596024 0.209161 0.792515 0.254468
C36   C     C_3   0.619486 0.277338 0.816258 -0.093537
C37   C     C_3   0.628498 0.325930 0.766588 -0.358752
C38   C     C_1   0.583489 0.161982 0.839035 -0.085505
C39   C     C_1   0.635526 0.338055 0.660949 -0.091854
C40   C     C_1   0.645355 0.375738 0.622423 -0.194132
H25   H     H_    0.509912 0.360828 0.769094 0.140460
H26   H     H_    0.764493 0.353223 0.769863 0.126760
H27   H     H_    0.305978 0.287693 0.707803 0.131266
H28   H     H_    0.282287 0.212200 0.778029 0.139135
H29   H     H_    0.763979 0.278604 0.836576 0.096485
C41   C     C_3   0.526189 0.319432 0.240172 -0.330358
C42   C     C_3   0.830405 0.267226 0.273841 -0.358304
C43   C     C_3   0.815263 0.219291 0.223526 -0.086027
H30   H     H_    0.582385 0.289775 0.152553 0.134526
H31   H     H_    0.608902 0.360907 0.225319 0.136953
H32   H     H_    0.907924 0.247370 0.310813 0.135281
H33   H     H_    0.917221 0.308250 0.259945 0.125341
H34   H     H_    0.880998 0.243154 0.186198 0.091267
C44   C     C_1   0.571843 0.123871 0.121681 -0.194592
C45   C     C_3   0.627035 0.290000 0.292474 0.277733
C46   C     C_3   0.509103 0.271114 0.190969 -0.367988
C47   C     C_3   0.599094 0.207197 0.208032 0.250858
C48   C     C_3   0.488553 0.184308 0.261417 -0.323847
C49   C     C_3   0.508697 0.231923 0.311030 -0.340748
C50   C     C_1   0.581218 0.161465 0.160340 -0.079751
C51   C     C_1   0.639370 0.336521 0.339656 -0.092140
C52   C     C_1   0.647192 0.374742 0.377922 -0.195643
H35   H     H_    0.362787 0.246900 0.325291 0.143205
H36   H     H_    0.579070 0.208805 0.347785 0.133865
H37   H     H_    0.333673 0.179203 0.251149 0.168001
H38   H     H_    0.379857 0.336177 0.252249 0.140820
H39   H     H_    0.354631 0.264745 0.179878 0.145657
H40   H     H_    0.539187 0.137220 0.274693 0.148860
O11   O     O_R   0.724990 0.055630 0.941600 -0.535665
O12   O     O_R   0.395220 0.063160 0.056480 -0.544124
O13   O     O_R   0.225040 0.942970 0.056870 -0.536908
C53   C     C_R   0.563568 0.078342 0.075978 0.723218
O14   O     O_R   0.395270 0.063000 0.941990 -0.535641
O15   O     O_R   0.225080 0.942800 0.941570 -0.534261
C54   C     C_R   0.564100 0.078107 0.922529 0.729385
O16   O     O_R   0.724940 0.055790 0.056910 -0.532449
O17   O     O_3   0.558580 0.959880 0.999250 -0.366368
V3    V     V_3+5 0.283680 0.006590 0.999220 1.409114
O18   O     O_R   0.895380 0.935350 0.941950 -0.537543
C55   C     C_R   0.064478 0.920190 0.922542 0.728194
O19   O     O_R   0.895330 0.935520 0.056440 -0.536585
C56   C     C_R   0.064083 0.920612 0.076105 0.725848
V4    V     V_3+5 0.783690 0.991900 0.999180 1.417010
O20   O     O_3   0.058660 0.038680 0.999200 -0.367675
C57   C     C_R   0.473083 0.294492 0.862215 0.120550
C58   C     C_R   0.282260 0.312112 0.849359 -0.128533
C59   C     C_R   0.152061 0.326780 0.892691 -0.132544
C60   C     C_R   0.209297 0.323552 0.949279 -0.094114
C61   C     C_R   0.397499 0.306129 0.962705 -0.115195
C62   C     C_R   0.528827 0.291926 0.919569 -0.142714
H41   H     H_    0.233327 0.315255 0.806019 0.097889
H42   H     H_    0.006697 0.340948 0.882397 0.099968
H43   H     H_    0.107907 0.334717 0.982718 0.096545
H44   H     H_    0.441820 0.303613 0.006605 0.099188
H45   H     H_    0.673799 0.278239 0.931067 0.094502
C63   C     C_R   0.929257 0.158718 0.232536 0.100332
C64   C     C_R   0.926545 0.125848 0.284368 -0.133424
C65   C     C_R   0.025952 0.069194 0.290115 -0.132622
C66   C     C_R   0.127227 0.044079 0.244241 -0.118056
C67   C     C_R   0.129952 0.075693 0.192536 -0.107605
C68   C     C_R   0.032870 0.132750 0.186692 -0.144682
H46   H     H_    0.847129 0.143371 0.320475 0.101570
H47   H     H_    0.023089 0.044458 0.330129 0.104128
H48   H     H_    0.202807 0.999962 0.248673 0.101654
H49   H     H_    0.206878 0.055819 0.156902 0.122041
H50   H     H_    0.036299 0.156217 0.146028 0.104697

loop_
_geom_bond_atom_site_label_1
_geom_bond_atom_site_label_2
_ccdc_geom_bond_type
C24   H15   S    
C42   H32   S    
C68   H50   S    
C47   C48   S    
C2    C52   S    
C36   C57   S    
C12   C14   S    
O2    C1    A    
C1    O6    A    
C51   C52   T    
C66   C67   A    
C10   C13   S    
C11   C12   S    
O12   C53   A    
O12   V3    S    
C30   C33   S    
C13   C14   S    
C9    C11   S    
O19   V4    S    
O5    C3    A    
C49   H35   S    
C21   C27   S    
C32   C38   T    
V2    O10   S    
C19   H11   S    
C5    H2    S    
C41   C46   S    
H19   C34   S    
C6    H1    S    
C58   H41   S    
C18   H9    S    
C46   H39   S    
C8    C55   S    
O17   V4    S    
O8    V2    S    
C31   H23   S    
C42   C43   S    
C48   H37   S    
C63   C64   A    
C37   H26   S    
C33   C37   S    
C34   C35   S    
O1    V2    S    
C19   C23   S    
O7    V1    S    
O15   V3    S    
O13   C56   A    
C36   H29   S    
C31   C35   S    
C42   H33   S    
O11   C54   A    
C48   H40   S    
C64   H46   S    
C25   H14   S    
O9    C4    A    
C18   H10   S    
C6    C10   S    
C61   H44   S    
C13   H4    S    
H30   C46   S    
C23   C26   S    
C66   H48   S    
C5    C9    S    
C1    C40   S    
C34   H28   S    
C27   C28   T    
C5    C12   S    
C59   C60   A    
C9    C10   S    
C29   H27   S    
C65   H47   S    
O4    C2    A    
C49   H36   S    
C67   C68   A    
C63   C68   A    
C41   H31   S    
C12   C16   S    
C43   C63   S    
C9    H6    S    
C41   C45   S    
C53   O16   A    
C30   C31   S    
C32   C54   S    
C8    C16   T    
C19   H12   S    
C17   H8    S    
C39   C40   T    
O13   V3    S    
C67   H49   S    
C35   C38   S    
C31   H24   S    
C11   H5    S    
C23   C24   S    
C21   C25   S    
V4    O20   S    
C5    C6    S    
C41   H38   S    
C18   C21   S    
C6    C14   S    
C45   C51   S    
C24   H18   S    
C57   C58   A    
O3    C4    A    
O14   V3    S    
C29   C33   S    
C24   C25   S    
C30   H22   S    
C47   C50   S    
O18   V4    S    
O9    V2    S    
C22   H17   S    
C61   C62   A    
C43   H34   S    
C17   C21   S    
O15   C55   A    
O17   V3    S    
C20   C26   T    
C10   C15   S    
C22   C23   S    
C18   C19   S    
C7    C15   T    
C17   H16   S    
O1    C2    A    
C11   C13   S    
C36   C37   S    
O5    V1    S    
O16   V4    S    
O8    C3    A    
C44   C50   T    
C65   C66   A    
O6    V2    S    
C42   C45   S    
C29   H20   S    
C30   H21   S    
C4    C7    S    
O14   C54   A    
O7    V2    S    
C44   C53   S    
C57   C62   A    
C3    C20   S    
O3    V1    S    
V1    O10   S    
O19   C56   A    
C59   H42   S    
C64   C65   A    
H3    C14   S    
C62   H45   S    
C25   H13   S    
C46   C47   S    
C60   H43   S    
C33   C39   S    
C43   C47   S    
C48   C49   S    
H7    C22   S    
C29   C34   S    
C45   C49   S    
O4    V1    S    
C35   C36   S    
C37   H25   S    
O11   V4    S    
C58   C59   A    
C17   C22   S    
V3    O20   S    
O18   C55   A    
C28   C56   S    
C60   C61   A    
O2    V1    S    
