data_mof_unit_32036.cif
_audit_creation_date              2012-12-10T17:28:38-0500
_audit_creation_method            fapswitch 2.2
_symmetry_space_group_name_H-M    P1
_symmetry_Int_Tables_number       1
_space_group_crystal_system       triclinic
_cell_length_a                    10.363079
_cell_length_b                    12.018453
_cell_length_c                    12.898396
_cell_angle_alpha                 92.920577
_cell_angle_beta                  90.786545
_cell_angle_gamma                 85.939064
_cell_volume                      1600.27441228

loop_
_atom_site_label
_atom_site_type_symbol
_atom_type_description
_atom_site_fract_x
_atom_site_fract_y
_atom_site_fract_z
_atom_type_partial_charge
C1    C     C_R   0.496567 0.521683 0.700374 0.915542
C2    C     C_R   0.506797 0.561680 0.132143 -0.232436
C3    C     C_R   0.497939 0.446781 0.974460 0.171489
C4    C     C_R   0.502061 0.553219 0.025539 0.171488
C5    C     C_R   0.597357 0.924557 0.394566 0.419563
C6    C     C_R   0.402644 0.075443 0.605434 0.419559
C7    C     C_R   0.561943 0.815987 0.407394 -0.110739
C8    C     C_R   0.438057 0.184013 0.592607 -0.110739
C9    C     C_R   0.419405 0.873994 0.544672 0.327092
C10   C     C_R   0.580595 0.126006 0.455327 0.327091
C11   C     C_R   0.454144 0.987283 0.538203 -0.085794
C12   C     C_R   0.503433 0.478317 0.299626 0.915542
C13   C     C_R   0.545856 0.012717 0.461797 -0.085799
C14   C     C_R   0.740105 0.502424 0.518924 0.917761
C15   C     C_R   0.259895 0.497576 0.481076 0.917762
C16   C     C_R   0.921868 0.309600 0.593420 0.182514
C17   C     C_R   0.078132 0.690399 0.406580 0.182515
C18   C     C_R   0.986191 0.205345 0.570567 -0.320154
C19   C     C_R   0.013808 0.794654 0.429432 -0.320158
C20   C     C_R   0.079383 0.192122 0.492162 0.435729
C21   C     C_R   0.920616 0.807878 0.507837 0.435726
C22   C     C_R   0.116729 0.286659 0.444203 0.203578
C23   C     C_R   0.505454 0.465560 0.188381 -0.056339
C24   C     C_R   0.883271 0.713341 0.555797 0.203579
C25   C     C_R   0.063799 0.394463 0.477348 -0.101931
C26   C     C_R   0.936201 0.605537 0.522652 -0.101930
C27   C     C_R   0.953786 0.403648 0.539767 0.001073
C28   C     C_R   0.046214 0.596351 0.460233 0.001073
C29   C     C_R   0.121296 0.493738 0.455867 -0.121019
C30   C     C_R   0.878704 0.506262 0.544133 -0.121019
C31   C     C_R   0.494546 0.534440 0.811619 -0.056338
C32   C     C_R   0.500693 0.649658 0.969369 -0.171749
C33   C     C_R   0.499307 0.350342 0.030631 -0.171750
C34   C     C_R   0.496794 0.640279 0.862093 -0.139311
C35   C     C_R   0.503207 0.359720 0.137907 -0.139311
C36   C     C_R   0.493203 0.438320 0.867857 -0.232436
H1    H     H_    0.961806 0.134242 0.612762 0.206651
H2    H     H_    0.608158 0.748099 0.360434 0.158635
H3    H     H_    0.892613 0.967580 0.491134 0.350057
H4    H     H_    0.107382 0.032419 0.508862 0.350057
H5    H     H_    0.710027 0.872442 0.278973 0.332981
H6    H     H_    0.289986 0.127554 0.721032 0.332987
H7    H     H_    0.038193 0.865757 0.387236 0.206649
H8    H     H_    0.510064 0.643667 0.171007 0.170349
H9    H     H_    0.489936 0.356332 0.828993 0.170348
H10   H     H_    0.502999 0.284760 0.181005 0.200047
H11   H     H_    0.497001 0.715240 0.818995 0.200047
H12   H     H_    0.503262 0.731626 0.008207 0.163017
H13   H     H_    0.496738 0.268374 0.991793 0.163017
H14   H     H_    0.391843 0.251900 0.639566 0.158635
I1    I     I_    0.799692 0.322181 0.724738 -0.312756
I2    I     I_    0.200308 0.677819 0.275261 -0.312757
I3    I     I_    0.235459 0.261131 0.310366 -0.248477
I4    I     I_    0.764541 0.738869 0.689634 -0.248477
I5    I     I_    0.719737 0.180822 0.352335 -0.211129
I6    I     I_    0.280262 0.819178 0.647664 -0.211125
N1    N     N_R   0.523130 0.207800 0.519340 -0.143295
N2    N     N_R   0.476870 0.792200 0.480660 -0.143297
O1    O     O_R   0.506170 0.421700 0.658830 -0.630756
O2    O     O_3   0.137500 0.088648 0.462844 -0.737596
O3    O     O_3   0.683667 0.943483 0.317992 -0.732270
O4    O     O_3   0.316335 0.056516 0.682009 -0.732275
O5    O     O_R   0.493830 0.578300 0.341170 -0.630756
O6    O     O_R   0.491330 0.609310 0.646410 -0.595993
O7    O     O_R   0.508670 0.390690 0.353590 -0.595993
O8    O     O_R   0.690650 0.406190 0.506220 -0.578124
O9    O     O_R   0.309350 0.593810 0.493780 -0.578124
O10   O     O_R   0.675800 0.593810 0.493800 -0.623559
O11   O     O_R   0.324200 0.406190 0.506200 -0.623558
O12   O     O_3   0.862500 0.911352 0.537155 -0.737598
Zn1   Zn    Zn3+2 0.509910 0.374730 0.508290 0.997358
Zn2   Zn    Zn3+2 0.490090 0.625270 0.491710 0.997357

loop_
_geom_bond_atom_site_label_1
_geom_bond_atom_site_label_2
_ccdc_geom_bond_type
C2    C4    A    
C5    C7    A    
C26   C30   A    
H4    O2    S    
C7    H2    S    
C8    N1    A    
C25   C27   A    
C32   H12   S    
C12   O7    A    
H6    O4    S    
C7    N2    A    
C5    C13   A    
O8    Zn1   S    
C6    C11   A    
C16   I1    S    
H5    O3    S    
C21   O12   S    
O10   Zn2   S    
C15   O9    A    
O1    Zn1   S    
C6    O4    S    
C16   C27   A    
C1    O1    A    
C14   O8    A    
C31   C34   A    
C5    O3    S    
C36   H9    S    
C9    I6    S    
C26   C28   A    
N1    Zn1   S    
C27   C30   A    
C10   I5    S    
C9    C11   A    
C12   C23   S    
N2    Zn2   S    
C4    C32   A    
C3    C36   A    
C14   C30   S    
C17   I2    S    
C28   C29   A    
C17   C19   A    
H3    O12   S    
C20   C22   A    
C15   C29   S    
C22   I3    S    
C23   C35   A    
O6    Zn2   S    
C1    C31   S    
C25   C29   A    
C15   O11   A    
C20   O2    S    
C3    C33   A    
C24   I4    S    
C3    C4    A    
C1    O6    A    
C8    H14   S    
C11   C13   A    
C10   N1    A    
O5    Zn2   S    
C22   C25   A    
C18   C20   A    
C16   C18   A    
O9    Zn2   S    
C21   C24   A    
C2    H8    S    
C2    C23   A    
O11   Zn1   S    
C12   O5    A    
C14   O10   A    
C31   C36   A    
C9    N2    A    
C6    C8    A    
C34   H11   S    
C19   C21   A    
C32   C34   A    
O7    Zn1   S    
C35   H10   S    
C33   H13   S    
C18   H1    S    
C33   C35   A    
C17   C28   A    
C24   C26   A    
C10   C13   A    
C19   H7    S    
