data_mof_unit_39046.cif
_audit_creation_date              2012-12-10T20:21:46-0500
_audit_creation_method            fapswitch 2.2
_symmetry_space_group_name_H-M    P1
_symmetry_Int_Tables_number       1
_space_group_crystal_system       triclinic
_cell_length_a                    19.341672
_cell_length_b                    18.482809
_cell_length_c                    8.880951
_cell_angle_alpha                 90.000015
_cell_angle_beta                  89.629001
_cell_angle_gamma                 89.994769
_cell_volume                      3174.77065414

loop_
_atom_site_label
_atom_site_type_symbol
_atom_type_description
_atom_site_fract_x
_atom_site_fract_y
_atom_site_fract_z
_atom_type_partial_charge
C1    C     C_R   0.365949 0.500070 0.500346 0.858275
C2    C     C_R   0.476235 0.198022 0.625762 -0.289019
C3    C     C_R   0.500000 0.841244 0.500000 0.118627
C4    C     C_R   0.499998 0.158520 0.500001 0.123424
C5    C     C_R   0.487194 0.961721 0.367147 -0.190451
C6    C     C_R   0.512953 0.037721 0.632812 -0.187946
C7    C     C_R   0.512804 0.961718 0.632854 -0.190421
C8    C     C_R   0.487043 0.037724 0.367191 -0.187925
C9    C     C_R   0.499998 0.077091 0.500001 0.126628
C10   C     C_R   0.499999 0.922494 0.500000 0.128067
C11   C     C_R   0.499957 0.500019 0.218507 0.945608
C12   C     C_R   0.634051 0.500062 0.499622 0.858237
C13   C     C_R   0.500032 0.500019 0.781493 0.945515
C14   C     C_1   0.499978 0.500096 0.065410 -0.244595
C15   C     C_1   0.499999 0.500097 0.934590 -0.244755
C16   C     C_R   0.746299 0.452759 0.405468 -0.021051
C17   C     C_R   0.255650 0.549254 0.404123 -0.021712
C18   C     C_R   0.253652 0.452777 0.594188 -0.021037
C19   C     C_R   0.744407 0.549245 0.595515 -0.021660
C20   C     C_R   0.818053 0.453880 0.408483 -0.219461
C21   C     C_R   0.183845 0.549320 0.403382 -0.220688
C22   C     C_R   0.181899 0.453875 0.590893 -0.219455
C23   C     C_R   0.472320 0.725991 0.619156 0.033183
C24   C     C_R   0.816215 0.549341 0.595960 -0.220691
C25   C     C_R   0.852950 0.501755 0.503024 0.081754
C26   C     C_R   0.147057 0.501732 0.496195 0.081755
C27   C     C_R   0.709062 0.500583 0.500079 -0.120139
C28   C     C_R   0.290940 0.500608 0.499708 -0.120128
C29   C     C_R   0.964178 0.567916 0.500866 -0.187126
C30   C     C_R   0.035745 0.436416 0.497119 -0.187756
C31   C     C_R   0.035827 0.567910 0.498080 -0.187104
C32   C     C_R   0.964265 0.436422 0.501841 -0.187732
C33   C     C_R   0.071814 0.502123 0.496009 0.130186
C34   C     C_R   0.523083 0.273943 0.376516 0.026677
C35   C     C_R   0.928194 0.502136 0.502990 0.130193
C36   C     C_R   0.712566 0.403655 0.296359 0.143565
C37   C     C_R   0.721503 0.328457 0.308443 -0.137042
C38   C     C_R   0.692900 0.282176 0.200992 -0.156941
C39   C     C_R   0.655875 0.310650 0.080070 -0.140186
C40   C     C_R   0.646926 0.385395 0.067121 -0.130888
C41   C     C_R   0.674933 0.431876 0.175054 -0.139265
C42   C     C_R   0.292584 0.599365 0.301600 0.136980
C43   C     C_R   0.301611 0.672117 0.342415 -0.117104
C44   C     C_R   0.339745 0.718601 0.249410 -0.132322
C45   C     C_R   0.527681 0.725986 0.380845 0.033278
C46   C     C_R   0.368243 0.692946 0.114540 -0.107517
C47   C     C_R   0.358645 0.620784 0.072477 -0.121998
C48   C     C_R   0.321271 0.573884 0.166083 -0.159131
C49   C     C_R   0.287331 0.403680 0.703411 0.143533
C50   C     C_R   0.278379 0.328483 0.691395 -0.137067
C51   C     C_R   0.306976 0.282213 0.798885 -0.156842
C52   C     C_R   0.344009 0.310695 0.919778 -0.140161
C53   C     C_R   0.352971 0.385439 0.932666 -0.130905
C54   C     C_R   0.324969 0.431909 0.824695 -0.139249
C55   C     C_R   0.707530 0.599357 0.698150 0.137082
C56   C     C_R   0.476913 0.273948 0.623483 0.026701
C57   C     C_R   0.698718 0.672180 0.657633 -0.117574
C58   C     C_R   0.660648 0.718685 0.750733 -0.132317
C59   C     C_R   0.631999 0.692978 0.885406 -0.107538
C60   C     C_R   0.641381 0.620742 0.927174 -0.121936
C61   C     C_R   0.678689 0.573824 0.833469 -0.158706
C62   C     C_R   0.472051 0.801907 0.621716 -0.301276
C63   C     C_R   0.523761 0.198016 0.374239 -0.289021
C64   C     C_R   0.527949 0.801901 0.378285 -0.301354
H1    H     H_    0.846881 0.418621 0.333308 0.139332
H2    H     H_    0.541187 0.303661 0.279315 0.148407
H3    H     H_    0.549791 0.696247 0.287345 0.118697
H4    H     H_    0.458805 0.303670 0.720682 0.148365
H5    H     H_    0.449142 0.829515 0.717261 0.130239
H6    H     H_    0.543655 0.170669 0.275295 0.128697
H7    H     H_    0.550858 0.829506 0.282741 0.130247
H8    H     H_    0.456340 0.170679 0.724705 0.128699
H9    H     H_    0.476010 0.933614 0.263153 0.124184
H10   H     H_    0.524447 0.065593 0.736862 0.124658
H11   H     H_    0.523989 0.933610 0.736847 0.124196
H12   H     H_    0.156654 0.585689 0.328437 0.138677
H13   H     H_    0.475549 0.065598 0.263141 0.124660
H14   H     H_    0.750724 0.305817 0.400795 0.123808
H15   H     H_    0.699668 0.224258 0.211125 0.131113
H16   H     H_    0.633981 0.274802 0.996631 0.127695
H17   H     H_    0.618677 0.407215 0.972775 0.137344
H18   H     H_    0.668277 0.489740 0.163070 0.099858
H19   H     H_    0.280287 0.692314 0.447361 0.118839
H20   H     H_    0.347454 0.774416 0.282178 0.129123
H21   H     H_    0.397780 0.728948 0.042675 0.110195
H22   H     H_    0.380596 0.601166 0.967827 0.126321
H23   H     H_    0.153027 0.418616 0.665975 0.139318
H24   H     H_    0.314970 0.517814 0.133794 0.117007
H25   H     H_    0.249162 0.305834 0.599053 0.123791
H26   H     H_    0.300200 0.224295 0.788799 0.131096
H27   H     H_    0.365900 0.274855 0.003243 0.127688
H28   H     H_    0.381229 0.407267 0.026984 0.137340
H29   H     H_    0.331644 0.489771 0.836620 0.099789
H30   H     H_    0.720163 0.692422 0.552844 0.118883
H31   H     H_    0.653108 0.774558 0.718195 0.129072
H32   H     H_    0.602515 0.728996 0.957350 0.110209
H33   H     H_    0.619315 0.601085 0.031675 0.126308
H34   H     H_    0.843450 0.585721 0.670791 0.138664
H35   H     H_    0.684823 0.517702 0.865533 0.116782
H36   H     H_    0.936923 0.619111 0.499910 0.130640
H37   H     H_    0.062854 0.385140 0.493977 0.130697
H38   H     H_    0.063081 0.619101 0.499057 0.130652
H39   H     H_    0.937159 0.385150 0.505018 0.130696
H40   H     H_    0.450210 0.696256 0.712656 0.118671
N1    N     N_R   0.500000 0.689440 0.500000 -0.082528
N2    N     N_R   0.500000 0.310560 0.500000 -0.094104
O1    O     O_R   0.398180 0.560840 0.499960 -0.612562
O2    O     O_R   0.601820 0.439160 0.500040 -0.608556
O3    O     O_R   0.601820 0.560840 0.500040 -0.612447
O4    O     O_R   0.398180 0.439160 0.499960 -0.608507
O5    O     O_R   0.500000 0.560800 0.285330 -0.620606
O6    O     O_R   0.500000 0.439200 0.714670 -0.627195
O7    O     O_R   0.500000 0.560800 0.714670 -0.620617
O8    O     O_R   0.500000 0.439200 0.285330 -0.627190
Zn1   Zn    Zn3+2 0.500000 0.581210 0.500000 0.951802
Zn2   Zn    Zn3+2 0.500000 0.418790 0.500000 0.949778

loop_
_geom_bond_atom_site_label_1
_geom_bond_atom_site_label_2
_ccdc_geom_bond_type
C7    C10   A    
C21   C26   A    
C43   H19   S    
C58   H31   S    
C34   H2    S    
C6    C9    A    
C3    C64   A    
C21   H12   S    
C24   H34   S    
C36   C37   A    
C31   H38   S    
C13   O6    A    
C51   H26   S    
C38   C39   A    
C11   C14   S    
C20   C25   A    
C49   C54   A    
C23   N1    A    
C64   H7    S    
C11   O8    A    
C17   C42   S    
C54   H29   S    
C50   H25   S    
C23   C62   A    
C47   C48   A    
C44   C46   A    
C8    C9    A    
C45   H3    S    
C1    C28   S    
C48   H24   S    
C19   C27   A    
C42   C43   A    
C30   C33   A    
C46   H21   S    
C16   C27   A    
C59   C60   A    
C36   C41   A    
C61   H35   S    
C38   H15   S    
C2    H8    S    
C12   O3    A    
C45   N1    A    
C6    H10   S    
C12   C27   S    
C11   O5    A    
C51   C52   A    
C34   N2    A    
C32   C35   A    
C20   H1    S    
C18   C28   A    
C24   C25   A    
C60   H33   S    
C39   C40   A    
C12   O2    A    
C7    H11   S    
C58   C59   A    
C56   H4    S    
C17   C21   A    
C62   H5    S    
N2    Zn2   S    
C60   C61   A    
C2    C4    A    
C43   C44   A    
C47   H22   S    
C37   C38   A    
C1    O4    A    
C26   C33   S    
C23   H40   S    
C4    C63   A    
C63   H6    S    
C16   C20   A    
C56   N2    A    
C53   H28   S    
C31   C33   A    
C50   C51   A    
C32   H39   S    
C42   C48   A    
C22   H23   S    
O1    Zn1   S    
C1    O1    A    
C40   C41   A    
C25   C35   S    
C57   H30   S    
C55   C57   A    
C8    H13   S    
C59   H32   S    
O4    Zn2   S    
O6    Zn2   S    
C52   C53   A    
C3    C62   A    
C19   C55   S    
C46   C47   A    
C29   H36   S    
C18   C22   A    
C17   C28   A    
C40   H17   S    
N1    Zn1   S    
C44   H20   S    
C5    C8    A    
O8    Zn2   S    
C53   C54   A    
C6    C7    A    
C37   H14   S    
C29   C35   A    
C45   C64   A    
C39   H16   S    
O2    Zn2   S    
C13   C15   S    
C19   C24   A    
C5    C10   A    
C29   C31   A    
C3    C10   S    
C2    C56   A    
C16   C36   S    
C30   C32   A    
C57   C58   A    
C41   H18   S    
C55   C61   A    
C30   H37   S    
C34   C63   A    
C5    H9    S    
O3    Zn1   S    
C49   C50   A    
C22   C26   A    
C14   C15   T    
C52   H27   S    
O5    Zn1   S    
C4    C9    S    
C13   O7    A    
C18   C49   S    
O7    Zn1   S    
