data_mof_unit_19383.cif
_audit_creation_date              2012-12-10T19:00:43-0500
_audit_creation_method            fapswitch 2.2
_symmetry_space_group_name_H-M    P1
_symmetry_Int_Tables_number       1
_space_group_crystal_system       triclinic
_cell_length_a                    15.029525
_cell_length_b                    10.828465
_cell_length_c                    9.555778
_cell_angle_alpha                 90.313342
_cell_angle_beta                  90.374129
_cell_angle_gamma                 90.478673
_cell_volume                      1555.06004659

loop_
_atom_site_label
_atom_site_type_symbol
_atom_type_description
_atom_site_fract_x
_atom_site_fract_y
_atom_site_fract_z
_atom_type_partial_charge
C1    C     C_R   0.497920 0.262396 0.499605 0.791375
C2    C     C_R   0.906632 0.562540 0.394898 0.113569
C3    C     C_R   0.953892 0.355572 0.696537 -0.216922
C4    C     C_R   0.046680 0.358110 0.698439 -0.211526
C5    C     C_R   0.093399 0.427430 0.599175 0.108848
C6    C     C_R   0.046614 0.493961 0.495995 0.060022
C7    C     C_R   0.093084 0.561342 0.393169 0.109078
C8    C     C_R   0.046064 0.628129 0.291980 -0.211655
C9    C     C_R   0.953309 0.629312 0.293343 -0.222822
C10   C     C_R   0.186152 0.431146 0.600800 -0.249290
C11   C     C_R   0.232123 0.497478 0.498305 -0.062752
C12   C     C_R   0.328787 0.499379 0.499562 0.804269
C13   C     C_R   0.185839 0.561210 0.393968 -0.248373
C14   C     C_R   0.486734 0.064579 0.624555 0.116165
C15   C     C_R   0.488541 0.129320 0.498808 -0.094113
C16   C     C_R   0.478200 0.063570 0.372398 -0.218709
C17   C     C_R   0.478756 0.934761 0.372769 -0.223019
C18   C     C_R   0.489741 0.870899 0.499535 -0.094697
C19   C     C_R   0.487650 0.937413 0.624929 0.135981
C20   C     C_3   0.549567 0.934144 0.747637 -0.495415
C21   C     C_3   0.547675 0.074105 0.748149 -0.450439
C22   C     C_R   0.532126 0.599536 0.075066 0.183159
C23   C     C_R   0.498566 0.737732 0.500111 0.790558
C24   C     C_R   0.458910 0.408537 0.073349 -0.061117
C25   C     C_R   0.458460 0.408904 0.924549 -0.061209
C26   C     C_R   0.534844 0.597780 0.928004 0.186277
C27   C     C_3   0.628759 0.646273 0.929746 0.264049
C28   C     C_3   0.622738 0.653575 0.088524 -0.548718
C29   C     C_R   0.671212 0.499220 0.500178 0.812916
C30   C     C_R   0.814013 0.564040 0.397704 -0.267405
C31   C     C_R   0.767859 0.497040 0.499401 -0.067359
C32   C     C_R   0.813910 0.426304 0.597856 -0.244771
C33   C     C_R   0.906757 0.424568 0.597398 0.099678
C34   C     C_R   0.953308 0.493574 0.496016 0.060897
Cu1   Cu    Cu3+1 0.500000 0.499980 0.640670 0.966977
Cu2   Cu    Cu3+1 0.500000 0.500020 0.359330 0.943161
H1    H     H_    0.777821 0.618977 0.322337 0.136813
H2    H     H_    0.474940 0.886009 0.273597 0.161346
H3    H     H_    0.517795 0.892801 0.841299 0.187281
H4    H     H_    0.615840 0.896767 0.719731 0.189661
H5    H     H_    0.513990 0.113446 0.841326 0.191420
H6    H     H_    0.612918 0.117360 0.722558 0.200242
H7    H     H_    0.427032 0.333238 0.128074 0.127601
H8    H     H_    0.425935 0.334137 0.868228 0.126728
H9    H     H_    0.635772 0.736698 0.876830 0.054040
H10   H     H_    0.669381 0.591484 0.143699 0.236880
H11   H     H_    0.777347 0.373008 0.674505 0.165581
H12   H     H_    0.621432 0.749903 0.129174 0.147779
H13   H     H_    0.919125 0.300143 0.773039 0.141049
H14   H     H_    0.081904 0.305550 0.777141 0.143032
H15   H     H_    0.222704 0.380798 0.680072 0.142498
H16   H     H_    0.222131 0.612652 0.315366 0.147755
H17   H     H_    0.081031 0.680160 0.212575 0.143086
H18   H     H_    0.918077 0.682371 0.215068 0.143771
H19   H     H_    0.474181 0.110988 0.273076 0.158494
N1    N     N_R   0.500570 0.500930 0.147930 -0.167400
N2    N     N_R   0.500570 0.500890 0.852020 -0.165637
O1    O     O_R   0.500000 0.319640 0.618810 -0.586404
O2    O     O_R   0.500010 0.319680 0.381230 -0.588933
O3    O     O_R   0.370250 0.499950 0.618800 -0.587090
O4    O     O_R   0.370260 0.499990 0.381220 -0.584828
O5    O     O_R   0.499990 0.680320 0.618770 -0.587922
O6    O     O_R   0.500000 0.680360 0.381190 -0.585884
O7    O     O_R   0.629740 0.500010 0.618780 -0.533609
O8    O     O_R   0.629750 0.500050 0.381200 -0.584777
O9    O     O_3   0.690235 0.556200 0.886308 -0.528095
C35   C     C_3   0.778308 0.603356 0.897117 0.074758
H20   H     H_    0.784765 0.693075 0.954730 0.113743
H21   H     H_    0.804454 0.618405 0.790202 0.167455
C36   C     C_3   0.836220 0.509643 0.972102 -0.797604
H22   H     H_    0.827393 0.417064 0.923756 0.250071
H23   H     H_    0.907285 0.537842 0.965788 0.210230
H24   H     H_    0.816996 0.503769 0.083784 0.240203

loop_
_geom_bond_atom_site_label_1
_geom_bond_atom_site_label_2
_ccdc_geom_bond_type
C19   C20   S    
Cu2   O2    S    
C3    H13   S    
C7    C8    A    
C28   H10   S    
C26   C27   S    
Cu1   O1    S    
C14   C21   S    
C1    O2    A    
C30   C31   A    
C20   H4    S    
C3    C33   A    
C15   C16   A    
C18   C19   A    
C23   O5    A    
Cu1   Cu2   S    
C8    C9    A    
C36   H22   S    
C1    C15   S    
Cu2   O6    S    
C27   H9    S    
C23   O6    A    
O9    C35   S    
C29   O7    A    
C22   C28   S    
C25   N2    A    
C10   H15   S    
C25   H8    S    
C17   C18   A    
C35   H20   S    
C24   C25   A    
C20   H3    S    
Cu2   O8    S    
C16   C17   A    
C22   N1    A    
C18   C23   S    
C30   H1    S    
C4    H14   S    
Cu1   O3    S    
C35   H21   S    
Cu2   N1    S    
C13   H16   S    
C31   C32   A    
C36   H24   S    
C33   C34   A    
Cu1   O7    S    
C29   O8    A    
C32   H11   S    
C21   H5    S    
Cu2   O4    S    
C28   H12   S    
C14   C19   A    
C4    C5    A    
C8    H17   S    
C11   C12   S    
C6    C7    A    
C24   N1    A    
C2    C30   A    
Cu1   N2    S    
C35   C36   S    
C32   C33   A    
C16   H19   S    
C5    C10   A    
C29   C31   S    
C27   O9    S    
C1    O1    A    
C12   O4    A    
C11   C13   A    
C2    C34   A    
C5    C6    A    
Cu1   O5    S    
C17   H2    S    
C26   N2    A    
C10   C11   A    
C21   H6    S    
C12   O3    A    
C6    C34   A    
C7    C13   A    
C20   C21   S    
C22   C26   A    
C27   C28   S    
C24   H7    S    
C14   C15   A    
C36   H23   S    
C9    H18   S    
C2    C9    A    
C3    C4    A    
