data_mof_unit_59713.cif
_audit_creation_date              2012-12-11T15:37:22-0500
_audit_creation_method            fapswitch 2.2
_symmetry_space_group_name_H-M    P1
_symmetry_Int_Tables_number       1
_space_group_crystal_system       triclinic
_cell_length_a                    17.456296
_cell_length_b                    24.469832
_cell_length_c                    15.020397
_cell_angle_alpha                 90.322832
_cell_angle_beta                  126.395258
_cell_angle_gamma                 89.460408
_cell_volume                      5164.28634634

loop_
_atom_site_label
_atom_site_type_symbol
_atom_type_description
_atom_site_fract_x
_atom_site_fract_y
_atom_site_fract_z
_atom_type_partial_charge
C1    C     C_R   0.845796 0.650972 0.909672 0.867353
C2    C     C_R   0.187580 0.369856 0.092406 0.789500
C3    C     C_R   0.189093 0.626806 0.090910 0.803866
C4    C     C_R   0.846380 0.349190 0.909738 0.807060
C5    C     C_R   0.354686 0.153999 0.909635 0.861664
C6    C     C_R   0.691520 0.876130 0.091381 0.787310
C7    C     C_R   0.689701 0.125957 0.091377 0.780083
C8    C     C_R   0.348815 0.848386 0.909111 0.858144
C9    C     C_3   0.401180 0.499505 0.468018 -0.085047
C10   C     C_3   0.574713 0.500479 0.647477 -0.070437
C11   C     C_3   0.898055 0.999826 0.471924 -0.082022
C12   C     C_3   0.073704 0.000260 0.648114 -0.060713
C13   C     C_R   0.727884 0.279549 0.962157 -0.377319
C14   C     C_R   0.330402 0.677049 0.035081 -0.367441
C15   C     C_R   0.354320 0.318831 0.103245 -0.336398
C16   C     C_R   0.731414 0.721825 0.971653 -0.382390
C17   C     C_R   0.232314 0.778992 0.962322 -0.324200
C18   C     C_R   0.829651 0.178520 0.035643 -0.353939
C19   C     C_R   0.828811 0.823214 0.025629 -0.326970
C20   C     C_R   0.312575 0.277933 0.906926 -0.404243
C21   C     C_R   0.185727 0.732662 0.956989 0.759951
C22   C     C_R   0.874646 0.226011 0.038796 0.881000
C23   C     C_R   0.873110 0.774971 0.029397 0.780815
C24   C     C_R   0.252445 0.317289 0.904072 0.661630
C25   C     C_R   0.683436 0.232499 0.959027 0.870675
C26   C     C_R   0.377052 0.723713 0.037816 0.858057
C27   C     C_R   0.402219 0.272217 0.104946 0.668769
C28   C     C_R   0.687525 0.769605 0.968447 0.814916
C29   C     C_R   0.234248 0.682530 0.993461 -0.156227
C30   C     C_R   0.823684 0.275317 0.002086 -0.241068
C31   C     C_R   0.824376 0.725587 0.002422 -0.190228
C32   C     C_R   0.266021 0.332960 0.002858 -0.071690
C33   C     C_R   0.733575 0.182771 0.994623 -0.215099
C34   C     C_R   0.327970 0.773621 0.001400 -0.196860
C35   C     C_R   0.372759 0.246894 0.004748 -0.034487
C36   C     C_R   0.735483 0.819516 0.994502 -0.168882
C37   C     C_R   0.887034 0.511626 0.446487 -0.098079
C38   C     C_R   0.078265 0.489171 0.534205 -0.036078
C39   C     C_R   0.915548 0.512742 0.378561 -0.163575
C40   C     C_R   0.049789 0.487855 0.601945 -0.132304
C41   C     C_R   0.353550 0.007009 0.432934 -0.087648
C42   C     C_R   0.538195 0.995260 0.490696 -0.096898
C43   C     C_R   0.367044 0.007966 0.351239 -0.105161
C44   C     C_R   0.524775 0.993939 0.571580 -0.131456
C45   C     C_R   0.010657 0.501200 0.423217 0.107616
C46   C     C_R   0.954343 0.498793 0.557236 0.116132
C47   C     C_R   0.459205 0.001708 0.381452 0.112713
C48   C     C_R   0.432731 0.999571 0.541950 0.116788
C49   C     C_R   0.935609 0.352610 0.093701 -0.195813
C50   C     C_R   0.095555 0.622630 0.906216 -0.041723
C51   C     C_R   0.098112 0.376141 0.908567 -0.205199
C52   C     C_R   0.934656 0.647439 0.093579 -0.162127
C53   C     C_R   0.440828 0.850230 0.092568 -0.120815
C54   C     C_R   0.596308 0.121984 0.906660 -0.034305
C55   C     C_R   0.597856 0.879781 0.906855 -0.159017
C56   C     C_R   0.449975 0.153050 0.091637 -0.196317
C57   C     C_R   0.034962 0.545956 0.296800 -0.105706
C58   C     C_R   0.944699 0.454150 0.693423 -0.104078
C59   C     C_R   0.944516 0.545068 0.692724 -0.140242
C60   C     C_R   0.035304 0.454158 0.296697 -0.053021
C61   C     C_R   0.497679 0.046587 0.266745 -0.078527
C62   C     C_R   0.442634 0.954214 0.692493 -0.106711
C63   C     C_R   0.442257 0.045273 0.692039 -0.134909
C64   C     C_R   0.499022 0.954348 0.268138 -0.012428
C65   C     C_R   0.731634 0.455389 0.754958 0.667899
C66   C     C_R   0.260057 0.544666 0.302138 0.741797
C67   C     C_R   0.259831 0.454749 0.302160 0.721812
C68   C     C_R   0.731271 0.545271 0.754231 0.678146
C69   C     C_R   0.231404 0.955233 0.753855 0.698564
C70   C     C_R   0.757264 0.044840 0.304497 0.742187
C71   C     C_R   0.757400 0.955019 0.304736 0.715143
C72   C     C_R   0.230883 0.045026 0.753741 0.704980
C73   C     C_R   0.869458 0.677539 0.002406 -0.088961
C74   C     C_R   0.188198 0.359784 0.001409 -0.033746
C75   C     C_R   0.183374 0.638603 0.997561 -0.199644
C76   C     C_R   0.869788 0.322752 0.002424 -0.040694
C77   C     C_R   0.390901 0.187206 0.001522 -0.098908
C78   C     C_R   0.686918 0.865170 0.998366 0.025742
C79   C     C_R   0.684262 0.137809 0.998268 -0.192110
C80   C     C_R   0.375669 0.820244 0.001350 0.024962
C81   C     C_R   0.036616 0.500286 0.350380 -0.043118
C82   C     C_R   0.928745 0.499334 0.630619 0.002407
C83   C     C_R   0.473936 0.000832 0.298626 -0.071125
C84   C     C_R   0.423416 0.999636 0.629028 -0.007739
C85   C     C_R   0.675844 0.500548 0.732510 -0.286829
C86   C     C_R   0.309874 0.499563 0.361999 -0.281475
C87   C     C_R   0.175431 0.000242 0.731419 -0.277431
C88   C     C_R   0.805415 0.999879 0.366709 -0.275721
C89   C     C_3   0.502216 0.455975 0.620375 -0.266636
C90   C     C_3   0.474028 0.543842 0.495777 -0.255144
C91   C     C_3   0.474029 0.453566 0.501208 -0.232591
C92   C     C_3   0.502086 0.546552 0.614782 -0.237495
C93   C     C_3   0.002054 0.955373 0.622010 -0.264994
C94   C     C_3   0.970158 0.044558 0.498779 -0.263522
C95   C     C_3   0.970778 0.954258 0.501499 -0.252926
C96   C     C_3   0.001359 0.045962 0.619202 -0.245240
C97   C     C_3   0.427985 0.502057 0.584731 0.870141
C98   C     C_3   0.546216 0.497945 0.529726 0.855478
C99   C     C_3   0.928045 0.001080 0.590109 0.878481
C100  C     C_3   0.042160 0.999012 0.529085 0.844045
H1    H     H_    0.973454 0.338987 0.177756 0.166230
H2    H     H_    0.067894 0.629598 0.821270 0.154164
H3    H     H_    0.072274 0.373338 0.823822 0.205168
H4    H     H_    0.970909 0.660821 0.177506 0.196218
H5    H     H_    0.484892 0.834174 0.175135 0.158131
H6    H     H_    0.568956 0.128943 0.821805 0.157103
H7    H     H_    0.570698 0.872414 0.822144 0.137152
H8    H     H_    0.502857 0.167033 0.173739 0.271891
H9    H     H_    0.515500 0.420768 0.674256 0.230824
H10   H     H_    0.462359 0.579198 0.442915 0.238723
H11   H     H_    0.462258 0.416052 0.452762 0.231611
H12   H     H_    0.515084 0.583937 0.664013 0.231023
H13   H     H_    0.016792 0.919555 0.675202 0.213019
H14   H     H_    0.957118 0.080565 0.446691 0.238301
H15   H     H_    0.958161 0.917189 0.451628 0.239409
H16   H     H_    0.015362 0.082865 0.669976 0.224489
H17   H     H_    0.813760 0.520575 0.413612 0.158702
H18   H     H_    0.151681 0.480520 0.567239 0.176100
H19   H     H_    0.863983 0.522032 0.291464 0.140026
H20   H     H_    0.101682 0.478719 0.689073 0.150599
H21   H     H_    0.282843 0.011858 0.412029 0.164895
H22   H     H_    0.609280 0.990785 0.512406 0.161158
H23   H     H_    0.306706 0.013146 0.265471 0.149062
H24   H     H_    0.585680 0.988830 0.657183 0.141815
N1    N     N_R   0.892620 0.603790 0.941800 -0.153462
N2    N     N_R   0.107380 0.396210 0.058200 -0.117396
N3    N     N_R   0.107380 0.603790 0.058200 -0.111908
N4    N     N_R   0.892620 0.396210 0.941800 -0.148798
N5    N     N_R   0.392620 0.103790 0.941800 -0.138874
N6    N     N_R   0.607380 0.896210 0.058200 -0.119898
N7    N     N_R   0.607380 0.103790 0.058200 -0.120080
N8    N     N_R   0.392620 0.896210 0.941800 -0.144417
N9    N     N_R   0.952210 0.397600 0.057910 -0.106888
N10   N     N_R   0.047790 0.602400 0.942090 -0.070664
N11   N     N_R   0.047790 0.397600 0.942090 -0.104589
N12   N     N_R   0.952210 0.602400 0.057910 -0.101552
N13   N     N_R   0.452210 0.897600 0.057910 -0.108443
N14   N     N_R   0.547790 0.102400 0.942090 -0.073799
N15   N     N_R   0.547790 0.897600 0.942090 -0.095818
N16   N     N_R   0.452210 0.102400 0.057910 -0.113993
N17   N     N_R   0.026300 0.529110 0.206760 -0.055297
N18   N     N_R   0.973700 0.470890 0.793240 -0.092084
N19   N     N_R   0.973700 0.529110 0.793240 -0.054894
N20   N     N_R   0.026300 0.470890 0.206760 -0.094305
N21   N     N_R   0.526300 0.029110 0.206760 -0.049516
N22   N     N_R   0.473700 0.970890 0.793240 -0.092838
N23   N     N_R   0.473700 0.029110 0.793240 -0.055063
N24   N     N_R   0.526300 0.970890 0.206760 -0.092037
N25   N     N_R   0.818530 0.472270 0.792960 -0.160385
N26   N     N_R   0.181470 0.527730 0.207040 -0.186302
N27   N     N_R   0.181470 0.472270 0.207040 -0.187910
N28   N     N_R   0.818530 0.527730 0.792960 -0.142683
N29   N     N_R   0.318530 0.972270 0.792960 -0.169387
N30   N     N_R   0.681470 0.027730 0.207040 -0.189212
N31   N     N_R   0.681470 0.972270 0.207040 -0.191296
N32   N     N_R   0.318530 0.027730 0.792960 -0.146866
Ni1   Ni    Ni4+2 0.934150 0.565840 0.869060 0.329939
Ni2   Ni    Ni4+2 0.065850 0.434160 0.130940 0.241026
Ni3   Ni    Ni4+2 0.065850 0.565840 0.130940 0.313121
Ni4   Ni    Ni4+2 0.934150 0.434160 0.869060 0.242345
Ni5   Ni    Ni4+2 0.434150 0.065840 0.869060 0.326893
Ni6   Ni    Ni4+2 0.565850 0.934160 0.130940 0.259344
Ni7   Ni    Ni4+2 0.565850 0.065840 0.130940 0.304208
Ni8   Ni    Ni4+2 0.434150 0.934160 0.869060 0.258388
F1    F     F_    0.806817 0.674852 0.810063 -0.572341
F2    F     F_    0.246527 0.347626 0.194239 -0.652354
F3    F     F_    0.255202 0.646542 0.193364 -0.617433
F4    F     F_    0.807788 0.325243 0.810103 -0.623498
F5    F     F_    0.308495 0.171047 0.804215 -0.613691
F6    F     F_    0.759273 0.857172 0.194247 -0.640841
F7    F     F_    0.756679 0.144594 0.194604 -0.632761
F8    F     F_    0.310268 0.825530 0.808580 -0.627897
C101  C     C_2   0.071730 0.599187 0.351718 0.560125
H25   H     H_    0.061882 0.612256 0.413479 0.011877
O1    O     O_2   0.118276 0.627460 0.333661 -0.468215
C102  C     C_2   0.905472 0.399435 0.648559 0.658323
H26   H     H_    0.903356 0.369355 0.699831 0.048470
O2    O     O_2   0.874005 0.387613 0.553547 -0.502375
C103  C     C_2   0.901858 0.598911 0.643802 0.583566
H27   H     H_    0.880425 0.608756 0.561572 0.013029
O3    O     O_2   0.887460 0.632163 0.693289 -0.470328
C104  C     C_2   0.072076 0.400068 0.347974 0.567106
H28   H     H_    0.107200 0.374360 0.323012 0.083224
O4    O     O_2   0.065219 0.383973 0.419697 -0.523120
C105  C     C_2   0.520631 0.099986 0.322129 0.548244
H29   H     H_    0.476371 0.116866 0.344335 0.022355
O5    O     O_2   0.593155 0.123634 0.350575 -0.470621
C106  C     C_2   0.403448 0.899352 0.648482 0.621821
H30   H     H_    0.402793 0.869308 0.700857 0.070195
O6    O     O_2   0.370399 0.887329 0.553086 -0.496518
C107  C     C_2   0.401043 0.099571 0.644559 0.582283
H31   H     H_    0.377926 0.109364 0.561622 0.016095
O7    O     O_2   0.389690 0.133284 0.695980 -0.467709
C108  C     C_2   0.523512 0.900880 0.323462 0.539053
H32   H     H_    0.581529 0.877042 0.335095 0.061149
O8    O     O_2   0.480496 0.883369 0.358088 -0.503427
F9    F     F_    0.698433 0.404373 0.717956 -0.636023
F10   F     F_    0.272286 0.595256 0.345403 -0.566244
F11   F     F_    0.269999 0.404652 0.345990 -0.631934
F12   F     F_    0.697736 0.596382 0.716787 -0.626458
F13   F     F_    0.198794 0.903997 0.718298 -0.637963
F14   F     F_    0.765472 0.095401 0.346476 -0.572173
F15   F     F_    0.765679 0.904721 0.347100 -0.620934
F16   F     F_    0.197098 0.096249 0.718418 -0.620888
F17   F     F_    0.362801 0.504091 0.608674 -0.658561
F18   F     F_    0.609179 0.495894 0.502318 -0.650179
F19   F     F_    0.865248 0.002111 0.617641 -0.652278
F20   F     F_    0.102982 0.997984 0.498551 -0.657695
C109  C     C_2   0.675642 0.333028 0.927856 0.827312
H33   H     H_    0.713798 0.371224 0.948866 -0.100291
O9    O     O_2   0.589120 0.335272 0.875192 -0.491790
C110  C     C_2   0.380463 0.623269 0.074295 0.792804
H34   H     H_    0.342275 0.586891 0.067530 -0.056407
O10   O     O_2   0.464942 0.618705 0.114757 -0.482319
C111  C     C_2   0.403006 0.354154 0.202990 0.813881
H35   H     H_    0.457822 0.337302 0.283744 0.087942
O11   O     O_2   0.385478 0.403063 0.195334 -0.610348
C112  C     C_2   0.681645 0.668266 0.945997 0.846526
H36   H     H_    0.720143 0.630052 0.963678 -0.132785
O12   O     O_2   0.596747 0.665939 0.904227 -0.470537
C113  C     C_2   0.179108 0.831955 0.929554 0.717095
H37   H     H_    0.101981 0.832231 0.872233 0.080597
O13   O     O_2   0.219580 0.875378 0.969140 -0.609048
C114  C     C_2   0.881413 0.125200 0.074167 0.775740
H38   H     H_    0.844612 0.088247 0.067847 -0.030891
O14   O     O_2   0.965762 0.121649 0.113478 -0.491813
C115  C     C_2   0.881581 0.875553 0.054374 0.699054
H39   H     H_    0.955513 0.875126 0.084447 0.088433
O15   O     O_2   0.843854 0.919658 0.044104 -0.601543
C116  C     C_2   0.321962 0.277326 0.815273 0.905374
H40   H     H_    0.263880 0.291608 0.733560 0.063540
O16   O     O_2   0.396618 0.263320 0.831481 -0.452249
F21   F     F_    0.094131 0.736847 0.923091 -0.655317
F22   F     F_    0.967139 0.224844 0.075866 -0.629094
F23   F     F_    0.962988 0.775640 0.057668 -0.648377
F24   F     F_    0.186746 0.342702 0.806993 -0.710520
F25   F     F_    0.592492 0.235156 0.927342 -0.612798
F26   F     F_    0.469371 0.721153 0.074429 -0.606355
F27   F     F_    0.478985 0.253737 0.203731 -0.685592
F28   F     F_    0.599276 0.767821 0.945035 -0.625085

loop_
_geom_bond_atom_site_label_1
_geom_bond_atom_site_label_2
_ccdc_geom_bond_type
C70   F14   S    
C108  O8    D    
C10   C85   S    
C69   F13   S    
C72   N32   A    
C7    F7    S    
C44   C48   A    
C59   C82   A    
C6    N6    A    
C70   C88   A    
C114  H38   S    
C9    C91   S    
C24   C32   A    
C100  F20   S    
C3    F3    S    
C15   C32   A    
C101  H25   S    
C16   C31   A    
C71   F15   S    
C42   H22   S    
N2    N11   A    
C53   N13   A    
C7    C79   A    
N15   Ni8   S    
C38   C40   A    
C1    N1    A    
C66   N26   A    
C67   F11   S    
C19   C36   A    
C111  O11   D    
C32   C74   S    
N13   Ni6   S    
C56   N16   A    
C3    N3    A    
C105  O5    D    
N1    Ni1   S    
C91   H11   S    
C96   C99   S    
C89   H9    S    
C55   N15   A    
C110  H34   S    
C5    F5    S    
C11   C99   S    
N9    Ni2   S    
C41   H21   S    
C10   C98   S    
C61   N21   A    
C104  H28   S    
C56   H8    S    
C38   C45   A    
C62   C84   A    
C89   C97   S    
C34   C80   S    
C22   F22   S    
N12   Ni3   S    
C51   N11   A    
C26   C34   A    
N18   N19   A    
C21   F21   S    
C20   C24   A    
C10   C89   S    
C95   H15   S    
C49   N9    A    
C64   C108  S    
C8    N8    A    
N3    N10   A    
C16   C112  S    
N11   Ni4   S    
C94   C100  S    
C89   C91   S    
C3    C75   A    
C93   C99   S    
C7    N7    A    
C16   C28   A    
C69   C87   A    
C72   F16   S    
C39   C45   A    
C23   F23   S    
N6    Ni6   S    
C5    N5    A    
C108  H32   S    
C10   C92   S    
C93   C95   S    
C46   C82   S    
C64   N24   A    
C68   C85   A    
C41   C43   A    
C13   C25   A    
C26   F26   S    
C42   C44   A    
N6    N15   A    
C63   N23   A    
N25   Ni4   S    
N17   Ni3   S    
C92   C97   S    
N19   Ni1   S    
N8    Ni8   S    
C101  O1    D    
N31   Ni6   S    
C60   C104  S    
C15   C27   A    
C45   C81   S    
C20   C116  S    
N26   Ni3   S    
C4    N4    A    
N29   Ni8   S    
C27   F27   S    
C107  H31   S    
C94   H14   S    
N27   Ni2   S    
C13   C109  S    
N30   Ni7   S    
C53   C80   A    
C17   C113  S    
C15   C111  S    
C52   C73   A    
C50   N10   A    
N25   N28   A    
C96   H16   S    
C55   C78   A    
C54   H6    S    
C95   C100  S    
C92   H12   S    
N21   Ni7   S    
C27   C35   A    
N8    N13   A    
N22   Ni8   S    
C44   H24   S    
C69   N29   A    
C56   C77   A    
C4    F4    S    
C51   C74   A    
C55   H7    S    
C106  H30   S    
N16   Ni7   S    
C23   C31   A    
C19   C23   A    
C111  H35   S    
C107  O7    D    
C64   C83   A    
N4    N9    A    
C113  H37   S    
C68   N28   A    
C109  O9    D    
C53   H5    S    
C9    C86   S    
C30   C76   S    
C60   C81   A    
C58   N18   A    
N2    Ni2   S    
C90   C92   S    
C115  H39   S    
C25   F25   S    
C11   C88   S    
C116  O16   D    
C71   N31   A    
C61   C105  S    
C109  H33   S    
C49   C76   A    
N5    Ni5   S    
C93   H13   S    
C14   C26   A    
N29   N32   A    
C94   C96   S    
C71   C88   A    
N30   N31   A    
C66   F10   S    
C65   F9    S    
C2    N2    A    
N1    N12   A    
C102  H26   S    
C115  O15   D    
C31   C73   S    
C110  O10   D    
N32   Ni5   S    
C50   H2    S    
C33   C79   S    
C47   C83   S    
N23   Ni5   S    
C52   N12   A    
C4    C76   A    
C57   C101  S    
C12   C93   S    
N17   N20   A    
C17   C34   A    
C40   C46   A    
C14   C29   A    
C5    C77   A    
C43   H23   S    
C70   N30   A    
C72   C87   A    
C18   C114  S    
N21   N24   A    
N4    Ni4   S    
C62   C106  S    
N22   N23   A    
C6    F6    S    
C11   C95   S    
C2    F2    S    
N28   Ni1   S    
C52   H4    S    
C67   C86   A    
C9    C97   S    
C24   F24   S    
C22   C30   A    
C12   C87   S    
C40   H20   S    
C1    F1    S    
C18   C22   A    
N3    Ni3   S    
C20   C35   A    
C112  H36   S    
C58   C102  S    
N18   Ni4   S    
C43   C47   A    
C114  O14   D    
C9    C90   S    
C66   C86   A    
C65   C85   A    
C29   C75   S    
C61   C83   A    
C63   C84   A    
C57   N17   A    
C112  O12   D    
C68   F12   S    
N24   Ni6   S    
C106  O6    D    
C58   C82   A    
C1    C73   A    
C14   C110  S    
C37   C39   A    
N7    N14   A    
C36   C78   S    
C50   C75   A    
C60   N20   A    
C19   C115  S    
C105  H29   S    
C54   N14   A    
N5    N16   A    
C21   C29   A    
C51   H3    S    
C67   N27   A    
C39   H19   S    
C59   C103  S    
C11   C94   S    
C41   C48   A    
C35   C77   S    
N14   Ni5   S    
C57   C81   A    
C42   C47   A    
C91   C98   S    
C65   N25   A    
C116  H40   S    
C18   C33   A    
C104  O4    D    
C12   C100  S    
C6    C78   A    
C54   C79   A    
C59   N19   A    
C103  H27   S    
C38   H18   S    
C48   C84   S    
N10   Ni1   S    
C37   H17   S    
C13   C30   A    
C28   C36   A    
C113  O13   D    
N7    Ni7   S    
C62   N22   A    
C98   F18   S    
C8    C80   A    
C99   F19   S    
C90   H10   S    
N26   N27   A    
C12   C96   S    
C2    C74   A    
C97   F17   S    
C37   C46   A    
C63   C107  S    
N20   Ni2   S    
C90   C98   S    
C28   F28   S    
C8    F8    S    
C49   H1    S    
C25   C33   A    
C102  O2    D    
C103  O3    D    
C17   C21   A    
