data_mof_unit_31026.cif
_audit_creation_date              2013-03-05T15:43:53-0500
_audit_creation_method            fapswitch 2.2
_symmetry_space_group_name_H-M    P1
_symmetry_Int_Tables_number       1
_space_group_crystal_system       triclinic
_cell_length_a                    13.526387
_cell_length_b                    13.576014
_cell_length_c                    27.454467
_cell_angle_alpha                 90.808626
_cell_angle_beta                  89.944147
_cell_angle_gamma                 60.283456
_cell_volume                      4377.93778194

loop_
_atom_site_label
_atom_site_type_symbol
_atom_site_description
_atom_site_fract_x
_atom_site_fract_y
_atom_site_fract_z
_atom_type_partial_charge
O1    O     O_R   0.301710 0.195650 0.554160 -0.503281
O2    O     O_R   0.522390 0.158990 0.550460 -0.489340
C1    C     C_R   0.620253 0.100637 0.570212 0.549803
O3    O     O_R   0.694390 0.003530 0.554040 -0.507230
O4    O     O_R   0.657700 0.819660 0.549320 -0.493350
C2    C     C_R   0.599296 0.779439 0.568582 0.554974
O5    O     O_R   0.501930 0.803280 0.552920 -0.495921
O6    O     O_R   0.318170 0.023580 0.549580 -0.489181
C3    C     C_R   0.275240 0.123503 0.568758 0.553036
O7    O     O_R   0.303010 0.193990 0.446760 -0.520545
O8    O     O_R   0.523600 0.157450 0.450900 -0.498694
C4    C     C_R   0.623965 0.100717 0.432146 0.539534
O9    O     O_R   0.695690 0.001860 0.446640 -0.537422
O10   O     O_R   0.658900 0.818120 0.449760 -0.470656
C5    C     C_R   0.602991 0.772793 0.431406 0.566365
O11   O     O_R   0.503220 0.801620 0.445520 -0.538169
O12   O     O_R   0.319370 0.022040 0.450020 -0.504987
C6    C     C_R   0.279103 0.119881 0.430738 0.541395
Cr1   Cr    Cr6+3 0.417550 0.169090 0.500530 1.038391
Cr2   Cr    Cr6+3 0.669180 0.913420 0.499920 1.039158
Cr3   Cr    Cr6+3 0.413260 0.917540 0.499520 1.032488
O13   O     O_3   0.499990 0.000010 0.499990 -0.254738
C7    C     C_3   0.782790 0.601447 0.732679 -0.204963
C8    C     C_3   0.740107 0.693867 0.773837 -0.110369
H1    H     H_    0.790317 0.730777 0.789511 0.189222
H2    H     H_    0.865803 0.565528 0.713223 0.135225
C9    C     C_1   0.706123 0.593154 0.898042 0.030147
C10   C     C_1   0.631240 0.727400 0.615317 0.036024
C11   C     C_3   0.740234 0.531672 0.761969 -0.150278
C12   C     C_3   0.697967 0.624458 0.802266 0.007146
C13   C     C_3   0.622789 0.597642 0.737238 0.232181
C14   C     C_3   0.665219 0.666423 0.708489 0.019285
C15   C     C_3   0.581611 0.687890 0.778001 0.329009
C16   C     C_3   0.622270 0.757933 0.749369 0.260403
C17   C     C_1   0.704541 0.608931 0.854999 0.026779
C18   C     C_1   0.649264 0.694694 0.656658 0.042774
H3    H     H_    0.788340 0.438941 0.768181 0.125237
C19   C     C_3   0.022332 0.237980 0.732235 -0.172420
C20   C     C_3   0.073085 0.132277 0.765704 -0.151513
H4    H     H_    0.033688 0.080667 0.775931 0.100354
H5    H     H_    0.938161 0.276467 0.714239 0.123481
C21   C     C_1   0.081150 0.210881 0.898643 -0.007540
C22   C     C_1   0.212634 0.150065 0.613767 0.010467
C23   C     C_3   0.061003 0.300032 0.769341 -0.166375
C24   C     C_3   0.112633 0.193765 0.801894 0.002581
C25   C     C_3   0.177371 0.252119 0.741886 -0.125760
C26   C     C_3   0.138388 0.190388 0.705771 0.025337
C27   C     C_3   0.226315 0.147501 0.774656 0.339612
C28   C     C_3   0.187573 0.086966 0.738445 0.346959
C29   C     C_1   0.098311 0.199155 0.855191 -0.045788
C30   C     C_1   0.171115 0.172495 0.654073 -0.015147
H6    H     H_    0.218688 0.302099 0.731671 0.111354
H7    H     H_    0.007780 0.388876 0.782641 0.128247
C31   C     C_3   0.662556 0.258111 0.737437 -0.095605
C32   C     C_3   0.573510 0.266292 0.775319 -0.130319
H8    H     H_    0.497271 0.345623 0.788004 0.148361
H9    H     H_    0.665670 0.325376 0.716572 0.194281
H10   H     H_    0.496925 0.156114 0.740944 0.177028
C33   C     C_1   0.694188 0.208850 0.902708 0.015482
C34   C     C_1   0.637318 0.130054 0.618523 0.013932
C35   C     C_3   0.760429 0.176213 0.770712 -0.154707
C36   C     C_3   0.671426 0.184094 0.807827 0.040303
C37   C     C_3   0.760254 0.073250 0.745722 -0.077387
C38   C     C_3   0.661696 0.155994 0.713367 0.011596
C39   C     C_3   0.671537 0.082258 0.783526 0.296135
C40   C     C_3   0.572842 0.163160 0.750568 -0.072918
C41   C     C_1   0.679974 0.197523 0.860258 -0.004727
C42   C     C_1   0.650224 0.144258 0.660913 -0.019297
H11   H     H_    0.836452 0.993823 0.733085 0.126167
H12   H     H_    0.835528 0.184639 0.780092 0.114200
C43   C     C_R   0.747958 0.665631 0.364965 0.255835
C44   C     C_R   0.763885 0.633531 0.315248 0.011532
C45   C     C_R   0.781327 0.608426 0.213525 -0.002994
C46   C     C_R   0.877822 0.580929 0.241290 -0.162332
C47   C     C_R   0.869324 0.593779 0.291782 -0.121720
C48   C     C_R   0.788295 0.600905 0.162955 -0.139529
H13   H     H_    0.870312 0.570415 0.145248 0.126094
H14   H     H_    0.958384 0.555125 0.223588 0.107453
H15   H     H_    0.944549 0.575402 0.312087 0.205834
C49   C     C_R   0.692344 0.621849 0.135689 -0.000508
C50   C     C_R   0.554569 0.696534 0.359947 -0.174675
C51   C     C_R   0.566011 0.675690 0.310456 -0.003304
C52   C     C_R   0.669392 0.648585 0.287566 0.022459
C53   C     C_R   0.472425 0.690235 0.283146 -0.125172
C54   C     C_R   0.478520 0.686841 0.232626 -0.123829
C55   C     C_R   0.579808 0.663907 0.209288 0.012893
C56   C     C_R   0.677006 0.639902 0.236778 0.067840
C57   C     C_R   0.587087 0.658989 0.158887 -0.126369
C58   C     C_R   0.639603 0.704875 0.386168 0.012862
H16   H     H_    0.512997 0.674224 0.137928 0.140115
H17   H     H_    0.404749 0.700861 0.211863 0.155593
H18   H     H_    0.393423 0.708348 0.300817 0.096184
H19   H     H_    0.472689 0.720439 0.376469 0.139984
C59   C     C_R   0.227788 0.050758 0.355440 -0.132295
C60   C     C_R   0.207227 0.062405 0.305302 -0.027984
C61   C     C_R   0.170380 0.086030 0.204086 0.036950
C62   C     C_R   0.194098 0.984144 0.226695 0.269159
C63   C     C_R   0.213394 0.972712 0.277078 -0.104163
C64   C     C_R   0.139407 0.105094 0.154828 -0.114710
H20   H     H_    0.129467 0.042590 0.133708 0.162523
H21   H     H_    0.252375 0.970242 0.372369 0.124031
H22   H     H_    0.232603 0.893809 0.294082 0.102458
C65   C     C_R   0.112210 0.209152 0.133850 -0.013665
C66   C     C_R   0.193531 0.243908 0.360699 -0.104749
C67   C     C_R   0.179943 0.254584 0.310502 0.034073
C68   C     C_R   0.186211 0.163471 0.282612 0.003293
C69   C     C_R   0.167180 0.352080 0.287444 0.268982
C70   C     C_R   0.157845 0.359241 0.236868 -0.112243
C71   C     C_R   0.155244 0.273079 0.209466 -0.027919
C72   C     C_R   0.171261 0.173787 0.232022 0.005035
C73   C     C_R   0.129240 0.288521 0.160333 -0.126269
C74   C     C_R   0.224945 0.140235 0.382890 -0.016336
H23   H     H_    0.111588 0.367936 0.144110 0.129314
H24   H     H_    0.148501 0.434283 0.219276 0.098719
H25   H     H_    0.190006 0.313348 0.382040 0.185111
C75   C     C_R   0.579886 0.246208 0.367372 -0.135663
C76   C     C_R   0.591646 0.266734 0.318246 0.021989
C77   C     C_R   0.600318 0.297375 0.217364 0.016369
C78   C     C_R   0.529730 0.389616 0.248022 -0.127440
C79   C     C_R   0.525045 0.374250 0.298117 -0.140436
C80   C     C_R   0.607857 0.311736 0.167311 -0.133755
H26   H     H_    0.561968 0.395984 0.152196 0.130792
H27   H     H_    0.513130 0.311883 0.389805 0.114047
H28   H     H_    0.477213 0.473181 0.233180 0.108341
H29   H     H_    0.468902 0.446181 0.321039 0.096398
C81   C     C_R   0.682035 0.218648 0.137679 -0.023689
C82   C     C_R   0.741185 0.056269 0.357990 -0.130376
C83   C     C_R   0.744072 0.070391 0.308235 -0.031937
C84   C     C_R   0.668274 0.175632 0.287984 0.050575
C85   C     C_R   0.817465 0.978571 0.278377 -0.130355
C86   C     C_R   0.811684 0.988473 0.227476 0.258534
C87   C     C_R   0.740015 0.095280 0.207350 0.026283
C88   C     C_R   0.669310 0.189453 0.237544 0.017587
C89   C     C_R   0.741359 0.110320 0.157398 -0.110082
C90   C     C_R   0.651218 0.138143 0.386535 0.003316
H30   H     H_    0.796530 0.038842 0.134002 0.186029
H31   H     H_    0.876809 0.898728 0.294697 0.090133
H32   H     H_    0.802758 0.976501 0.373419 0.110449
O14   O     O_R   0.818720 0.150820 0.967160 -0.497904
O15   O     O_R   0.006410 0.181720 0.970200 -0.491098
C91   C     C_R   0.045748 0.238341 0.948760 0.545204
O16   O     O_R   0.027890 0.334070 0.964920 -0.508791
O17   O     O_R   0.809600 0.521790 0.967960 -0.500194
C92   C     C_R   0.713205 0.560155 0.947653 0.548096
O18   O     O_R   0.635520 0.542770 0.964420 -0.494679
O19   O     O_R   0.665950 0.325030 0.970100 -0.498589
C93   C     C_R   0.722802 0.225716 0.950959 0.545136
O20   O     O_R   0.816620 0.158530 0.074540 -0.516789
O21   O     O_R   0.004460 0.188870 0.069750 -0.499121
C94   C     C_R   0.049047 0.245143 0.088065 0.546051
O22   O     O_R   0.025800 0.341780 0.072300 -0.522175
O23   O     O_R   0.807650 0.528950 0.067500 -0.502442
C95   C     C_R   0.708727 0.573001 0.086918 0.550208
O24   O     O_R   0.633420 0.550490 0.071810 -0.519598
O25   O     O_R   0.664000 0.332180 0.069640 -0.500478
C96   C     C_R   0.719146 0.235475 0.089926 0.544363
Cr4   Cr    Cr6+3 0.909170 0.177380 0.020380 1.040479
Cr5   Cr    Cr6+3 0.912710 0.429210 0.018220 1.028369
Cr6   Cr    Cr6+3 0.657170 0.432570 0.019030 1.036385
O26   O     O_3   0.826350 0.346390 0.019210 -0.257321
O27   O     O_3   0.335239 0.092603 0.795885 -0.510499
C97   C     C_3   0.351497 0.171266 0.823835 -0.079635
H33   H     H_    0.292015 0.204594 0.855400 0.113575
H34   H     H_    0.343569 0.242391 0.801486 0.085669
H35   H     H_    0.438882 0.127271 0.838661 0.203448
Cl1   Cl    Cl    0.681934 0.967505 0.817961 -0.596006
O28   O     O_3   0.835702 0.661074 0.392650 -0.555225
C98   C     C_3   0.849476 0.755163 0.382045 -0.087768
H36   H     H_    0.879166 0.779307 0.415405 0.157692
H37   H     H_    0.769019 0.830982 0.370548 0.116398
H38   H     H_    0.915725 0.732638 0.353555 0.095226
O29   O     O_3   0.207292 0.892585 0.199014 -0.607048
C99   C     C_3   0.108330 0.884145 0.204097 -0.109244
H39   H     H_    0.116647 0.813928 0.180123 0.168156
H40   H     H_    0.031865 0.963488 0.192346 0.166016
H41   H     H_    0.097106 0.863780 0.242119 0.122197
Cl2   Cl    Cl    0.543567 0.905139 0.736059 -0.520821
O30   O     O_3   0.156293 0.443575 0.314549 -0.597922
C100  C     C_3   0.260764 0.442400 0.313332 -0.143204
H42   H     H_    0.330419 0.361797 0.328060 0.131951
H43   H     H_    0.253429 0.512851 0.336861 0.134782
H44   H     H_    0.282045 0.456372 0.275833 0.119713
O31   O     O_3   0.486342 0.718274 0.808484 -0.555037
C101  C     C_3   0.386607 0.796743 0.785524 -0.019455
H45   H     H_    0.384887 0.774022 0.746586 0.190774
H46   H     H_    0.376754 0.882298 0.790025 0.244188
H47   H     H_    0.313082 0.797972 0.804070 0.132257
O32   O     O_3   0.882364 0.898860 0.196586 -0.615335
C102  C     C_3   0.880782 0.799254 0.208494 -0.139397
H48   H     H_    0.793571 0.816077 0.218019 0.142336
H49   H     H_    0.941356 0.754797 0.238364 0.115053
H50   H     H_    0.910154 0.741652 0.176144 0.141845
Cl3   Cl    Cl    0.535919 0.546755 0.711150 -0.663663
O33   O     O_3   0.258309 0.976836 0.719300 -0.557844
C103  C     C_3   0.191409 0.935240 0.697585 -0.138776
H51   H     H_    0.127774 0.996449 0.671845 0.120739
H52   H     H_    0.148301 0.912026 0.725991 0.103850
H53   H     H_    0.248359 0.857051 0.676342 0.169410

loop_
_geom_bond_atom_site_label_1
_geom_bond_atom_site_label_2
_geom_bond_distance
_ccdc_geom_bond_type
C35   H12   1.107320 S    
C52   C56   1.397066 A    
C32   H8    1.110075 S    
C37   C39   1.542946 S    
O11   Cr3   2.046300 S    
C75   H27   1.083916 S    
C45   C46   1.396771 A    
C64   C65   1.403887 A    
O15   C91   1.279900 A    
C22   C30   1.205155 T    
C83   C84   1.404585 A    
C62   C63   1.404345 A    
C54   H17   1.082941 S    
C60   C63   1.400934 A    
C49   C95   1.452719 S    
C26   C28   1.526200 S    
C75   C90   1.406931 A    
C54   C55   1.397969 A    
C101  H45   1.111924 S    
C67   C69   1.407060 A    
O14   C93   1.273186 A    
C62   O29   1.381151 S    
C12   C17   1.462393 S    
C7    C11   1.560934 S    
C11   C13   1.547746 S    
C50   C51   1.376783 A    
O29   C99   1.405918 S    
C6    C74   1.466312 S    
C97   H33   1.108937 S    
C71   C73   1.386737 A    
Cr6   O26   1.987815 S    
C19   C20   1.560987 S    
O18   Cr6   2.049801 S    
C55   C57   1.385457 A    
C99   H41   1.112917 S    
C33   C93   1.427377 S    
C28   O33   1.409151 S    
O17   C92   1.272201 A    
C66   H25   1.083544 S    
C32   C36   1.536576 S    
C25   H6    1.110142 S    
C70   C71   1.396967 A    
C65   C73   1.402506 A    
C7    H2    1.110207 S    
C70   H24   1.083277 S    
C102  H49   1.110455 S    
C77   C78   1.404120 A    
C45   C56   1.405007 A    
C65   C94   1.467751 S    
C33   C41   1.201484 T    
C31   C32   1.551277 S    
C23   H7    1.110220 S    
H10   C40   1.109350 S    
C98   H38   1.108388 S    
C2    C10   1.433922 S    
C64   H20   1.083380 S    
C59   H21   1.084296 S    
C101  H46   1.106598 S    
O6    C3    1.285662 A    
C4    C90   1.471374 S    
C15   O31   1.411497 S    
C7    C8    1.557221 S    
C13   C15   1.532095 S    
C8    H1    1.108777 S    
C82   H32   1.079475 S    
C76   C84   1.411615 A    
C35   C36   1.538142 S    
C36   C39   1.525918 S    
C20   C24   1.546127 S    
C103  H53   1.109635 S    
C50   C58   1.407997 A    
C86   O32   1.389068 S    
C98   H37   1.114794 S    
O33   C103  1.411152 S    
C43   O28   1.385806 S    
Cr3   O13   1.982872 S    
Cr5   O26   1.983035 S    
C59   C60   1.400152 A    
O16   Cr5   2.045494 S    
C44   C47   1.402038 A    
C66   C67   1.390590 A    
C23   C25   1.561297 S    
O12   C6    1.282343 A    
C97   H34   1.111109 S    
C99   H40   1.113574 S    
O23   Cr5   1.928801 S    
C3    C22   1.434138 S    
O1    Cr1   2.042906 S    
C46   C47   1.392199 A    
O25   Cr6   1.930158 S    
O22   Cr5   2.051181 S    
C37   H11   1.110096 S    
Cr1   O13   1.993494 S    
O1    C3    1.267535 A    
C48   H13   1.084633 S    
C19   H5    1.109936 S    
C71   C72   1.407757 A    
C76   C79   1.402708 A    
C20   H4    1.108673 S    
C66   C74   1.401614 A    
C55   C56   1.410107 A    
C87   C88   1.411618 A    
C26   C30   1.466952 S    
C27   O27   1.411089 S    
C9    C17   1.202268 T    
C78   H28   1.082733 S    
C61   C72   1.412834 A    
C39   Cl1   1.779095 S    
C8    C16   1.546753 S    
C1    O3    1.269911 A    
C103  H51   1.113307 S    
O32   C102  1.406096 S    
C77   C80   1.401332 A    
C38   C40   1.541416 S    
C102  H50   1.109016 S    
O31   C101  1.395683 S    
C19   C23   1.560367 S    
C11   C12   1.543711 S    
C60   C68   1.410399 A    
O10   Cr2   1.928246 S    
O15   Cr4   1.925369 S    
C5    C58   1.466875 S    
C97   H35   1.107894 S    
C50   H19   1.084550 S    
C13   C14   1.541282 S    
C43   C58   1.409342 A    
O7    Cr1   2.047728 S    
C69   C70   1.394772 A    
O8    Cr1   1.924745 S    
C61   C62   1.409301 A    
C21   C91   1.438305 S    
C35   C37   1.549472 S    
O6    Cr3   1.928903 S    
C80   H26   1.084302 S    
C73   H23   1.084588 S    
C53   C54   1.388126 A    
C10   C18   1.205108 T    
C19   C26   1.545512 S    
C77   C88   1.411685 A    
C21   C29   1.208231 T    
C84   C88   1.401084 A    
C36   C41   1.460301 S    
C98   H36   1.109204 S    
C20   C28   1.541744 S    
C57   H16   1.084991 S    
C39   C40   1.544016 S    
Cr4   O26   1.993603 S    
C51   C53   1.400650 A    
C69   O30   1.382276 S    
C45   C48   1.390359 A    
C103  H52   1.111655 S    
C8    C12   1.540929 S    
C82   C83   1.385274 A    
C38   C42   1.463488 S    
C14   C18   1.467184 S    
O28   C98   1.413309 S    
C32   C40   1.551735 S    
C23   C24   1.551296 S    
O17   Cr5   1.934870 S    
C13   Cl3   1.778609 S    
O19   C93   1.279323 A    
C68   C72   1.402706 A    
C24   C27   1.531408 S    
C25   C26   1.542437 S    
C27   C28   1.530801 S    
O14   Cr4   2.046397 S    
C12   C15   1.528724 S    
O2    Cr1   1.930089 S    
C79   H29   1.082987 S    
O9    Cr2   2.045797 S    
C48   C49   1.402764 A    
Cr2   O13   1.987969 S    
C92   O18   1.272711 A    
C86   C87   1.406301 A    
C83   C85   1.397875 A    
C89   H30   1.083819 S    
C78   C79   1.400051 A    
C2    O5    1.267506 A    
O19   Cr6   1.929410 S    
C31   C35   1.547619 S    
C100  H42   1.113419 S    
O20   C96   1.276328 A    
C67   C68   1.411613 A    
C94   O22   1.270705 A    
C101  H47   1.109480 S    
C34   C42   1.203948 T    
C7    C14   1.541454 S    
C100  H44   1.112574 S    
O2    C1    1.283658 A    
O24   Cr6   2.046827 S    
C49   C57   1.401552 A    
O27   C97   1.409852 S    
O21   C94   1.283260 A    
C1    C34   1.431451 S    
O5    Cr3   2.053579 S    
C9    C92   1.428287 S    
O4    C2    1.279426 A    
C31   C38   1.532619 S    
C24   C29   1.471856 S    
O7    C6    1.273045 A    
C61   C64   1.405301 A    
C59   C74   1.404577 A    
C15   C16   1.537306 S    
C75   C76   1.405742 A    
C85   C86   1.404342 A    
O20   Cr4   2.041657 S    
C102  H48   1.114769 S    
C82   C90   1.401096 A    
O4    Cr2   1.930815 S    
O12   Cr3   1.934932 S    
C44   C52   1.414330 A    
C63   H22   1.082271 S    
C99   H39   1.109241 S    
C37   C38   1.540761 S    
O3    Cr2   2.045432 S    
C25   C27   1.539480 S    
C80   C81   1.406384 A    
C43   C44   1.410303 A    
C4    O9    1.275036 A    
C81   C89   1.397566 A    
C87   C89   1.390793 A    
C51   C52   1.402632 A    
C46   H14   1.077999 S    
C11   H3    1.109727 S    
O25   C96   1.280929 A    
O10   C5    1.287582 A    
C16   Cl2   1.781239 S    
O23   C95   1.276149 A    
C53   H18   1.083001 S    
O21   Cr4   1.928634 S    
C95   O24   1.268438 A    
C91   O16   1.271409 A    
C85   H31   1.082494 S    
C47   H15   1.077827 S    
C5    O11   1.263190 A    
O8    C4    1.285345 A    
C14   C16   1.544151 S    
O30   C100  1.405637 S    
C100  H43   1.109179 S    
C31   H9    1.103036 S    
C81   C96   1.464178 S    
