data_mof_unit_18561.cif
_audit_creation_date              2012-12-10T16:42:58-0500
_audit_creation_method            fapswitch 2.2
_symmetry_space_group_name_H-M    P1
_symmetry_Int_Tables_number       1
_space_group_crystal_system       triclinic
_cell_length_a                    7.552803
_cell_length_b                    8.681614
_cell_length_c                    12.96639
_cell_angle_alpha                 86.451137
_cell_angle_beta                  78.023769
_cell_angle_gamma                 101.727009
_cell_volume                      809.525210034

loop_
_atom_site_label
_atom_site_type_symbol
_atom_type_description
_atom_site_fract_x
_atom_site_fract_y
_atom_site_fract_z
_atom_type_partial_charge
C1    C     C_R   0.454917 0.200872 0.507439 0.867715
C2    C     C_R   0.545085 0.799125 0.492553 0.867776
C3    C     C_R   0.464965 0.496568 0.700944 0.844043
C4    C     C_R   0.535030 0.503407 0.299056 0.844015
C5    C     C_R   0.556921 0.511914 0.184744 -0.085287
C6    C     C_R   0.443063 0.488028 0.815253 -0.085343
C7    C     C_R   0.307165 0.336966 0.985948 -0.280314
C8    C     C_R   0.692936 0.662846 0.014023 -0.280241
C9    C     C_R   0.311726 0.361278 0.878115 0.351314
C10   C     C_R   0.688360 0.638565 0.121860 0.351266
C11   C     C_R   0.563053 0.596649 0.860308 0.071865
C12   C     C_R   0.436931 0.403264 0.139694 0.071892
C13   C     C_R   0.564362 0.565637 0.968328 0.071200
C14   C     C_R   0.435677 0.434210 0.031658 0.071197
C15   C     C_2   0.438689 0.035048 0.530332 -0.022516
C16   C     C_2   0.561312 0.964949 0.469660 -0.022567
Cu1   Cu    Cu3+1 0.686350 0.517570 0.488220 0.955385
Cu2   Cu    Cu3+1 0.313650 0.482430 0.511780 0.955391
H1    H     H_    0.203611 0.239417 0.032829 0.152262
H2    H     H_    0.796520 0.760380 0.967131 0.152227
N1    N     N_2   0.033570 0.455950 0.529530 -0.060272
N2    N     N_2   0.966430 0.544050 0.470470 -0.060291
O1    O     O_R   0.621060 0.286250 0.492350 -0.608115
O2    O     O_R   0.378940 0.713750 0.507650 -0.608112
O3    O     O_R   0.306310 0.256580 0.512240 -0.592805
O4    O     O_R   0.693690 0.743420 0.487760 -0.592813
O5    O     O_R   0.631800 0.512400 0.642670 -0.601921
O6    O     O_R   0.368200 0.487600 0.357330 -0.601920
O7    O     O_R   0.317060 0.482730 0.662570 -0.538944
O8    O     O_R   0.682940 0.517270 0.337430 -0.538917
C17   C     C_3   0.315657 0.252791 0.205065 -0.842020
H3    H     H_    0.350102 0.229273 0.282642 0.225884
H4    H     H_    0.167380 0.259415 0.219331 0.244158
H5    H     H_    0.336460 0.148478 0.162511 0.221956
C18   C     C_3   0.684307 0.747160 0.794947 -0.841892
H6    H     H_    0.832587 0.740497 0.780586 0.244148
H7    H     H_    0.649725 0.770768 0.717430 0.225823
H8    H     H_    0.663597 0.851468 0.837552 0.221931
O9    O     O_3   0.806830 0.740427 0.168343 -0.749284
H9    H     H_    0.890000 0.823084 0.113508 0.314399
O10   O     O_3   0.193304 0.259374 0.831615 -0.749221
H10   H     H_    0.110772 0.176204 0.886361 0.314307
C19   C     C_3   0.923498 0.304425 0.580847 -0.330232
H11   H     H_    0.998079 0.257469 0.636448 0.183717
H12   H     H_    0.789750 0.312411 0.630614 0.187924
H13   H     H_    0.908778 0.218915 0.521802 0.164043
C20   C     C_3   0.076470 0.695579 0.419178 -0.330194
H14   H     H_    0.001847 0.742586 0.363626 0.183686
H15   H     H_    0.091247 0.781038 0.478235 0.164065
H16   H     H_    0.210159 0.687595 0.369353 0.187855
C21   C     C_3   0.310045 0.956922 0.634801 -0.875635
H17   H     H_    0.251948 0.045334 0.681585 0.255960
H18   H     H_    0.191051 0.868660 0.621702 0.251677
H19   H     H_    0.387212 0.898851 0.683898 0.223793
C22   C     C_3   0.690001 0.043087 0.365191 -0.875417
H20   H     H_    0.748061 0.954670 0.318371 0.255943
H21   H     H_    0.612864 0.101221 0.316101 0.223809
H22   H     H_    0.809032 0.131292 0.378314 0.251650

loop_
_geom_bond_atom_site_label_1
_geom_bond_atom_site_label_2
_ccdc_geom_bond_type
Cu1   Cu2   S    
C22   H20   S    
C17   H4    S    
C8    C13   A    
C1    C15   S    
C15   C21   S    
C7    C14   A    
Cu2   N1    S    
C2    C16   S    
O10   H10   S    
C9    O10   S    
Cu1   N2    S    
C19   H11   S    
C3    C6    S    
C17   H3    S    
C21   H19   S    
C6    C9    A    
C3    O5    A    
N2    C20   S    
C17   H5    S    
Cu2   O6    S    
C5    C10   A    
C2    O4    A    
Cu2   O7    S    
C8    H2    S    
C13   C14   A    
C1    O3    A    
Cu1   O8    S    
C11   C13   A    
C3    O7    A    
Cu1   O1    S    
Cu2   O3    S    
Cu2   O2    S    
Cu1   O4    S    
C11   C18   S    
C18   H7    S    
C12   C14   A    
C1    O1    A    
C20   H16   S    
C7    H1    S    
C22   H21   S    
C12   C17   S    
C2    O2    A    
C19   H13   S    
C4    O8    A    
C16   C22   S    
C15   C16   D    
Cu1   O5    S    
C6    C11   A    
C18   H8    S    
C21   H17   S    
C5    C12   A    
C20   H15   S    
C22   H22   S    
O9    H9    S    
C7    C9    A    
C4    C5    S    
C4    O6    A    
N1    N2    D    
C19   H12   S    
C8    C10   A    
N1    C19   S    
C20   H14   S    
C10   O9    S    
C21   H18   S    
C18   H6    S    
