data_mof_unit_66443.cif
_audit_creation_date              2012-10-26T18:22:50-0400
_audit_creation_method            fapswitch 2.2
_symmetry_space_group_name_H-M    P1
_symmetry_Int_Tables_number       1
_space_group_crystal_system       triclinic
_cell_length_a                    38.751508
_cell_length_b                    32.23706
_cell_length_c                    21.719058
_cell_angle_alpha                 90.003249
_cell_angle_beta                  123.70417
_cell_angle_gamma                 89.996881
_cell_volume                      22571.6504281

loop_
_atom_site_label
_atom_site_type_symbol
_atom_type_description
_atom_site_fract_x
_atom_site_fract_y
_atom_site_fract_z
_atom_type_partial_charge
Br1   Br    Br    0.174384 0.111463 0.755068 -0.423391
Br2   Br    Br    0.089229 0.802040 0.077160 -0.350461
Br3   Br    Br    0.410766 0.302048 0.922883 -0.358871
Br4   Br    Br    0.589229 0.302040 0.077161 -0.350448
Br5   Br    Br    0.410682 0.198200 0.922278 -0.308277
Br6   Br    Br    0.589310 0.198192 0.077746 -0.305658
Br7   Br    Br    0.910682 0.698199 0.922279 -0.308235
Br8   Br    Br    0.089310 0.698192 0.077747 -0.305571
Br9   Br    Br    0.825616 0.111476 0.244932 -0.422221
Br10  Br    Br    0.674364 0.611492 0.755046 -0.423496
Br11  Br    Br    0.325537 0.611385 0.244806 -0.422403
Br12  Br    Br    0.695321 0.939655 0.094605 -0.325457
Br13  Br    Br    0.304686 0.939582 0.905269 -0.324006
Br14  Br    Br    0.195323 0.439479 0.094842 -0.325377
Br15  Br    Br    0.804686 0.439602 0.905296 -0.323902
Br16  Br    Br    0.910766 0.802048 0.922883 -0.358840
C1    C     C_R   0.920450 0.000007 0.420479 0.552251
C2    C     C_R   0.027477 0.973116 0.246397 0.015122
C3    C     C_R   0.999851 0.999305 0.118990 0.564689
C4    C     C_R   0.500149 0.499298 0.881010 0.564099
C5    C     C_R   0.499851 0.499305 0.118990 0.564646
C6    C     C_R   0.999999 0.079583 0.999999 0.539565
C7    C     C_R   0.499999 0.579583 0.999999 0.539460
C8    C     C_R   0.500000 0.920624 0.999999 0.546726
C9    C     C_R   0.000000 0.420624 0.999999 0.546606
C10   C     C_R   0.579410 0.000091 0.079155 0.550707
C11   C     C_R   0.420590 0.000093 0.920845 0.550749
C12   C     C_R   0.079410 0.500090 0.079154 0.550592
C13   C     C_R   0.472491 0.473150 0.753558 0.013735
C14   C     C_R   0.920590 0.500093 0.920845 0.550688
C15   C     C_R   0.499999 0.079457 0.000001 0.558777
C16   C     C_R   0.999999 0.579457 0.000001 0.558754
C17   C     C_R   0.462280 0.228235 0.967245 0.173556
C18   C     C_R   0.537713 0.228232 0.032784 0.173508
C19   C     C_R   0.962280 0.728235 0.967245 0.173567
C20   C     C_R   0.037713 0.728232 0.032785 0.173506
C21   C     C_R   0.499996 0.206409 0.000012 -0.018484
C22   C     C_R   0.999996 0.706409 0.000012 -0.018485
C23   C     C_R   0.037702 0.771915 0.032699 0.175611
C24   C     C_R   0.527487 0.473126 0.246408 0.015148
C25   C     C_R   0.962292 0.771918 0.967338 0.174909
C26   C     C_R   0.537702 0.271915 0.032700 0.175622
C27   C     C_R   0.462292 0.271918 0.967338 0.174895
C28   C     C_R   0.060346 0.085419 0.726330 -0.100690
C29   C     C_R   0.939656 0.085444 0.273658 -0.099087
C30   C     C_R   0.560335 0.585434 0.726336 -0.100913
C31   C     C_R   0.439609 0.585407 0.273626 -0.099304
C32   C     C_R   0.999997 0.793702 0.000020 -0.004044
C33   C     C_R   0.499997 0.293702 0.000020 -0.004039
C34   C     C_1   0.499996 0.161501 0.000006 0.068305
C35   C     C_R   0.972626 0.974754 0.689644 -0.115836
C36   C     C_1   0.999996 0.661501 0.000007 0.068304
C37   C     C_1   0.999998 0.838543 0.000019 0.081642
C38   C     C_1   0.499998 0.338544 0.000020 0.081659
C39   C     C_1   0.999999 0.875955 0.000018 0.090071
C40   C     C_1   0.499999 0.375955 0.000019 0.090089
C41   C     C_1   0.499997 0.124040 0.000003 0.068998
C42   C     C_1   0.999997 0.624040 0.000003 0.068986
C43   C     C_R   0.490166 0.771821 0.936408 -0.087789
C44   C     C_R   0.509831 0.771825 0.063580 -0.087840
C45   C     C_R   0.983891 0.271822 0.933634 -0.087882
C46   C     C_R   0.027337 0.974710 0.310308 -0.096593
C47   C     C_R   0.016107 0.271825 0.066355 -0.087960
C48   C     C_R   0.499999 0.793699 0.999994 0.040856
C49   C     C_R   0.999999 0.293699 0.999994 0.040950
C50   C     C_R   0.016106 0.228378 0.066355 -0.091049
C51   C     C_R   0.983891 0.228374 0.933635 -0.091016
C52   C     C_R   0.509829 0.728377 0.063580 -0.090833
C53   C     C_R   0.490167 0.728373 0.936409 -0.090820
C54   C     C_R   0.999998 0.206501 0.999995 0.039678
C55   C     C_R   0.499998 0.706500 0.999995 0.040128
C56   C     C_1   0.499999 0.838492 0.999994 -0.029260
C57   C     C_R   0.472630 0.474750 0.689649 -0.115825
C58   C     C_1   0.999999 0.338493 0.999994 -0.029223
C59   C     C_R   0.065349 0.044545 0.752131 0.013672
C60   C     C_R   0.934664 0.044563 0.247884 0.015614
C61   C     C_R   0.565341 0.544556 0.752123 0.013705
C62   C     C_R   0.434639 0.544527 0.247859 0.015623
C63   C     C_1   0.999998 0.161709 0.999996 -0.041917
C64   C     C_1   0.499998 0.661708 0.999996 -0.041719
C65   C     C_1   0.999998 0.124225 0.999997 -0.008639
C66   C     C_1   0.499998 0.624224 0.999997 -0.008600
C67   C     C_1   0.500000 0.875978 0.999995 0.010674
C68   C     C_R   0.527347 0.474721 0.310319 -0.096592
C69   C     C_1   1.000000 0.375978 0.999995 0.010666
C70   C     C_R   0.103227 0.024079 0.780203 -0.098992
C71   C     C_R   0.896794 0.024088 0.219836 -0.101770
C72   C     C_R   0.603218 0.524092 0.780178 -0.098973
C73   C     C_R   0.396775 0.524035 0.219793 -0.101781
C74   C     C_R   0.135662 0.044177 0.781790 -0.066514
C75   C     C_R   0.864355 0.044185 0.218242 -0.065128
C76   C     C_R   0.635650 0.544196 0.781762 -0.066503
C77   C     C_R   0.364321 0.544115 0.218172 -0.065153
C78   C     C_R   0.130355 0.084656 0.754804 0.182420
C79   C     C_R   0.001309 0.999712 0.687026 0.022928
C80   C     C_R   0.869651 0.084670 0.245202 0.182385
C81   C     C_R   0.630340 0.584678 0.754789 0.182443
C82   C     C_R   0.369594 0.584601 0.245121 0.182372
C83   C     C_R   0.030274 0.021920 0.812731 -0.121946
C84   C     C_R   0.969749 0.021954 0.187293 -0.129254
C85   C     C_R   0.530269 0.521926 0.812727 -0.122049
C86   C     C_R   0.469738 0.521939 0.187284 -0.129357
C87   C     C_R   0.998684 0.999703 0.312964 0.014012
C88   C     C_R   0.501309 0.499712 0.687027 0.022944
C89   C     C_R   0.079551 0.000006 0.579519 0.553351
C90   C     C_R   0.498684 0.499703 0.312964 0.014051
C91   C     C_R   0.031055 0.022714 0.749449 -0.019437
C92   C     C_R   0.968959 0.022733 0.250565 -0.025649
C93   C     C_R   0.531050 0.522720 0.749446 -0.019441
C94   C     C_R   0.468948 0.522718 0.250555 -0.025651
C95   C     C_R   0.902626 0.956153 0.725003 -0.113708
C96   C     C_R   0.097264 0.955920 0.274744 -0.119774
C97   C     C_R   0.402632 0.456141 0.725011 -0.113689
C98   C     C_R   0.597279 0.455947 0.274762 -0.119763
C99   C     C_R   0.875196 0.930327 0.729540 -0.109026
C100  C     C_R   0.420449 0.500007 0.420480 0.552271
C101  C     C_R   0.124605 0.929997 0.270121 -0.109755
C102  C     C_R   0.375205 0.430312 0.729549 -0.109020
C103  C     C_R   0.624626 0.430032 0.270144 -0.109767
C104  C     C_R   0.888693 0.892060 0.765222 -0.107477
C105  C     C_R   0.111004 0.891733 0.234455 -0.110791
C106  C     C_R   0.388706 0.392046 0.765235 -0.107503
C107  C     C_R   0.611034 0.391766 0.234483 -0.110831
C108  C     C_R   0.929541 0.879274 0.795826 -0.080118
C109  C     C_R   0.070138 0.879047 0.203950 -0.075430
C110  C     C_R   0.429555 0.379265 0.795839 -0.080145
C111  C     C_R   0.579551 0.500006 0.579519 0.553363
C112  C     C_R   0.570172 0.379070 0.203980 -0.075429
C113  C     C_R   0.957499 0.904778 0.791505 0.211769
C114  C     C_R   0.042265 0.904649 0.208365 0.269620
C115  C     C_R   0.457510 0.404772 0.791516 0.211757
C116  C     C_R   0.542293 0.404663 0.208392 0.269623
C117  C     C_R   0.000598 0.999972 0.619577 0.549278
C118  C     C_R   0.999400 0.999969 0.380420 0.547958
C119  C     C_R   0.500598 0.499972 0.619577 0.549295
C120  C     C_R   0.499400 0.499969 0.380420 0.547985
C121  C     C_R   0.943939 0.943963 0.756448 0.018606
C122  C     C_R   0.000635 0.998114 0.814554 0.040849
C123  C     C_R   0.055935 0.943832 0.243403 0.029248
C124  C     C_R   0.443946 0.443956 0.756455 0.018583
C125  C     C_R   0.555953 0.443849 0.243423 0.029242
C126  C     C_R   0.727558 0.973853 0.181961 0.146167
C127  C     C_R   0.272445 0.973832 0.817988 0.145754
C128  C     C_R   0.227560 0.473789 0.182046 0.146150
C129  C     C_R   0.772445 0.473839 0.817997 0.145691
C130  C     C_R   0.706412 0.999972 0.202686 -0.009328
C131  C     C_R   0.293589 0.999984 0.797312 -0.009051
C132  C     C_R   0.206412 0.499975 0.202676 -0.009353
C133  C     C_R   0.999367 0.998123 0.185443 0.031814
C134  C     C_R   0.793590 0.499983 0.797310 -0.009092
C135  C     C_R   0.728989 0.025648 0.265399 0.246235
C136  C     C_R   0.271010 0.025693 0.734649 0.246525
C137  C     C_R   0.228988 0.525722 0.265288 0.246165
C138  C     C_R   0.771010 0.525683 0.734635 0.246497
C139  C     C_R   0.772343 0.024669 0.307209 -0.117218
C140  C     C_R   0.227656 0.024711 0.692835 -0.116553
C141  C     C_R   0.272342 0.524741 0.307105 -0.117127
C142  C     C_R   0.727656 0.524702 0.692821 -0.116576
C143  C     C_R   0.793766 0.998616 0.287914 -0.050587
C144  C     C_R   0.500635 0.498115 0.814555 0.040886
C145  C     C_R   0.206236 0.998625 0.712082 -0.050439
C146  C     C_R   0.293766 0.498624 0.287903 -0.050610
C147  C     C_R   0.706236 0.498624 0.712080 -0.050455
C148  C     C_R   0.771568 0.972893 0.224525 0.266343
C149  C     C_R   0.228436 0.972874 0.775428 0.264101
C150  C     C_R   0.271569 0.472840 0.224599 0.266281
C151  C     C_R   0.728436 0.472880 0.775436 0.264080
C152  C     C_1   0.661456 0.000192 0.159370 0.096097
C153  C     C_1   0.338545 0.000203 0.840626 0.096130
C154  C     C_1   0.161456 0.500192 0.159365 0.095833
C155  C     C_R   0.499366 0.498121 0.185444 0.031850
C156  C     C_1   0.838545 0.500202 0.840625 0.096083
C157  C     C_1   0.838517 0.999265 0.335070 0.048857
C158  C     C_1   0.161484 0.999269 0.664922 0.049113
C159  C     C_1   0.338517 0.499269 0.335068 0.048876
C160  C     C_1   0.661484 0.499269 0.664921 0.049095
C161  C     C_1   0.875927 0.999892 0.374605 0.055096
C162  C     C_1   0.124074 0.999892 0.625389 0.056195
C163  C     C_1   0.375927 0.499893 0.374606 0.055134
C164  C     C_1   0.624074 0.499892 0.625388 0.056190
C165  C     C_R   0.092736 0.105315 0.727317 -0.066883
C166  C     C_R   0.972487 0.973154 0.753554 0.013709
C167  C     C_R   0.907262 0.105338 0.272667 -0.067224
C168  C     C_R   0.592722 0.605336 0.727320 -0.067070
C169  C     C_R   0.407199 0.605285 0.272606 -0.067398
C170  C     C_1   0.623996 0.000196 0.123041 0.077153
C171  C     C_1   0.376004 0.000203 0.876957 0.077193
C172  C     C_1   0.123996 0.500195 0.123039 0.076810
C173  C     C_1   0.876005 0.500202 0.876957 0.077154
C174  C     C_R   1.000000 0.920452 0.000012 0.594959
C175  C     C_R   0.500000 0.420452 0.000012 0.594945
C176  C     C_R   0.000149 0.999298 0.881010 0.564156
Cu1   Cu    Cu3+1 0.000000 0.041020 0.500000 0.977437
Cu2   Cu    Cu3+1 0.499990 0.000050 0.938210 1.068093
Cu3   Cu    Cu3+1 0.000010 0.500050 0.061790 1.068325
Cu4   Cu    Cu3+1 0.999990 0.500050 0.938210 1.068315
Cu5   Cu    Cu3+1 0.500000 0.541020 0.500000 0.977372
Cu6   Cu    Cu3+1 0.000000 0.958990 0.500000 1.063295
Cu7   Cu    Cu3+1 0.500000 0.458990 0.500000 1.063229
Cu8   Cu    Cu3+1 0.041030 0.999980 0.040990 1.039829
Cu9   Cu    Cu3+1 0.958970 0.999980 0.959010 1.038328
Cu10  Cu    Cu3+1 0.541030 0.499980 0.040990 1.040024
Cu11  Cu    Cu3+1 0.458970 0.499980 0.959010 1.038495
Cu12  Cu    Cu3+1 0.500010 0.000050 0.061790 1.068329
H1    H     H_    0.867412 0.872158 0.768915 0.174546
H2    H     H_    0.210236 0.044405 0.644502 0.183770
H3    H     H_    0.289760 0.544462 0.355402 0.183804
H4    H     H_    0.710236 0.544390 0.644480 0.183783
H5    H     H_    0.971349 0.211861 0.881958 0.125415
H6    H     H_    0.028647 0.211867 0.118033 0.125376
H7    H     H_    0.482512 0.711859 0.886894 0.124585
H8    H     H_    0.517484 0.711867 0.113096 0.124587
H9    H     H_    0.088543 0.136688 0.706551 0.151078
H10   H     H_    0.911446 0.136716 0.293412 0.151124
H11   H     H_    0.588527 0.636711 0.706564 0.150899
H12   H     H_    0.132217 0.871759 0.230693 0.176430
H13   H     H_    0.411366 0.636663 0.293343 0.150963
H14   H     H_    0.482510 0.788331 0.886892 0.131605
H15   H     H_    0.517488 0.788338 0.113097 0.131541
H16   H     H_    0.971347 0.288331 0.881956 0.131574
H17   H     H_    0.028652 0.288338 0.118033 0.131460
H18   H     H_    0.031291 0.101582 0.704727 0.127881
H19   H     H_    0.968705 0.101613 0.295244 0.128196
H20   H     H_    0.531281 0.601595 0.704746 0.127659
H21   H     H_    0.468653 0.601590 0.295224 0.127995
H22   H     H_    0.107513 0.992554 0.800486 0.170546
H23   H     H_    0.367427 0.372142 0.768928 0.174549
H24   H     H_    0.892519 0.992557 0.199574 0.158574
H25   H     H_    0.607506 0.492564 0.800451 0.170547
H26   H     H_    0.392517 0.492505 0.199538 0.158562
H27   H     H_    0.164776 0.028196 0.803435 0.189201
H28   H     H_    0.835246 0.028199 0.196612 0.189363
H29   H     H_    0.664763 0.528216 0.803393 0.189197
H30   H     H_    0.335217 0.528115 0.196527 0.189305
H31   H     H_    0.052869 0.039914 0.860717 0.138183
H32   H     H_    0.947170 0.039970 0.139327 0.139792
H33   H     H_    0.552862 0.539924 0.860710 0.138030
H34   H     H_    0.632252 0.371798 0.230723 0.176399
H35   H     H_    0.447151 0.539945 0.139309 0.139653
H36   H     H_    0.950681 0.956072 0.642131 0.123654
H37   H     H_    0.049259 0.955997 0.357793 0.142052
H38   H     H_    0.450688 0.456064 0.642138 0.123648
H39   H     H_    0.549276 0.456017 0.357812 0.142015
H40   H     H_    0.891859 0.985995 0.697894 0.129000
H41   H     H_    0.108111 0.985756 0.301840 0.129044
H42   H     H_    0.391862 0.485982 0.697899 0.129082
H43   H     H_    0.608119 0.485786 0.301853 0.129119
H44   H     H_    0.843479 0.940093 0.705670 0.144537
H45   H     H_    0.939242 0.849341 0.822776 0.175422
H46   H     H_    0.156336 0.939684 0.293909 0.146688
H47   H     H_    0.343487 0.440075 0.705679 0.144575
H48   H     H_    0.656355 0.439727 0.293931 0.146710
H49   H     H_    0.999266 0.878782 0.721617 0.343814
H50   H     H_    0.948697 0.889088 0.206222 0.382496
H51   H     H_    0.499281 0.378781 0.721632 0.343800
H52   H     H_    0.448730 0.389078 0.206255 0.382492
H53   H     H_    0.859459 0.923884 0.228657 0.375103
H54   H     H_    0.140556 0.923811 0.771240 0.384969
H55   H     H_    0.359457 0.423806 0.228753 0.375130
H56   H     H_    0.060360 0.849120 0.176995 0.174996
H57   H     H_    0.640555 0.423821 0.771251 0.384968
H58   H     H_    0.655513 0.051986 0.313478 0.381586
H59   H     H_    0.344456 0.052130 0.686552 0.381398
H60   H     H_    0.155173 0.552280 0.312404 0.381491
H61   H     H_    0.844425 0.552096 0.686447 0.381432
H62   H     H_    0.439259 0.349332 0.822791 0.175408
H63   H     H_    0.560401 0.349141 0.177029 0.175013
H64   H     H_    0.789761 0.044340 0.355576 0.183742
O1    O     O_R   0.940150 0.034650 0.440170 -0.506064
O2    O     O_R   0.440140 0.999980 0.992380 -0.492756
O3    O     O_R   0.059860 0.499980 0.007620 -0.492627
O4    O     O_R   0.940140 0.499980 0.992380 -0.492659
O5    O     O_R   0.499990 0.059890 0.052110 -0.492964
O6    O     O_R   0.500010 0.059890 0.947890 -0.493116
O7    O     O_R   0.999990 0.559890 0.052110 -0.493010
O8    O     O_R   0.000010 0.559890 0.947890 -0.493082
O9    O     O_R   0.940170 0.965370 0.440140 -0.484602
O10   O     O_R   0.059830 0.965370 0.559860 -0.480548
O11   O     O_R   0.440170 0.465370 0.440140 -0.484598
O12   O     O_R   0.059850 0.034650 0.559830 -0.506718
O13   O     O_R   0.559830 0.465370 0.559860 -0.480566
O14   O     O_R   0.000000 0.034650 0.590170 -0.513766
O15   O     O_R   0.000000 0.034650 0.409830 -0.513643
O16   O     O_R   0.500000 0.534650 0.590170 -0.513741
O17   O     O_R   0.500000 0.534650 0.409830 -0.513639
O18   O     O_R   0.000010 0.965370 0.590140 -0.498264
O19   O     O_R   0.999990 0.965370 0.409860 -0.491754
O20   O     O_R   0.500010 0.465370 0.590140 -0.498278
O21   O     O_R   0.499990 0.465370 0.409860 -0.491757
O22   O     O_R   0.034640 0.940140 0.034570 -0.481814
O23   O     O_R   0.440150 0.534650 0.440170 -0.506074
O24   O     O_R   0.965360 0.940140 0.965430 -0.479481
O25   O     O_R   0.534640 0.440140 0.034570 -0.481820
O26   O     O_R   0.465360 0.440140 0.965430 -0.479496
O27   O     O_R   0.034650 0.999980 0.944430 -0.482664
O28   O     O_R   0.965350 0.999980 0.055570 -0.482753
O29   O     O_R   0.534650 0.499980 0.944430 -0.482702
O30   O     O_R   0.465350 0.499980 0.055570 -0.482822
O31   O     O_R   0.965370 0.000000 0.875180 -0.522542
O32   O     O_R   0.034630 1.000000 0.124820 -0.523890
O33   O     O_R   0.465370 0.500000 0.875180 -0.522491
O34   O     O_R   0.559850 0.534650 0.559830 -0.506696
O35   O     O_R   0.534630 0.500000 0.124820 -0.523834
O36   O     O_R   0.034650 0.059830 0.034650 -0.507646
O37   O     O_R   0.965350 0.059830 0.965350 -0.507906
O38   O     O_R   0.534650 0.559830 0.034650 -0.507537
O39   O     O_R   0.465350 0.559830 0.965350 -0.507790
O40   O     O_R   0.500020 0.940200 0.052240 -0.499828
O41   O     O_R   0.499980 0.940200 0.947760 -0.499843
O42   O     O_R   0.000020 0.440200 0.052240 -0.499694
O43   O     O_R   0.999980 0.440200 0.947760 -0.499729
O44   O     O_2   0.038472 0.910672 0.897310 -0.228414
O45   O     O_R   0.559850 0.000040 0.112000 -0.493627
O46   O     O_2   0.012111 0.841316 0.848173 -0.247994
O47   O     O_3   0.021329 0.893219 0.766877 -0.473436
O48   O     O_2   0.961302 0.910993 0.102862 -0.278966
O49   O     O_2   0.987596 0.841407 0.151673 -0.244149
O50   O     O_3   0.979108 0.893186 0.234055 -0.505631
O51   O     O_2   0.538483 0.410675 0.897321 -0.228394
O52   O     O_2   0.512130 0.341317 0.848191 -0.248008
O53   O     O_3   0.521342 0.393221 0.766891 -0.473445
O54   O     O_2   0.461327 0.410985 0.102887 -0.278983
O55   O     O_2   0.487640 0.341406 0.151718 -0.244178
O56   O     O_R   0.440150 0.000040 0.888000 -0.493623
O57   O     O_3   0.479140 0.393184 0.234087 -0.505648
O58   O     O_2   0.783385 0.895716 0.194157 -0.189713
O59   O     O_2   0.785057 0.952039 0.120423 -0.230392
O60   O     O_3   0.849362 0.941034 0.253409 -0.554366
O61   O     O_2   0.216601 0.895666 0.805615 -0.185975
O62   O     O_2   0.214979 0.951920 0.879526 -0.226286
O63   O     O_3   0.150646 0.941014 0.746540 -0.550900
O64   O     O_2   0.283451 0.395602 0.194589 -0.189887
O65   O     O_2   0.284992 0.451787 0.120492 -0.230147
O66   O     O_3   0.349367 0.440995 0.253472 -0.554404
O67   O     O_R   0.059850 0.500040 0.112000 -0.493924
O68   O     O_2   0.716607 0.395680 0.805665 -0.186074
O69   O     O_2   0.714971 0.451951 0.879534 -0.226222
O70   O     O_3   0.650646 0.441020 0.746548 -0.550916
O71   O     O_2   0.734345 0.081944 0.362532 -0.240047
O72   O     O_2   0.678301 0.090207 0.231613 -0.221478
O73   O     O_3   0.671709 0.031241 0.305976 -0.513369
O74   O     O_2   0.265649 0.082085 0.637652 -0.240381
O75   O     O_2   0.321713 0.090252 0.768581 -0.222048
O76   O     O_3   0.328269 0.031366 0.694036 -0.513023
O77   O     O_2   0.234337 0.582208 0.362164 -0.239176
O78   O     O_R   0.940150 0.500040 0.888000 -0.493686
O79   O     O_2   0.178286 0.590295 0.231211 -0.221956
O80   O     O_3   0.171724 0.531494 0.305879 -0.513250
O81   O     O_2   0.765649 0.582054 0.637609 -0.240342
O82   O     O_2   0.821712 0.590240 0.768534 -0.221967
O83   O     O_3   0.828271 0.531336 0.694022 -0.513098
O84   O     O_R   0.559860 0.999980 0.007620 -0.492780
S1    S     S_3+6 0.008560 0.886547 0.828630 0.034464
S2    S     S_3+6 0.296473 0.059385 0.707703 0.054842
S3    S     S_3+6 0.203522 0.559466 0.292160 0.055285
S4    S     S_3+6 0.796473 0.559364 0.707672 0.054855
S5    S     S_3+6 0.991168 0.886626 0.171295 0.023028
S6    S     S_3+6 0.508574 0.386547 0.828644 0.034458
S7    S     S_3+6 0.491200 0.386626 0.171327 0.023004
S8    S     S_3+6 0.797360 0.939547 0.196741 0.059962
S9    S     S_3+6 0.202648 0.939493 0.803163 0.065512
S10   S     S_3+6 0.297363 0.439429 0.196905 0.059988
S11   S     S_3+6 0.702648 0.439507 0.803182 0.065488
S12   S     S_3+6 0.703524 0.059295 0.292413 0.055063

loop_
_geom_bond_atom_site_label_1
_geom_bond_atom_site_label_2
_ccdc_geom_bond_type
C47   C49   A    
Cu4   O43   S    
C59   C91   S    
C88   C119  S    
C71   C75   A    
Cu11  O33   S    
C126  C130  A    
Cu10  O38   S    
Br11  C82   S    
C111  C164  S    
Cu8   O32   S    
C138  C142  A    
C120  O21   A    
O58   S8    D    
C147  C160  S    
C112  C116  A    
C79   C117  S    
C30   H20   S    
C14   C173  S    
Cu5   Cu7   S    
C24   C68   A    
C115  C124  A    
C75   C80   A    
C175  O26   A    
C134  C156  S    
C136  C140  A    
C61   C72   A    
C18   C26   A    
C83   C122  A    
C53   H7    S    
C135  C139  A    
O73   S12   S    
C140  H2    S    
C107  H34   S    
C176  O31   A    
C37   C39   T    
C40   C175  S    
C32   C37   S    
O53   S6    S    
C136  S2    S    
C62   C73   A    
Br14  C128  S    
Cu2   O6    S    
Cu10  Cu11  S    
C153  C171  T    
C1    O1    A    
C70   C74   A    
C44   H15   S    
O83   S4    S    
C168  H11   S    
C15   O6    A    
C139  C143  A    
Cu10  O25   S    
C5    O35   A    
C6    O36   A    
C105  H12   S    
C16   O8    A    
C59   C70   A    
C98   H43   S    
C14   O78   A    
C11   C171  S    
O70   S11   S    
C36   C42   T    
C43   C53   A    
C176  O27   A    
C84   C133  A    
C84   H32   S    
C132  C137  A    
Cu3   O67   S    
C95   C121  A    
C63   C65   T    
C99   H44   S    
C1    C161  S    
Cu7   O21   S    
C54   C63   S    
C34   C41   T    
Cu2   O41   S    
C119  O16   A    
Br1   C78   S    
C30   C61   A    
C101  H46   S    
C149  S9    S    
C103  C107  A    
C77   H30   S    
H49   O47   S    
C44   C48   A    
C15   C41   S    
C21   C34   S    
C50   C54   A    
Cu6   O9    S    
O72   S12   D    
C112  H63   S    
C51   H5    S    
C122  C166  A    
Cu3   Cu4   S    
C45   C49   A    
C113  C121  A    
C117  O18   A    
C4    C144  S    
C7    O38   A    
H55   O66   S    
C28   C165  A    
C24   C155  A    
C145  C149  A    
C117  O14   A    
C35   C79   A    
Cu6   O18   S    
Cu12  O2    S    
O59   S8    D    
C8    O40   A    
C145  C158  S    
C7    C66   S    
Cu1   O1    S    
O49   S5    D    
C141  H3    S    
O68   S11   D    
C86   H35   S    
H58   O73   S    
O77   S3    D    
C82   C169  A    
Cu5   O34   S    
Cu4   O3    S    
C102  C106  A    
C30   C168  A    
C57   H38   S    
C85   C144  A    
Br5   C17   S    
C35   H36   S    
C78   C165  A    
C157  C161  T    
C50   H6    S    
Cu11  O39   S    
C129  C134  A    
O50   S5    S    
Cu8   O36   S    
Cu1   O15   S    
C24   C125  S    
C10   O84   A    
C89   O10   A    
O46   S1    D    
O74   S2    D    
C120  O17   A    
C76   C81   A    
C13   C144  A    
C96   H41   S    
Cu7   O11   S    
C84   C92   A    
C152  C170  T    
C85   H33   S    
C98   C125  A    
C9    O43   A    
C19   C22   A    
C14   O4    A    
C64   C66   T    
C2    C46   A    
C146  C159  S    
C49   C58   S    
Br10  C81   S    
C105  C109  A    
Cu3   O42   S    
C45   C51   A    
H59   O76   S    
Cu2   Cu12  S    
C9    C69   S    
C4    O29   A    
C61   C93   S    
C60   C71   A    
C142  C147  A    
C140  C145  A    
C71   H24   S    
Cu3   O7    S    
O47   S1    S    
C28   H18   S    
C80   C167  A    
O48   S5    D    
C52   H8    S    
C46   H37   S    
C116  C125  A    
C13   C124  S    
C158  C162  T    
Cu10  O29   S    
C11   O56   A    
O54   S7    D    
C20   C23   A    
C51   C54   A    
C142  H4    S    
H57   O70   S    
C10   C170  S    
Br4   C26   S    
C141  C146  A    
C3    C133  S    
C58   C69   T    
C73   C77   A    
C19   C25   A    
H54   O63   S    
C130  C135  A    
C175  O25   A    
C154  C172  T    
C89   O12   A    
Cu8   O22   S    
C143  C148  A    
C110  H62   S    
C165  H9    S    
C119  O20   A    
C31   C62   A    
Br16  C25   S    
C1    O9    A    
C18   C21   A    
C47   H17   S    
C7    O39   A    
C16   C42   S    
C111  O34   A    
O52   S6    D    
Cu7   O20   S    
C109  H56   S    
Cu1   O14   S    
C29   C60   A    
C104  H1    S    
C8    C67   S    
C102  H47   S    
C12   C172  S    
C126  C148  A    
C96   C101  A    
C85   C93   A    
Cu1   Cu6   S    
C76   H29   S    
C3    O32   A    
Br8   C20   S    
H50   O50   S    
C127  C149  A    
C146  C150  A    
C174  O24   A    
Cu5   O23   S    
C68   C90   A    
H60   O80   S    
C73   H26   S    
C31   C169  A    
H61   O83   S    
C139  H64   S    
Cu4   O8    S    
C128  C132  A    
C72   H25   S    
C47   C50   A    
Cu10  O35   S    
C60   C92   S    
O44   S1    D    
O51   S6    D    
C114  C123  A    
C74   C78   A    
C10   O45   A    
C29   H19   S    
C6    C65   S    
C5    C155  S    
C137  S3    S    
C17   C21   A    
Br6   C18   S    
C128  C150  A    
C116  S7    S    
O61   S9    D    
Cu6   O10   S    
C118  O19   A    
Br9   C80   S    
C79   C91   A    
O63   S9    S    
Cu9   O24   S    
C86   C94   A    
C15   O5    A    
C29   C167  A    
C81   C168  A    
Cu6   O19   S    
C129  C151  A    
C86   C155  A    
C130  C152  S    
H52   O57   S    
C114  S5    S    
C122  C176  S    
C43   H14   S    
C150  S10   S    
C156  C173  T    
Cu9   O31   S    
C83   C91   A    
C4    O33   A    
O66   S10   S    
Cu9   O37   S    
C20   C22   A    
C16   O7    A    
O62   S9    D    
C174  O22   A    
C52   C55   A    
C115  S6    S    
Br12  C126  S    
C108  C113  A    
C68   H39   S    
Br13  C127  S    
C137  C141  A    
C56   C67   T    
C22   C36   S    
C44   C52   A    
Cu2   O84   S    
C100  C163  S    
O79   S3    D    
O76   S2    S    
Cu12  O45   S    
C33   C38   S    
C23   C32   A    
O69   S11   D    
C95   H40   S    
Cu4   O78   S    
C45   H16   S    
C89   C162  S    
C148  S8    S    
C35   C166  A    
O55   S7    D    
C127  C131  A    
Br3   C27   S    
C43   C48   A    
C169  H13   S    
C6    O37   A    
C135  S12   S    
O65   S10   D    
C88   C93   A    
C13   C57   A    
C97   H42   S    
Cu7   O13   S    
O71   S12   D    
C53   C55   A    
C101  C105  A    
Br2   C23   S    
C57   C88   A    
C72   C76   A    
C138  S4    S    
Cu8   Cu9   S    
C31   H21   S    
C132  C154  S    
C87   C92   A    
C2    C133  A    
O75   S2    D    
Cu1   O12   S    
C12   O3    A    
C151  S11   S    
C96   C123  A    
Cu3   O4    S    
C109  C114  A    
C55   C64   S    
O57   S7    S    
C38   C40   T    
H53   O60   S    
C3    O28   A    
C5    O30   A    
C17   C27   A    
C39   C174  S    
Br15  C129  S    
C27   C33   A    
C159  C163  T    
C121  C166  S    
O60   S8    S    
C106  C110  A    
C28   C59   A    
C147  C151  A    
C108  H45   S    
O64   S10   D    
C83   H31   S    
C160  C164  T    
Cu2   O56   S    
O81   S4    D    
O82   S4    D    
Cu11  O30   S    
C97   C124  A    
C62   C94   S    
Cu12  O5    S    
H51   O53   S    
C134  C138  A    
C70   H22   S    
Cu8   O27   S    
C74   H27   S    
C46   C87   A    
C90   C94   A    
C113  S1    S    
C12   O67   A    
C87   C118  S    
Br7   C19   S    
C100  O11   A    
C98   C103  A    
Cu12  O40   S    
Cu5   O17   S    
C100  O23   A    
C118  O15   A    
C75   H28   S    
C111  O13   A    
C131  C136  A    
C103  H48   S    
C107  C112  A    
C110  C115  A    
C167  H10   S    
Cu9   O28   S    
C106  H23   S    
C90   C120  S    
C25   C32   A    
Cu11  O26   S    
C48   C56   S    
C2    C123  S    
Cu5   O16   S    
C26   C33   A    
C97   C102  A    
C104  C108  A    
C11   O2    A    
C9    O42   A    
C99   C104  A    
C143  C157  S    
C95   C99   A    
C8    O41   A    
C77   C82   A    
C131  C153  S    
O80   S3    S    
