data_mof_unit_37676.cif
_audit_creation_date              2013-03-05T16:47:53-0500
_audit_creation_method            fapswitch 2.2
_symmetry_space_group_name_H-M    P1
_symmetry_Int_Tables_number       1
_space_group_crystal_system       triclinic
_cell_length_a                    10.862925
_cell_length_b                    10.871555
_cell_length_c                    9.563485
_cell_angle_alpha                 89.784787
_cell_angle_beta                  91.143858
_cell_angle_gamma                 91.771146
_cell_volume                      1128.64769968

loop_
_atom_site_label
_atom_site_type_symbol
_atom_site_description
_atom_site_fract_x
_atom_site_fract_y
_atom_site_fract_z
_atom_type_partial_charge
O1    O     O_R   0.499990 0.319640 0.618810 -0.580031
O2    O     O_R   0.500000 0.319660 0.381240 -0.589624
C1    C     C_R   0.506534 0.262320 0.501758 0.831273
O3    O     O_R   0.319640 0.500000 0.618780 -0.547041
O4    O     O_R   0.319650 0.500020 0.381210 -0.570298
C2    C     C_R   0.262300 0.498424 0.498539 0.850923
Cu1   Cu    Cu3+1 0.499990 0.499990 0.640660 0.953127
Cu2   Cu    Cu3+1 0.500010 0.500010 0.359340 0.941203
O5    O     O_R   0.500000 0.680340 0.618760 -0.616455
O6    O     O_R   0.500010 0.680360 0.381190 -0.596968
O7    O     O_R   0.680350 0.499980 0.618790 -0.607931
O8    O     O_R   0.680360 0.500000 0.381220 -0.606209
C3    C     C_R   0.490742 0.737147 0.500514 0.766153
C4    C     C_R   0.737404 0.495923 0.501727 0.792659
H1    H     H_    0.223332 0.810269 0.949553 0.131495
C5    C     C_R   0.223780 0.796318 0.174443 -0.126626
H2    H     H_    0.273954 0.882823 0.190432 0.133113
C6    C     C_R   0.183822 0.727312 0.289569 -0.102406
H3    H     H_    0.202749 0.761561 0.394288 0.104546
C7    C     C_R   0.116072 0.616531 0.268890 0.131685
C8    C     C_R   0.090359 0.575098 0.131995 -0.120043
H4    H     H_    0.037091 0.490523 0.114279 0.153857
C9    C     C_R   0.130520 0.644285 0.017418 -0.112623
H5    H     H_    0.108866 0.613147 0.912152 0.160041
C10   C     C_R   0.195994 0.755332 0.038642 -0.145334
C11   C     C_R   0.932680 0.548237 0.393992 -0.242662
H6    H     H_    0.881195 0.594520 0.312109 0.157093
C12   C     C_R   0.871105 0.491937 0.504726 -0.123996
C13   C     C_R   0.937690 0.431150 0.611544 -0.127782
C14   C     C_R   0.066434 0.428136 0.604332 0.303056
C15   C     C_R   0.128037 0.492384 0.496118 -0.200381
C16   C     C_R   0.059985 0.550365 0.388469 -0.041723
C17   C     C_R   0.852712 0.425963 0.852164 -0.061154
H7    H     H_    0.870376 0.524207 0.859999 0.117865
C18   C     C_R   0.810955 0.360399 0.968910 -0.143200
H8    H     H_    0.792911 0.408513 0.064900 0.136995
C19   C     C_R   0.795932 0.232400 0.962941 -0.122698
H9    H     H_    0.764969 0.181511 0.053844 0.126876
C20   C     C_R   0.821615 0.169969 0.839793 -0.137450
H10   H     H_    0.810709 0.070729 0.835617 0.134167
C21   C     C_R   0.860252 0.235626 0.721672 -0.111352
H11   H     H_    0.881526 0.186253 0.627455 0.125986
C22   C     C_R   0.876404 0.364127 0.727377 0.176407
H12   H     H_    0.514221 0.111555 0.281970 0.157095
C23   C     C_R   0.532526 0.114740 0.770277 -0.153001
H13   H     H_    0.579188 0.202590 0.783660 0.176608
C24   C     C_R   0.507509 0.051384 0.893595 -0.153350
H14   H     H_    0.528654 0.093852 0.993819 0.124436
C25   C     C_R   0.453038 0.934844 0.887884 -0.130613
H15   H     H_    0.429857 0.887270 0.983744 0.132790
C26   C     C_R   0.431977 0.878103 0.759057 -0.151343
H16   H     H_    0.382873 0.790302 0.760412 0.159078
C27   C     C_R   0.471471 0.935297 0.633198 0.099528
C28   C     C_R   0.505534 0.061426 0.637134 0.115244
C29   C     C_R   0.511212 0.127733 0.507988 -0.109626
C30   C     C_R   0.507564 0.063644 0.381209 -0.216354
H17   H     H_    0.503416 0.890046 0.280493 0.166386
C31   C     C_R   0.497750 0.936760 0.379941 -0.228690
C32   C     C_R   0.480969 0.871111 0.504501 -0.116391
H18   H     H_    0.367323 0.356156 0.127082 0.153695
C33   C     C_R   0.658519 0.667370 0.146642 -0.171975
H19   H     H_    0.668899 0.673782 0.256725 0.202038
C34   C     C_R   0.734872 0.749708 0.075434 -0.227001
H20   H     H_    0.795662 0.813217 0.132728 0.156280
C35   C     C_R   0.735058 0.749240 0.931529 -0.209115
H21   H     H_    0.796123 0.812200 0.876076 0.148867
C36   C     C_R   0.658994 0.666301 0.858143 -0.149551
H22   H     H_    0.670685 0.670328 0.748500 0.203650
C37   C     C_R   0.577406 0.582573 0.926331 0.194452
C38   C     C_R   0.577326 0.582727 0.076100 0.206535
N1    N     N_R   0.501190 0.501210 0.147910 -0.203761
C39   C     C_R   0.427074 0.420921 0.072697 -0.052389
H23   H     H_    0.369364 0.354704 0.868135 0.211435
C40   C     C_R   0.427611 0.420576 0.924638 -0.034651
N2    N     N_R   0.501230 0.501290 0.852040 -0.216526
N3    N     N_R   0.133845 0.352919 0.701548 0.118708
O9    O     O_R   0.126293 0.369944 0.835638 -0.412117
O10   O     O_R   0.199560 0.264036 0.655723 -0.384902

loop_
_geom_bond_atom_site_label_1
_geom_bond_atom_site_label_2
_geom_bond_distance
_ccdc_geom_bond_type
C33   C38   1.417926 A    
C29   C30   1.399924 A    
C34   C35   1.376303 A    
C11   C16   1.384439 A    
H23   C40   1.080023 S    
C18   H8    1.082536 S    
C27   C32   1.424215 A    
Cu1   Cu2   2.690403 S    
C24   C25   1.382467 A    
C23   H13   1.074176 S    
Cu1   O7    1.974520 S    
C11   H6    1.084505 S    
C19   H9    1.082382 S    
C12   C13   1.413660 A    
C18   C19   1.397320 A    
N3    O10   1.301420 A    
O1    C1    1.287500 A    
C14   C15   1.414221 A    
O7    C4    1.291965 A    
H1    C10   1.079878 S    
H18   C39   1.081688 S    
C6    H3    1.083380 S    
C21   H11   1.083061 S    
C33   C34   1.387462 A    
O5    C3    1.290111 A    
C1    C29   1.466560 S    
C24   H14   1.082865 S    
C5    H2    1.082096 S    
C25   C26   1.391588 A    
C9    H5    1.082395 S    
C38   N1    1.383418 A    
C2    C15   1.457659 S    
C8    H4    1.083201 S    
C13   C22   1.481442 S    
C21   C22   1.403714 A    
C37   C38   1.432337 A    
O3    Cu1   1.966117 S    
C23   C24   1.390773 A    
C40   N2    1.365932 A    
C36   H22   1.059327 S    
C17   C22   1.404051 A    
N3    O9    1.300919 A    
O3    C2    1.296718 A    
C20   H10   1.082531 S    
Cu1   N2    2.021406 S    
C35   C36   1.387036 A    
C31   C32   1.398528 A    
C27   C28   1.409623 A    
C26   H16   1.079139 S    
C26   C27   1.420549 A    
C13   C14   1.403017 A    
C14   N3    1.439932 S    
H12   C30   1.083491 S    
C15   C16   1.413235 A    
Cu2   O8    1.966117 S    
C17   H7    1.081927 S    
C5    C6    1.398635 A    
C39   C40   1.416108 A    
O8    C4    1.298825 A    
C23   C28   1.422459 A    
C25   H15   1.081183 S    
C8    C9    1.396204 A    
C7    C16   1.480199 S    
C36   C37   1.417060 A    
C5    C10   1.398831 A    
Cu1   O5    1.971054 S    
C28   C29   1.429150 A    
Cu2   N1    2.022295 S    
O1    Cu1   1.972569 S    
O2    Cu2   1.971054 S    
O6    C3    1.306608 A    
O4    Cu2   1.974520 S    
C3    C32   1.464222 S    
C11   C12   1.393425 A    
O2    C1    1.310012 A    
N1    C39   1.365884 A    
C19   C20   1.398692 A    
H17   C31   1.083570 S    
O4    C2    1.294050 A    
C17   C18   1.398072 A    
C30   C31   1.380334 A    
C37   N2    1.380747 A    
C6    C7    1.404432 A    
C9    C10   1.395531 A    
C33   H19   1.058886 S    
C34   H20   1.083147 S    
C7    C8    1.406042 A    
C20   C21   1.398619 A    
Cu2   O6    1.972568 S    
C35   H21   1.083062 S    
C4    C12   1.454074 S    
