data_mof_unit_39793.cif
_audit_creation_date              2013-03-05T16:06:55-0500
_audit_creation_method            fapswitch 2.2
_symmetry_space_group_name_H-M    P1
_symmetry_Int_Tables_number       1
_space_group_crystal_system       triclinic
_cell_length_a                    10.839107
_cell_length_b                    9.590587
_cell_length_c                    10.861426
_cell_angle_alpha                 90.023454
_cell_angle_beta                  91.806503
_cell_angle_gamma                 89.980958
_cell_volume                      1128.52082867

loop_
_atom_site_label
_atom_site_type_symbol
_atom_site_description
_atom_site_fract_x
_atom_site_fract_y
_atom_site_fract_z
_atom_type_partial_charge
O1    O     O_R   0.319640 0.618740 0.499990 -0.591697
O2    O     O_R   0.680360 0.618740 0.500010 -0.592751
O3    O     O_R   0.319620 0.381170 0.499990 -0.562313
O4    O     O_R   0.680380 0.381170 0.500010 -0.561781
C1    C     C_R   0.262303 0.500266 0.500757 0.819455
C2    C     C_R   0.737703 0.500237 0.499245 0.817909
O5    O     O_R   0.499990 0.618810 0.319660 -0.575429
O6    O     O_R   0.500010 0.618810 0.680340 -0.573562
O7    O     O_R   0.499960 0.381240 0.319650 -0.555411
O8    O     O_R   0.500040 0.381240 0.680350 -0.554819
C3    C     C_R   0.499183 0.499941 0.262837 0.843673
C4    C     C_R   0.500797 0.499987 0.737182 0.840032
Cu1   Cu    Cu3+1 0.500000 0.640660 0.500000 1.011497
Cu2   Cu    Cu3+1 0.500000 0.359340 0.500000 1.066308
C5    C     C_R   0.495645 0.621370 0.062198 -0.020858
C6    C     C_R   0.499501 0.621490 0.937824 -0.020960
C7    C     C_R   0.498809 0.498690 0.130156 -0.071401
C8    C     C_R   0.501815 0.498798 0.869918 -0.075015
C9    C     C_R   0.503073 0.371763 0.064596 -0.119873
C10   C     C_R   0.503548 0.371793 0.935600 -0.118111
H1    H     H_    0.505887 0.272541 0.112152 0.210079
H2    H     H_    0.505091 0.272544 0.888149 0.216639
C11   C     C_3   0.495540 0.777518 0.928079 0.102838
C12   C     C_3   0.488920 0.777299 0.071669 0.101336
C13   C     C_R   0.063772 0.375464 0.502889 -0.103832
C14   C     C_R   0.936366 0.375435 0.498163 -0.103563
H3    H     H_    0.111325 0.276850 0.507881 0.216126
H4    H     H_    0.888907 0.276790 0.494008 0.216880
C15   C     C_R   0.871655 0.501445 0.498526 -0.059277
C16   C     C_R   0.128362 0.501485 0.501507 -0.058502
C17   C     C_R   0.935995 0.628337 0.499310 -0.117933
C18   C     C_R   0.063914 0.628351 0.499761 -0.114683
H5    H     H_    0.887867 0.727354 0.499134 0.183557
H6    H     H_    0.111957 0.727368 0.499143 0.184014
C19   C     C_R   0.406585 0.071861 0.440726 0.374033
C20   C     C_R   0.593597 0.071781 0.559026 0.378709
C21   C     C_R   0.407830 0.924116 0.441881 -0.047879
C22   C     C_R   0.592239 0.924052 0.557953 -0.038107
H7    H     H_    0.334648 0.866709 0.394678 0.213725
H8    H     H_    0.665548 0.866571 0.604861 0.213289
N1    N     N_R   0.500000 0.852070 0.500000 -0.240898
N2    N     N_R   0.500000 0.147940 0.500000 -0.288402
N3    N     N_R   0.609141 0.838727 0.881642 0.113807
O9    O     O_R   0.623394 0.973417 0.883036 -0.321194
O10   O     O_R   0.697583 0.760492 0.841706 -0.329661
N4    N     N_R   0.371461 0.828478 0.118047 0.111651
O11   O     O_R   0.347392 0.961371 0.115212 -0.307221
O12   O     O_R   0.289987 0.743099 0.161076 -0.332508
C23   C     C_1   0.384355 0.826680 0.859108 0.362496
N5    N     N_1   0.297345 0.865185 0.804735 -0.223170
C24   C     C_1   0.596374 0.836240 0.140417 0.364321
N6    N     N_1   0.680444 0.882450 0.194605 -0.227087
N7    N     N_R   0.304243 0.137286 0.377114 0.145864
O13   O     O_R   0.323300 0.213270 0.280746 -0.300106
O14   O     O_R   0.194657 0.084378 0.388636 -0.371007
N8    N     N_R   0.696710 0.136979 0.621613 0.145034
O15   O     O_R   0.678771 0.215545 0.716660 -0.300192
O16   O     O_R   0.805806 0.082524 0.610517 -0.374067

loop_
_geom_bond_atom_site_label_1
_geom_bond_atom_site_label_2
_geom_bond_distance
_ccdc_geom_bond_type
O5    C3    1.296040 A    
O7    Cu2   1.970159 S    
C17   H5    1.083302 S    
O6    Cu1   1.970009 S    
C20   N8    1.433334 S    
Cu1   Cu2   2.698024 S    
O6    C4    1.296191 A    
C19   N7    1.432891 S    
N3    O10   1.302146 A    
C9    C10   1.401257 A    
C20   N2    1.390187 A    
C17   C18   1.386386 A    
Cu2   N2    2.027450 S    
C11   C12   1.563507 S    
C12   N4    1.468128 S    
C12   C24   1.476106 S    
Cu1   N1    2.027546 S    
C11   N3    1.468010 S    
C19   N2    1.389633 A    
C21   H7    1.081476 S    
C22   H8    1.081343 S    
N7    O13   1.297552 A    
C16   C18   1.402630 A    
O7    C3    1.295016 A    
O2    C2    1.295338 A    
O3    Cu2   1.966263 S    
O8    C4    1.295067 A    
C14   C15   1.397174 A    
C21   N1    1.354302 A    
O1    C1    1.295437 A    
C20   C22   1.416928 A    
C5    C12   1.500855 S    
C9    H1    1.082888 S    
C10   H2    1.082626 S    
C23   N5    1.157331 T    
C6    C11   1.500683 S    
C8    C10   1.411665 A    
N7    O14   1.301488 A    
N3    O9    1.301039 A    
O4    Cu2   1.966400 S    
N4    O12   1.302148 A    
C11   C23   1.476100 S    
O4    C2    1.300349 A    
C13   H3    1.077513 S    
C24   N6    1.157331 T    
O5    Cu1   1.969839 S    
C2    C15   1.452242 S    
O1    Cu1   1.966278 S    
N8    O15   1.297386 A    
C19   C21   1.417085 A    
C22   N1    1.353805 A    
C6    C8    1.389115 A    
C1    C16   1.452120 S    
O8    Cu2   1.969986 S    
C4    C8    1.441446 S    
C13   C16   1.397267 A    
C5    C7    1.389035 A    
O2    Cu1   1.966138 S    
N4    O11   1.301051 A    
C3    C7    1.441028 S    
C7    C9    1.411504 A    
C13   C14   1.380298 A    
C15   C17   1.402715 A    
C14   H4    1.077269 S    
C5    C6    1.352843 A    
N8    O16   1.301585 A    
O3    C1    1.300194 A    
C18   H6    1.083311 S    
