data_mof_unit_51053.cif
_audit_creation_date              2013-03-05T15:58:17-0500
_audit_creation_method            fapswitch 2.2
_symmetry_space_group_name_H-M    P1
_symmetry_Int_Tables_number       1
_space_group_crystal_system       triclinic
_cell_length_a                    12.722856
_cell_length_b                    13.247279
_cell_length_c                    15.189212
_cell_angle_alpha                 89.583336
_cell_angle_beta                  98.978465
_cell_angle_gamma                 97.723331
_cell_volume                      2505.48656692

loop_
_atom_site_label
_atom_site_type_symbol
_atom_site_description
_atom_site_fract_x
_atom_site_fract_y
_atom_site_fract_z
_atom_type_partial_charge
O1    O     O_R   0.374950 0.371210 0.521360 -0.557969
O2    O     O_R   0.542050 0.338030 0.492790 -0.604293
C1    C     C_R   0.442126 0.307708 0.505561 0.930570
O3    O     O_R   0.368720 0.526070 0.390200 -0.564964
O4    O     O_R   0.535820 0.492890 0.361630 -0.612861
C2    C     C_R   0.437846 0.517150 0.336182 0.957369
Zn1   Zn    Zn3+2 0.388420 0.522150 0.519080 1.060027
Zn2   Zn    Zn3+2 0.611580 0.477850 0.480920 1.054741
O5    O     O_R   0.457950 0.661970 0.507210 -0.600857
O6    O     O_R   0.625050 0.628790 0.478640 -0.569571
O7    O     O_R   0.464180 0.507110 0.638370 -0.601590
O8    O     O_R   0.631280 0.473930 0.609800 -0.575406
C3    C     C_R   0.556833 0.691522 0.490546 0.924514
C4    C     C_R   0.560838 0.480361 0.664157 0.915764
C5    C     C_R   0.398083 0.523855 0.241157 -0.223622
C6    C     C_R   0.583661 0.443079 0.756323 -0.213014
C7    C     C_R   0.299693 0.601311 0.113205 0.207691
C8    C     C_R   0.347163 0.606652 0.204249 0.091097
C9    C     C_R   0.405180 0.441752 0.186592 0.186057
C10   C     C_R   0.395501 0.458278 0.095585 -0.038237
C11   C     C_R   0.322214 0.522969 0.058655 -0.123478
C12   C     C_R   0.458349 0.415984 0.041015 0.058864
C13   C     C_R   0.434795 0.428805 0.948658 -0.016594
C14   C     C_R   0.331436 0.454703 0.913135 0.071640
C15   C     C_R   0.273718 0.503007 0.969645 0.276699
C16   C     C_R   0.551658 0.374821 0.077287 -0.126554
C17   C     C_R   0.622834 0.347083 0.023541 0.182251
C18   C     C_R   0.602661 0.362895 0.930236 -0.034985
C19   C     C_R   0.514154 0.414345 0.896089 0.056134
C20   C     C_R   0.668164 0.334081 0.869508 0.136435
C21   C     C_R   0.659639 0.375598 0.783066 0.249300
C22   C     C_R   0.513213 0.461565 0.813897 -0.215094
H1    H     H_    0.456512 0.514598 0.794619 0.207971
H2    H     H_    0.573593 0.370096 0.148847 0.185067
C23   C     C_R   0.713142 0.946664 0.444744 0.240512
H3    H     H_    0.689311 0.128247 0.379039 0.201381
C24   C     C_R   0.595088 0.800862 0.488382 -0.205944
C25   C     C_R   0.323724 0.158494 0.557306 0.252325
C26   C     C_R   0.324953 0.064163 0.600110 0.165247
C27   C     C_R   0.407949 0.006612 0.594401 -0.250378
C28   C     C_R   0.484330 0.035702 0.537505 0.072136
C29   C     C_R   0.482363 0.129730 0.494463 -0.013341
C30   C     C_R   0.557238 0.971272 0.515598 0.083618
C31   C     C_R   0.641328 0.010391 0.468163 -0.037910
C32   C     C_R   0.637187 0.104750 0.427505 -0.161171
C33   C     C_R   0.545472 0.151166 0.426302 0.287129
C34   C     C_R   0.537149 0.866568 0.525873 -0.229181
C35   C     C_R   0.687032 0.840648 0.450669 0.226964
C36   C     C_R   0.410874 0.196472 0.513780 -0.201420
H4    H     H_    0.467828 0.834336 0.553708 0.200970
H5    H     H_    0.408960 0.937763 0.632726 0.187440
C37   C     C_R   0.146777 0.611190 0.655379 0.123380
H6    H     H_    0.962556 0.579700 0.716630 0.220926
N1    N     N_R   0.239390 0.551900 0.544730 -0.154934
C38   C     C_R   0.753794 0.382016 0.387232 0.034247
C39   C     C_R   0.842533 0.336535 0.375072 -0.185993
C40   C     C_R   0.940030 0.367035 0.429032 -0.048538
C41   C     C_R   0.950152 0.447270 0.491239 0.003856
C42   C     C_R   0.855009 0.480653 0.511118 0.205410
C43   C     C_R   0.051030 0.495866 0.534948 -0.071415
C44   C     C_R   0.054096 0.548461 0.616103 -0.003757
C45   C     C_R   0.959962 0.549419 0.650315 -0.087998
C46   C     C_R   0.864029 0.538617 0.592234 0.175870
C47   C     C_R   0.145860 0.505419 0.496604 0.261242
C48   C     C_R   0.240986 0.608311 0.620338 0.214836
N2    N     N_R   0.759950 0.448600 0.455730 -0.121618
H7    H     H_    0.677750 0.360137 0.345682 0.181352
H8    H     H_    0.007467 0.327957 0.421669 0.224522
H9    H     H_    0.835720 0.277765 0.324587 0.206501
N3    N     N_R   0.160475 0.508252 0.945679 0.246895
O9    O     O_R   0.118657 0.527365 0.864835 -0.339538
O10   O     O_R   0.096720 0.486542 0.004395 -0.301420
I1    I     I_    0.750200 0.202607 0.889461 -0.026706
N4    N     N_R   0.749653 0.774956 0.412806 0.249060
O11   O     O_R   0.708427 0.723018 0.340346 -0.334998
O12   O     O_R   0.852011 0.779670 0.441776 -0.304863
N5    N     N_R   0.805273 0.988661 0.405789 0.227427
O13   O     O_R   0.819972 0.955646 0.328737 -0.271088
O14   O     O_R   0.870646 0.065177 0.444517 -0.325951
N6    N     N_R   0.231829 0.211718 0.551983 0.236408
O15   O     O_R   0.187107 0.241350 0.474937 -0.328634
O16   O     O_R   0.189944 0.227723 0.622491 -0.319393
I2    I     I_    0.201820 0.001425 0.671514 -0.043369
N7    N     N_R   0.495458 0.183967 0.341944 0.218400
O17   O     O_R   0.554244 0.216679 0.282107 -0.410699
O18   O     O_R   0.396230 0.145145 0.314790 -0.251752
I3    I     I_    0.383748 0.697737 0.685587 -0.289348
I4    I     I_    0.139780 0.725251 0.754506 -0.122968
I5    I     I_    0.136465 0.489547 0.355104 -0.116427
I6    I     I_    0.786600 0.659498 0.633280 -0.202371
N8    N     N_R   0.723491 0.343459 0.721455 0.224530
O19   O     O_R   0.679431 0.279545 0.657371 -0.372783
O20   O     O_R   0.827565 0.364408 0.737996 -0.327016
I7    I     I_    0.772205 0.319081 0.098304 -0.144484
I8    I     I_    0.217182 0.722110 0.055305 -0.037914
I9    I     I_    0.343112 0.737016 0.285364 -0.157441
N9    N     N_R   0.382400 0.339183 0.217194 0.246579
O21   O     O_R   0.334299 0.323932 0.286708 -0.324748
O22   O     O_R   0.376360 0.262888 0.162196 -0.262979
I10   I     I_    0.252451 0.389388 0.787663 -0.101783

loop_
_geom_bond_atom_site_label_1
_geom_bond_atom_site_label_2
_geom_bond_distance
_ccdc_geom_bond_type
C5    C8    1.416237 A    
C38   C39   1.386123 A    
Zn2   N2    2.069808 S    
C8    I9    2.139566 S    
C28   C29   1.403931 A    
C9    C10   1.386947 A    
N9    O21   1.302134 A    
C1    C36   1.483381 S    
N1    C48   1.370726 A    
C32   C33   1.387807 A    
C6    C21   1.415270 A    
C5    C9    1.393147 A    
C16   C17   1.395016 A    
N4    O12   1.301212 A    
O4    C2    1.327389 A    
C13   C19   1.414058 A    
C18   C19   1.421412 A    
N7    O18   1.301729 A    
C19   C22   1.391410 A    
C37   C44   1.400403 A    
C42   N2    1.378538 A    
C25   C26   1.405272 A    
O7    C4    1.325164 A    
C41   C43   1.421488 A    
C39   C40   1.387972 A    
C29   C33   1.411082 A    
O5    C3    1.328782 A    
C2    C5    1.459244 S    
C16   H2    1.082713 S    
C13   C14   1.426611 A    
N3    O9    1.297245 A    
C7    I8    2.139896 S    
C24   C34   1.391408 A    
C3    C24   1.466565 S    
O1    Zn1   1.984310 S    
C28   C30   1.418777 A    
C47   I5    2.144174 S    
O3    Zn1   1.935596 S    
C23   C35   1.404617 A    
N9    O22   1.302560 A    
C48   I3    2.135785 S    
C34   H4    1.073057 S    
N5    O14   1.301774 A    
C9    N9    1.439900 S    
N4    O11   1.301417 A    
C35   N4    1.435099 S    
C37   I4    2.160811 S    
C14   C15   1.420043 A    
O3    C2    1.309665 A    
N8    O19   1.301031 A    
C25   C36   1.411971 A    
C20   I1    2.144028 S    
C41   C42   1.418431 A    
N5    O13   1.301432 A    
C23   N5    1.438767 S    
C7    C11   1.418526 A    
C43   C44   1.413024 A    
O1    C1    1.325112 A    
Zn1   O7    1.937285 S    
C30   C31   1.420719 A    
C45   C46   1.381045 A    
N8    O20   1.300716 A    
H6    C45   1.080987 S    
Zn2   O8    1.935597 S    
C7    C8    1.418246 A    
H3    C32   1.082668 S    
N7    O17   1.300986 A    
C24   C35   1.418934 A    
C23   C31   1.409662 A    
C33   N7    1.430825 S    
N6    O16   1.299113 A    
C27   C28   1.412930 A    
O8    C4    1.320851 A    
C21   N8    1.432841 S    
C4    C6    1.479755 S    
C40   H8    1.080202 S    
C26   C27   1.396321 A    
C38   N2    1.354986 A    
C31   C32   1.393902 A    
Zn1   O5    1.962231 S    
C11   C15   1.406932 A    
C14   I10   2.140821 S    
O2    Zn2   1.962232 S    
C10   C12   1.405126 A    
N6    O15   1.301102 A    
O6    C3    1.312108 A    
O4    Zn2   1.937285 S    
C38   H7    1.074742 S    
C6    C22   1.390976 A    
C27   H5    1.078877 S    
C42   C46   1.437622 A    
C43   C47   1.410005 A    
C22   H1    1.080281 S    
C18   C20   1.421839 A    
O2    C1    1.324315 A    
C26   I2    2.118607 S    
C40   C41   1.406759 A    
C20   C21   1.413954 A    
C25   N6    1.435914 S    
C46   I6    2.133941 S    
C44   C45   1.379504 A    
C29   C36   1.413606 A    
C10   C11   1.401075 A    
N1    C47   1.366609 A    
Zn2   O6    1.984309 S    
C39   H9    1.082341 S    
C12   C16   1.405594 A    
C17   C18   1.419463 A    
C12   C13   1.401984 A    
C17   I7    2.132736 S    
N3    O10   1.302081 A    
C15   N3    1.440840 S    
Zn1   N1    2.082286 S    
C30   C34   1.388377 A    
C37   C48   1.390358 A    
