data_mof_unit_19280.cif
_audit_creation_date              2012-12-10T16:54:57-0500
_audit_creation_method            fapswitch 2.2
_symmetry_space_group_name_H-M    P1
_symmetry_Int_Tables_number       1
_space_group_crystal_system       triclinic
_cell_length_a                    7.773031
_cell_length_b                    8.577428
_cell_length_c                    15.718765
_cell_angle_alpha                 90.850451
_cell_angle_beta                  85.839762
_cell_angle_gamma                 93.632637
_cell_volume                      1043.09431749

loop_
_atom_site_label
_atom_site_type_symbol
_atom_type_description
_atom_site_fract_x
_atom_site_fract_y
_atom_site_fract_z
_atom_type_partial_charge
C1    C     C_R   0.545765 0.794723 0.497808 0.959614
C2    C     C_3   0.360059 0.604274 0.053686 -0.515802
C3    C     C_3   0.496771 0.496445 0.082634 0.330122
C4    C     C_3   0.454949 0.327940 0.048913 0.299939
C5    C     C_3   0.460852 0.329038 0.950140 -0.444903
C6    C     C_1   0.493519 0.497997 0.174269 -0.062361
C7    C     C_1   0.506280 0.498176 0.825712 -0.103347
C8    C     C_1   0.505976 0.499016 0.750364 -0.182625
C9    C     C_2   0.569850 0.958202 0.496553 -0.376883
C10   C     C_2   0.430149 0.041798 0.503422 -0.378776
C11   C     C_R   0.502000 0.500035 0.661597 0.903069
C12   C     C_R   0.454234 0.205277 0.502182 0.963497
C13   C     C_R   0.497990 0.499878 0.338403 0.905721
C14   C     C_3   0.363570 0.604325 0.955437 -0.409355
C15   C     C_3   0.681681 0.557654 0.946430 -0.402958
C16   C     C_3   0.677677 0.557929 0.044694 -0.363091
C17   C     C_1   0.493793 0.499144 0.249633 -0.167006
C18   C     C_3   0.503321 0.497332 0.917239 0.317555
H1    H     H_    0.386760 0.725664 0.077536 0.191687
H2    H     H_    0.234196 0.562742 0.934965 0.175438
H3    H     H_    0.228763 0.563473 0.080644 0.175744
H4    H     H_    0.701802 0.009236 0.490000 0.181246
H5    H     H_    0.298196 0.990764 0.509973 0.180477
H6    H     H_    0.013407 0.381923 0.436567 0.194252
H7    H     H_    0.986593 0.618078 0.563432 0.191594
H8    H     H_    0.391220 0.725809 0.931950 0.179411
H9    H     H_    0.783922 0.481972 0.919567 0.175797
H10   H     H_    0.715404 0.678161 0.922652 0.169322
H11   H     H_    0.779334 0.483951 0.065334 0.205989
H12   H     H_    0.333575 0.283079 0.928936 0.135762
H13   H     H_    0.559658 0.250597 0.922418 0.191054
N1    N     N_2   0.950340 0.457950 0.477370 -0.172523
N2    N     N_2   0.049660 0.542050 0.522630 -0.173577
O1    O     O_R   0.389240 0.738570 0.505550 -0.613179
O2    O     O_R   0.678400 0.711630 0.491050 -0.631121
O3    O     O_R   0.355360 0.513470 0.630110 -0.613430
O4    O     O_R   0.644510 0.486530 0.615610 -0.622624
O5    O     O_R   0.321600 0.288370 0.508950 -0.630951
O6    O     O_R   0.610760 0.261430 0.494450 -0.612041
O7    O     O_R   0.355490 0.513470 0.384390 -0.623562
O8    O     O_R   0.644640 0.486530 0.369890 -0.607425
Zn1   Zn    Zn3+2 0.306930 0.517990 0.509680 0.944990
Zn2   Zn    Zn3+2 0.693070 0.482010 0.490320 0.948757
O9    O     O_3   0.573836 0.225769 0.076297 -0.775034
H14   H     H_    0.523987 0.118018 0.066690 0.324015
H15   H     H_    0.708227 0.678865 0.068272 0.158540
H16   H     H_    0.321964 0.287807 0.074517 0.078984

loop_
_geom_bond_atom_site_label_1
_geom_bond_atom_site_label_2
_ccdc_geom_bond_type
O4    Zn2   S    
C15   C18   S    
H6    N1    S    
C10   H5    S    
O2    Zn2   S    
C9    C10   D    
C14   C18   S    
C15   H9    S    
O1    Zn1   S    
C13   C17   S    
C3    C6    S    
N1    N2    D    
C7    C18   S    
C12   O6    A    
O7    Zn1   S    
C2    C3    S    
C2    H1    S    
C7    C8    T    
C14   H8    S    
O8    Zn2   S    
C15   H10   S    
C10   C12   S    
C2    H3    S    
C8    C11   S    
N2    Zn1   S    
C13   O8    A    
C11   O3    A    
N1    Zn2   S    
C1    O1    A    
O5    Zn1   S    
C12   O5    A    
C2    C14   S    
C9    H4    S    
C3    C4    S    
C14   H2    S    
C1    C9    S    
O9    H14   S    
C1    O2    A    
C5    H12   S    
C16   H15   S    
C11   O4    A    
C6    C17   T    
C13   O7    A    
O6    Zn2   S    
C5    C18   S    
C4    O9    S    
C16   H11   S    
O3    Zn1   S    
C3    C16   S    
C15   C16   S    
H7    N2    S    
C4    C5    S    
C5    H13   S    
C4    H16   S    
