data_mof_unit_12121.cif
_audit_creation_date              2012-10-26T19:23:06-0400
_audit_creation_method            fapswitch 2.2
_symmetry_space_group_name_H-M    P1
_symmetry_Int_Tables_number       1
_space_group_crystal_system       triclinic
_cell_length_a                    17.403261
_cell_length_b                    12.979767
_cell_length_c                    11.746133
_cell_angle_alpha                 101.806779
_cell_angle_beta                  90.492718
_cell_angle_gamma                 91.791309
_cell_volume                      2595.62687777

loop_
_atom_site_label
_atom_site_type_symbol
_atom_type_description
_atom_site_fract_x
_atom_site_fract_y
_atom_site_fract_z
_atom_type_partial_charge
C1    C     C_R   0.499715 0.298788 0.477175 0.548697
C2    C     C_R   0.453248 0.866566 0.479182 0.025941
C3    C     C_R   0.532683 0.029045 0.536096 -0.014394
C4    C     C_R   0.472285 0.970107 0.465284 0.046661
C5    C     C_R   0.430073 0.397159 0.021098 -0.077191
C6    C     C_R   0.571728 0.602692 0.977686 -0.063433
C7    C     C_R   0.430746 0.414390 0.144506 0.164696
C8    C     C_R   0.563147 0.594440 0.855326 0.152570
C9    C     C_R   0.533963 0.539116 0.156404 0.028802
C10   C     C_R   0.472579 0.453025 0.842081 0.025087
C11   C     C_R   0.528399 0.534397 0.033575 -0.025117
C12   C     C_R   0.501635 0.700955 0.522837 0.524030
C13   C     C_R   0.477385 0.460105 0.964923 -0.025159
C14   C     C_R   0.350926 0.501644 0.514958 0.552958
C15   C     C_R   0.649074 0.498815 0.485200 0.551514
C16   C     C_R   0.267142 0.502649 0.523229 0.005878
C17   C     C_R   0.732896 0.500293 0.477822 0.008382
C18   C     C_R   0.221727 0.481639 0.421932 -0.117076
C19   C     C_R   0.777748 0.516226 0.579601 -0.103351
C20   C     C_R   0.142455 0.478553 0.428707 -0.116533
C21   C     C_R   0.856974 0.523682 0.574080 -0.112428
C22   C     C_R   0.106717 0.500043 0.537181 0.034622
C23   C     C_R   0.505930 0.814972 0.536923 -0.068848
C24   C     C_R   0.893460 0.510521 0.466155 0.035305
C25   C     C_R   0.151809 0.524675 0.640521 0.007994
C26   C     C_R   0.848844 0.490950 0.362153 0.008838
C27   C     C_R   0.232042 0.524355 0.632157 -0.124820
C28   C     C_R   0.768575 0.487450 0.369544 -0.122733
C29   C     C_2   0.022733 0.489957 0.541385 -0.147771
C30   C     C_2   0.977576 0.522171 0.463438 -0.146751
C31   C     C_2   0.601128 0.676016 0.803522 0.309811
C32   C     C_2   0.364989 0.368186 0.196791 0.287242
C33   C     C_R   0.381443 0.310617 0.950772 0.001684
C34   C     C_R   0.497585 0.184239 0.463648 -0.028481
C35   C     C_R   0.414795 0.215150 0.900482 -0.089009
C36   C     C_R   0.370603 0.135008 0.829376 -0.100304
C37   C     C_R   0.292909 0.149618 0.808458 -0.083167
C38   C     C_R   0.259398 0.244525 0.858257 -0.109218
C39   C     C_R   0.303599 0.325204 0.928697 -0.116011
C40   C     C_R   0.621834 0.687833 0.047362 -0.007918
C41   C     C_R   0.702151 0.683104 0.040438 -0.068540
C42   C     C_R   0.748907 0.763330 0.106695 -0.105462
C43   C     C_R   0.715779 0.848098 0.180718 -0.080958
C44   C     C_R   0.635809 0.853205 0.188043 -0.085155
C45   C     C_R   0.433334 0.016986 0.383055 0.030766
C46   C     C_R   0.588928 0.773619 0.121169 -0.106672
C47   C     C_R   0.117425 0.555125 0.757510 0.024951
C48   C     C_R   0.064083 0.635755 0.780529 -0.095206
C49   C     C_R   0.034942 0.667514 0.892370 -0.117175
C50   C     C_R   0.059431 0.620145 0.982373 -0.094426
C51   C     C_R   0.112375 0.540000 0.960416 -0.111490
C52   C     C_R   0.141186 0.507529 0.848541 -0.108017
C53   C     C_R   0.883652 0.469627 0.244921 0.026084
C54   C     C_R   0.859190 0.523845 0.159746 -0.107799
C55   C     C_R   0.888280 0.499556 0.047200 -0.113859
C56   C     C_R   0.572914 0.980613 0.616190 0.029866
C57   C     C_R   0.941893 0.420851 0.018607 -0.091078
C58   C     C_R   0.966995 0.366941 0.102740 -0.115765
C59   C     C_R   0.937752 0.390630 0.215264 -0.096669
C60   C     C_2   0.374721 0.817428 0.452679 0.279079
C61   C     C_2   0.626518 0.187128 0.556737 0.196085
C62   C     C_2   0.388647 0.957451 0.280976 0.276230
C63   C     C_2   0.617242 0.041396 0.718195 0.284663
C64   C     C_R   0.441682 0.124846 0.391323 -0.168502
C65   C     C_R   0.564473 0.871933 0.605916 -0.125848
C66   C     C_R   0.549821 0.134226 0.524634 -0.023502
Cu1   Cu    Cu3+1 0.505800 0.507690 0.615350 0.961801
Cu2   Cu    Cu3+1 0.494200 0.492310 0.384650 0.998802
H1    H     H_    0.247208 0.465891 0.337062 0.127806
H2    H     H_    0.405833 0.161655 0.337464 0.182433
H3    H     H_    0.433648 0.396366 0.788471 0.150063
H4    H     H_    0.575800 0.591563 0.209339 0.144285
H5    H     H_    0.571747 0.748337 0.803573 0.100141
H6    H     H_    0.307203 0.383950 0.171506 0.055190
H7    H     H_    0.475109 0.203414 0.915414 0.113738
H8    H     H_    0.396647 0.061771 0.790185 0.119772
H9    H     H_    0.258731 0.087516 0.753437 0.134230
H10   H     H_    0.199260 0.255648 0.841773 0.106528
H11   H     H_    0.277539 0.398975 0.965750 0.089221
H12   H     H_    0.751845 0.524518 0.664161 0.182489
H13   H     H_    0.728349 0.617344 0.984088 0.126272
H14   H     H_    0.810837 0.759561 0.101011 0.106092
H15   H     H_    0.752066 0.909822 0.232344 0.136481
H16   H     H_    0.610146 0.918784 0.245433 0.144723
H17   H     H_    0.527087 0.778223 0.127096 0.170812
H18   H     H_    0.045966 0.675165 0.712497 0.126539
H19   H     H_    0.993883 0.729543 0.909508 0.117208
H20   H     H_    0.037098 0.645163 0.069017 0.122801
H21   H     H_    0.131012 0.502923 0.030045 0.104376
H22   H     H_    0.182122 0.445464 0.832608 0.098952
H23   H     H_    0.733962 0.472589 0.290343 0.132321
H24   H     H_    0.817358 0.584545 0.180567 0.106302
H25   H     H_    0.869208 0.541647 0.982081 0.106374
H26   H     H_    0.964212 0.401939 0.931336 0.123829
H27   H     H_    0.008586 0.306051 0.080446 0.110983
H28   H     H_    0.956334 0.346201 0.278555 0.122188
H29   H     H_    0.366012 0.732585 0.430432 0.130515
H30   H     H_    0.632257 0.271766 0.586517 0.131419
H31   H     H_    0.343444 0.995617 0.242458 0.119931
H32   H     H_    0.606845 0.124110 0.750507 0.101307
H33   H     H_    0.267111 0.543413 0.710836 0.132791
H34   H     H_    0.002762 0.556432 0.394833 0.135542
H35   H     H_    0.998121 0.455543 0.610220 0.133652
H36   H     H_    0.889434 0.541799 0.655151 0.112881
H37   H     H_    0.109165 0.456988 0.348546 0.107549
H38   H     H_    0.601777 0.831875 0.655447 0.182507
N1    N     N_R   0.514530 0.519260 0.788680 -0.262034
N2    N     N_R   0.485470 0.480740 0.211320 -0.244434
O1    O     O_R   0.504120 0.354440 0.581590 -0.532819
O2    O     O_2   0.373420 0.306239 0.259960 -0.517864
O3    O     O_2   0.318112 0.871655 0.462111 -0.513397
O4    O     O_2   0.685002 0.136686 0.543581 -0.487938
O5    O     O_2   0.404709 0.867882 0.234633 -0.530748
O6    O     O_2   0.664484 0.999155 0.769343 -0.482757
O7    O     O_R   0.495880 0.645560 0.418410 -0.510005
O8    O     O_R   0.494320 0.341440 0.386760 -0.435895
O9    O     O_R   0.505680 0.658560 0.613240 -0.514625
O10   O     O_R   0.391870 0.507230 0.608700 -0.515100
O11   O     O_R   0.608130 0.492770 0.391300 -0.520668
O12   O     O_R   0.382070 0.494240 0.413880 -0.488589
O13   O     O_R   0.617930 0.505760 0.586120 -0.478296
O14   O     O_2   0.666930 0.666753 0.769263 -0.528282

loop_
_geom_bond_atom_site_label_1
_geom_bond_atom_site_label_2
_ccdc_geom_bond_type
C26   C53   S    
C22   C29   S    
C43   H15   S    
C41   C42   A    
C49   H19   S    
C52   H22   S    
C61   H30   S    
C42   H14   S    
C9    H4    S    
C55   H25   S    
Cu1   N1    S    
C34   C66   A    
C53   C59   A    
C53   C54   A    
C9    N2    A    
C40   C46   A    
C12   C23   S    
C35   H7    S    
C33   C39   A    
C32   O2    D    
C36   C37   A    
C19   C21   A    
C24   C26   A    
Cu2   O11   S    
C32   H6    S    
C38   C39   A    
C2    C60   S    
C31   H5    S    
C56   C65   A    
C45   C62   S    
C29   H35   S    
C36   H8    S    
C1    O1    A    
C21   H36   S    
C61   C66   S    
Cu1   O1    S    
C35   C36   A    
C14   O10   A    
C22   C25   A    
C5    C33   S    
C1    O8    A    
C64   H2    S    
C29   C30   D    
C25   C47   S    
C5    C13   A    
C50   H20   S    
C46   H17   S    
C10   H3    S    
C16   C27   A    
C63   O6    D    
C10   N1    A    
Cu1   O13   S    
C44   C46   A    
C1    C34   S    
C4    C45   A    
Cu1   Cu2   S    
C62   O5    D    
C60   H29   S    
C6    C11   A    
C5    C7    A    
C17   C19   A    
C48   H18   S    
C6    C8    A    
C38   H10   S    
C63   H32   S    
C58   C59   A    
C37   H9    S    
C27   H33   S    
C51   C52   A    
C39   H11   S    
C2    C4    A    
C58   H27   S    
C54   H24   S    
C37   C38   A    
C9    C11   A    
C3    C56   A    
C47   C48   A    
C41   H13   S    
C30   H34   S    
C34   C64   A    
C50   C51   A    
C56   C63   S    
Cu1   O9    S    
Cu2   O8    S    
C48   C49   A    
C20   C22   A    
C14   O12   A    
C57   H26   S    
C55   C57   A    
C43   C44   A    
C6    C40   S    
C3    C66   A    
C42   C43   A    
C3    C4    A    
C8    N1    A    
C65   H38   S    
C20   H37   S    
C15   C17   S    
C54   C55   A    
C40   C41   A    
C7    C32   S    
C15   O13   A    
C14   C16   S    
C17   C28   A    
C31   O14   D    
C44   H16   S    
C10   C13   A    
C47   C52   A    
C25   C27   A    
C45   C64   A    
C26   C28   A    
C12   O7    A    
C60   O3    D    
C51   H21   S    
C11   C13   A    
C23   C65   A    
C57   C58   A    
C18   H1    S    
C33   C35   A    
C15   O11   A    
C28   H23   S    
C18   C20   A    
C19   H12   S    
Cu1   O10   S    
C24   C30   S    
Cu2   O7    S    
C62   H31   S    
C16   C18   A    
C49   C50   A    
C59   H28   S    
C21   C24   A    
C2    C23   A    
C7    N2    A    
C12   O9    A    
Cu2   N2    S    
C61   O4    D    
Cu2   O12   S    
C8    C31   S    
