data_mof_unit_6749.cif
_audit_creation_date              2012-12-11T15:56:59-0500
_audit_creation_method            fapswitch 2.2
_symmetry_space_group_name_H-M    P1
_symmetry_Int_Tables_number       1
_space_group_crystal_system       triclinic
_cell_length_a                    17.656927
_cell_length_b                    24.570903
_cell_length_c                    15.195856
_cell_angle_alpha                 89.856324
_cell_angle_beta                  127.095154
_cell_angle_gamma                 90.001015
_cell_volume                      5258.51906171

loop_
_atom_site_label
_atom_site_type_symbol
_atom_type_description
_atom_site_fract_x
_atom_site_fract_y
_atom_site_fract_z
_atom_type_partial_charge
C1    C     C_R   0.313779 0.130629 0.907335 0.588427
C2    C     C_R   0.557821 0.151841 0.910274 -0.134068
C3    C     C_R   0.817124 0.356934 0.998470 0.000050
C4    C     C_R   0.575662 0.998804 0.370771 0.062256
C5    C     C_R   0.075660 0.498804 0.370770 0.062256
C6    C     C_R   0.188587 0.999679 0.638718 -0.009334
C7    C     C_R   0.688593 0.499678 0.638710 -0.009357
C8    C     C_R   0.481381 0.045232 0.714600 0.542122
C9    C     C_R   0.482319 0.954363 0.716326 0.551061
C10   C     C_R   0.981381 0.545232 0.714600 0.542126
C11   C     C_R   0.982319 0.454363 0.716326 0.551061
C12   C     C_R   0.768133 0.954418 0.243327 -0.116191
C13   C     C_R   0.055633 0.347284 0.911357 -0.096947
C14   C     C_R   0.768203 0.045908 0.245055 -0.114839
C15   C     C_R   0.268134 0.454417 0.243328 -0.116189
C16   C     C_R   0.268204 0.545908 0.245058 -0.114839
C17   C     C_3   0.286559 0.184708 0.765920 -0.374250
C18   C     C_3   0.308860 0.822020 0.773413 -0.389092
C19   C     C_3   0.786529 0.684711 0.765914 -0.374246
C20   C     C_3   0.808859 0.322021 0.773411 -0.389041
C21   C     C_3   0.956618 0.247920 0.163749 -0.165055
C22   C     C_3   0.954746 0.751268 0.176446 -0.164650
C23   C     C_3   0.456616 0.747917 0.163749 -0.165055
C24   C     C_R   0.057819 0.651842 0.910276 -0.134051
C25   C     C_3   0.454746 0.251272 0.176437 -0.164652
C26   C     C_1   0.808461 0.164183 0.061884 0.152874
C27   C     C_1   0.806403 0.835140 0.066603 0.155865
C28   C     C_1   0.308456 0.664180 0.061874 0.152883
C29   C     C_1   0.306398 0.335142 0.066600 0.155867
C30   C     C_3   0.058259 0.892973 0.805190 -0.187844
C31   C     C_3   0.055311 0.109949 0.798032 -0.192351
C32   C     C_3   0.558280 0.392984 0.805198 -0.187809
C33   C     C_3   0.555300 0.609952 0.798025 -0.192311
C34   C     C_1   0.027811 0.789136 0.922984 0.216504
C35   C     C_R   0.493045 0.999838 0.669545 -0.308117
C36   C     C_1   0.026575 0.208702 0.922616 0.212656
C37   C     C_1   0.527801 0.289131 0.922962 0.216531
C38   C     C_1   0.526571 0.708705 0.922607 0.212650
C39   C     C_1   0.696952 0.181553 0.872521 0.016304
C40   C     C_1   0.697686 0.817377 0.877182 0.010973
C41   C     C_1   0.196943 0.681556 0.872513 0.016294
C42   C     C_1   0.197679 0.317379 0.877179 0.010989
C43   C     C_1   0.711008 0.054998 0.584395 0.080849
C44   C     C_1   0.694784 0.933127 0.591245 0.098840
C45   C     C_1   0.211009 0.554994 0.584394 0.080842
C46   C     C_R   0.993044 0.499838 0.669545 -0.308121
C47   C     C_1   0.194778 0.433125 0.591240 0.098843
C48   C     C_1   0.400736 0.074514 0.456197 0.108425
C49   C     C_1   0.338703 0.986234 0.433883 -0.009095
C50   C     C_1   0.900736 0.574515 0.456201 0.108432
C51   C     C_1   0.838702 0.486235 0.433884 -0.009093
C52   C     C_3   0.376847 0.115241 0.642614 -0.324018
C53   C     C_3   0.384558 0.882862 0.616251 -0.327236
C54   C     C_3   0.876853 0.615245 0.642628 -0.324016
C55   C     C_3   0.884556 0.382862 0.616251 -0.327233
C56   C     C_1   0.891317 0.977776 0.499892 0.006771
C57   C     C_R   0.822564 0.000323 0.266587 0.041568
C58   C     C_1   0.391336 0.477745 0.499893 0.006766
C59   C     C_R   0.322564 0.500323 0.266591 0.041569
C60   C     C_R   0.621645 0.181742 0.002566 0.074233
C61   C     C_R   0.618719 0.816951 0.004009 0.062827
C62   C     C_R   0.121644 0.681742 0.002567 0.074226
C63   C     C_R   0.314020 0.869366 0.906429 0.583049
C64   C     C_R   0.118715 0.316950 0.004010 0.062833
C65   C     C_3   0.030629 0.950479 0.490266 -0.228306
C66   C     C_3   0.020280 0.038291 0.511622 -0.201162
C67   C     C_3   0.530643 0.450474 0.490243 -0.228313
C68   C     C_3   0.520282 0.538279 0.511633 -0.201138
C69   C     C_3   0.953947 0.989478 0.468958 0.106595
C70   C     C_3   0.453956 0.489463 0.468955 0.106598
C71   C     C_3   0.923787 0.000351 0.352619 0.132447
C72   C     C_3   0.423789 0.500351 0.352618 0.132440
C73   C     C_3   0.000954 0.961579 0.372926 -0.159364
C74   C     C_R   0.813775 0.630624 0.907335 0.588421
C75   C     C_3   0.990945 0.049418 0.394695 -0.178004
C76   C     C_3   0.500960 0.461590 0.372906 -0.159356
C77   C     C_3   0.490940 0.549421 0.394709 -0.178011
C78   C     C_3   0.070471 0.010753 0.417183 -0.123911
C79   C     C_3   0.570469 0.510768 0.417178 -0.123911
C80   C     C_R   0.402859 0.875633 0.091179 -0.178868
C81   C     C_R   0.403432 0.124420 0.091888 -0.171603
C82   C     C_R   0.902858 0.375634 0.091179 -0.178852
C83   C     C_R   0.903431 0.624418 0.091887 -0.171587
C84   C     C_3   0.097393 0.999558 0.532183 0.174200
C85   C     C_R   0.814019 0.369367 0.906429 0.583015
C86   C     C_3   0.597399 0.499557 0.532175 0.174200
C87   C     C_3   0.272932 0.811207 0.110986 -0.373913
C88   C     C_3   0.269339 0.186142 0.111588 -0.370567
C89   C     C_3   0.772929 0.311208 0.110984 -0.373904
C90   C     C_3   0.769335 0.686140 0.111586 -0.370558
C91   C     C_3   0.726484 0.259538 0.114940 -0.455499
C92   C     C_3   0.722540 0.737811 0.116083 -0.451172
C93   C     C_3   0.226489 0.759537 0.114945 -0.455504
C94   C     C_3   0.222542 0.237813 0.116085 -0.451172
C95   C     C_3   0.801847 0.257640 0.987074 0.354113
C96   C     C_R   0.650180 0.151058 0.093391 -0.124647
C97   C     C_3   0.803656 0.741921 0.995306 0.367133
C98   C     C_3   0.301847 0.757638 0.987073 0.354106
C99   C     C_3   0.303653 0.241924 0.995301 0.367139
C100  C     C_3   0.155531 0.818231 0.905209 0.401114
C101  C     C_3   0.155305 0.182228 0.905192 0.413622
C102  C     C_3   0.655530 0.318232 0.905209 0.401107
C103  C     C_3   0.655304 0.682228 0.905190 0.413637
C104  C     C_3   0.264132 0.812118 0.002507 0.040944
C105  C     C_3   0.263424 0.187025 0.004918 0.029558
C106  C     C_3   0.764130 0.312119 0.002506 0.040945
C107  C     C_R   0.648805 0.848424 0.094081 -0.129620
C108  C     C_3   0.763423 0.687022 0.004917 0.029556
C109  C     C_3   0.672258 0.228976 0.002331 0.120341
C110  C     C_3   0.670136 0.769711 0.004575 0.120661
C111  C     C_3   0.172259 0.728976 0.002333 0.120350
C112  C     C_3   0.170134 0.269711 0.004576 0.120659
C113  C     C_3   0.745810 0.207531 0.982447 -0.105666
C114  C     C_3   0.745341 0.791603 0.987473 -0.108017
C115  C     C_3   0.245806 0.707531 0.982443 -0.105672
C116  C     C_3   0.245337 0.291605 0.987470 -0.108028
C117  C     C_3   0.600148 0.270467 0.909533 -0.296173
C118  C     C_R   0.150180 0.651058 0.093392 -0.124648
C119  C     C_3   0.598860 0.728942 0.910315 -0.301245
C120  C     C_3   0.100148 0.770469 0.909540 -0.296176
C121  C     C_3   0.098860 0.228941 0.910318 -0.301240
C122  C     C_3   0.597664 0.041207 0.628359 -0.446650
C123  C     C_3   0.553800 0.943160 0.588859 -0.401336
C124  C     C_3   0.097664 0.541206 0.628359 -0.446652
C125  C     C_3   0.053796 0.443160 0.588856 -0.401334
C126  C     C_R   0.557199 0.044449 0.307605 -0.152139
C127  C     C_R   0.556266 0.954206 0.306121 -0.141774
C128  C     C_R   0.057198 0.544449 0.307604 -0.152143
C129  C     C_R   0.148803 0.348424 0.094082 -0.129617
C130  C     C_R   0.056265 0.454206 0.306120 -0.141774
C131  C     C_3   0.610002 0.047665 0.536804 -0.131282
C132  C     C_3   0.591515 0.943548 0.520871 -0.162977
C133  C     C_3   0.110003 0.547664 0.536805 -0.131277
C134  C     C_3   0.091510 0.443547 0.520867 -0.162981
C135  C     C_3   0.425476 0.015992 0.469120 0.121786
C136  C     C_3   0.925475 0.515993 0.469121 0.121782
C137  C     C_3   0.515066 0.000413 0.589552 0.275300
C138  C     C_3   0.015065 0.500413 0.589551 0.275300
C139  C     C_3   0.560929 0.998387 0.455600 0.245177
C140  C     C_R   0.555635 0.847285 0.911356 -0.096935
C141  C     C_3   0.060926 0.498387 0.455599 0.245178
C142  C     C_3   0.450410 0.003124 0.390165 -0.558666
C143  C     C_3   0.950408 0.503126 0.390164 -0.558668
C144  C     C_R   0.237878 0.954437 0.697914 -0.129192
C145  C     C_R   0.238246 0.045101 0.696328 -0.106443
C146  C     C_R   0.737881 0.454436 0.697911 -0.129213
C147  C     C_R   0.738250 0.545099 0.696323 -0.106392
C148  C     C_R   0.317014 0.142730 0.999775 -0.002825
C149  C     C_R   0.317126 0.856933 0.998471 0.000070
C150  C     C_R   0.817010 0.642726 0.999775 -0.002843
H1    H     H_    0.047058 0.910055 0.530926 0.125131
H2    H     H_    0.621819 0.519666 0.399673 0.121933
H3    H     H_    0.411323 0.260912 0.204058 0.112693
H4    H     H_    0.508010 0.284262 0.207658 0.148987
H5    H     H_    0.495145 0.213319 0.216463 0.126099
H6    H     H_    0.997934 0.865019 0.749461 0.122328
H7    H     H_    0.095240 0.903828 0.768837 0.154060
H8    H     H_    0.028633 0.930969 0.812669 0.172574
H9    H     H_    0.091520 0.099783 0.760621 0.163113
H10   H     H_    0.996719 0.139518 0.745163 0.117045
H11   H     H_    0.023404 0.071975 0.801830 0.170074
H12   H     H_    0.497963 0.365028 0.749422 0.122309
H13   H     H_    0.346676 0.813115 0.187073 0.140236
H14   H     H_    0.595298 0.403861 0.768890 0.154067
H15   H     H_    0.528633 0.430970 0.812678 0.172571
H16   H     H_    0.591513 0.599769 0.760619 0.163113
H17   H     H_    0.496718 0.639531 0.745144 0.117015
H18   H     H_    0.523373 0.571987 0.801825 0.170071
H19   H     H_    0.374133 0.115716 0.713324 0.148959
H20   H     H_    0.319204 0.088980 0.575729 0.147489
H21   H     H_    0.364309 0.157419 0.610332 0.171489
H22   H     H_    0.363921 0.882487 0.531574 0.170841
H23   H     H_    0.332279 0.907369 0.617742 0.134338
H24   H     H_    0.342437 0.183065 0.188684 0.145204
H25   H     H_    0.379623 0.840041 0.635375 0.151750
H26   H     H_    0.874151 0.615726 0.713347 0.148960
H27   H     H_    0.819205 0.588984 0.575749 0.147479
H28   H     H_    0.864315 0.657422 0.610340 0.171488
H29   H     H_    0.863918 0.382486 0.531574 0.170840
H30   H     H_    0.832278 0.407370 0.617742 0.134339
H31   H     H_    0.879621 0.340042 0.635376 0.151748
H32   H     H_    0.846673 0.313116 0.187072 0.140231
H33   H     H_    0.842433 0.683061 0.188683 0.145203
H34   H     H_    0.237248 0.847583 0.114348 0.217545
H35   H     H_    0.232098 0.149626 0.111583 0.216850
H36   H     H_    0.737247 0.347585 0.114347 0.217548
H37   H     H_    0.732091 0.649625 0.111579 0.216848
H38   H     H_    0.177451 0.770593 0.135135 0.186758
H39   H     H_    0.029137 0.069408 0.570015 0.118873
H40   H     H_    0.172270 0.226324 0.134212 0.186300
H41   H     H_    0.677442 0.270596 0.135125 0.186761
H42   H     H_    0.672264 0.726324 0.134206 0.186301
H43   H     H_    0.782172 0.233147 0.183421 0.153943
H44   H     H_    0.777407 0.763558 0.186046 0.154669
H45   H     H_    0.282177 0.733144 0.183422 0.153943
H46   H     H_    0.277409 0.263561 0.186046 0.154672
H47   H     H_    0.145162 0.812967 0.825890 0.072079
H48   H     H_    0.146863 0.189729 0.827550 0.071650
H49   H     H_    0.645161 0.312971 0.825889 0.072083
H50   H     H_    0.547079 0.410046 0.530887 0.125134
H51   H     H_    0.646864 0.689728 0.827549 0.071645
H52   H     H_    0.431346 0.871810 0.176602 0.109631
H53   H     H_    0.432177 0.127915 0.177392 0.110698
H54   H     H_    0.931344 0.371811 0.176601 0.109628
H55   H     H_    0.932175 0.627913 0.177391 0.110698
H56   H     H_    0.559491 0.250370 0.827659 0.076798
H57   H     H_    0.558084 0.749796 0.828965 0.075655
H58   H     H_    0.059483 0.750373 0.827665 0.076798
H59   H     H_    0.058080 0.249794 0.828967 0.075657
H60   H     H_    0.780253 0.261886 0.902289 0.096924
H61   H     H_    0.529137 0.569387 0.570037 0.118872
H62   H     H_    0.786684 0.738575 0.913176 0.071322
H63   H     H_    0.280255 0.761885 0.902289 0.096930
H64   H     H_    0.286675 0.238577 0.913170 0.071337
H65   H     H_    0.583735 0.082015 0.646153 0.216271
H66   H     H_    0.495300 0.913110 0.549291 0.197014
H67   H     H_    0.083737 0.582014 0.646155 0.216270
H68   H     H_    0.995295 0.413110 0.549288 0.197014
H69   H     H_    0.664103 0.026160 0.706689 0.177739
H70   H     H_    0.609883 0.929310 0.674820 0.202200
H71   H     H_    0.164103 0.526158 0.706689 0.177739
H72   H     H_    0.991295 0.930580 0.314008 0.131553
H73   H     H_    0.109879 0.429309 0.674816 0.202200
H74   H     H_    0.573403 0.085834 0.490845 0.114281
H75   H     H_    0.557822 0.908462 0.463647 0.100400
H76   H     H_    0.073406 0.585834 0.490847 0.114280
H77   H     H_    0.057814 0.408462 0.463642 0.100402
H78   H     H_    0.569163 0.086418 0.333956 0.084805
H79   H     H_    0.571359 0.912012 0.331074 0.082552
H80   H     H_    0.069162 0.586418 0.333955 0.084805
H81   H     H_    0.071358 0.412012 0.331073 0.082553
H82   H     H_    0.418679 0.034191 0.322913 0.174913
H83   H     H_    0.973210 0.089743 0.353533 0.121250
H84   H     H_    0.417186 0.963986 0.346129 0.177899
H85   H     H_    0.918679 0.534194 0.322915 0.174910
H86   H     H_    0.917182 0.463990 0.346125 0.177899
H87   H     H_    0.222255 0.913669 0.666072 0.152441
H88   H     H_    0.222573 0.085516 0.662654 0.146169
H89   H     H_    0.722259 0.413669 0.666071 0.152442
H90   H     H_    0.722579 0.585515 0.662646 0.146157
H91   H     H_    0.792171 0.912658 0.259522 0.100855
H92   H     H_    0.791798 0.087684 0.262162 0.095601
H93   H     H_    0.292170 0.412658 0.259521 0.100857
H94   H     H_    0.491301 0.430601 0.313975 0.131560
H95   H     H_    0.291798 0.587685 0.262163 0.095597
H96   H     H_    0.693297 0.163637 0.178705 0.085904
H97   H     H_    0.692318 0.836111 0.179728 0.088320
H98   H     H_    0.193297 0.663636 0.178706 0.085906
H99   H     H_    0.192316 0.336111 0.179728 0.088321
H100  H     H_    0.512198 0.833333 0.827475 0.145635
H101  H     H_    0.516806 0.165310 0.825978 0.149492
H102  H     H_    0.012196 0.333333 0.827475 0.145635
H103  H     H_    0.016803 0.665312 0.825981 0.149485
H104  H     H_    0.261627 0.173965 0.681749 0.156333
H105  H     H_    0.473198 0.589751 0.353562 0.121243
H106  H     H_    0.365587 0.186779 0.821249 0.150694
H107  H     H_    0.257577 0.226099 0.756204 0.172470
H108  H     H_    0.359614 0.791330 0.835303 0.179914
H109  H     H_    0.348608 0.853116 0.763684 0.161628
H110  H     H_    0.260242 0.801049 0.693172 0.179824
H111  H     H_    0.761637 0.673955 0.681762 0.156324
H112  H     H_    0.865563 0.686817 0.821276 0.150697
H113  H     H_    0.757481 0.726092 0.756144 0.172461
H114  H     H_    0.859606 0.291325 0.835295 0.179911
H115  H     H_    0.848617 0.353119 0.763696 0.161623
H116  H     H_    0.121826 0.019640 0.399680 0.121937
H117  H     H_    0.760238 0.301057 0.693158 0.179807
H118  H     H_    0.916300 0.237908 0.195423 0.111838
H119  H     H_    0.997065 0.285929 0.202068 0.128442
H120  H     H_    0.009979 0.215095 0.192600 0.149073
H121  H     H_    0.911320 0.760909 0.204063 0.112692
H122  H     H_    0.008009 0.784259 0.207668 0.148987
H123  H     H_    0.995146 0.713316 0.216476 0.126097
H124  H     H_    0.416299 0.737902 0.195422 0.111839
H125  H     H_    0.497060 0.785926 0.202069 0.128440
H126  H     H_    0.509980 0.715094 0.192602 0.149073
N1    N     N_R   0.392450 0.103580 0.942190 -0.102046
N2    N     N_R   0.525490 0.971610 0.207550 -0.035088
N3    N     N_R   0.025490 0.528390 0.207550 -0.035044
N4    N     N_R   0.025490 0.471610 0.207550 -0.035090
N5    N     N_R   0.317450 0.971190 0.792000 -0.052428
N6    N     N_R   0.317450 0.028810 0.792000 -0.050015
N7    N     N_R   0.817450 0.471190 0.792000 -0.052430
N8    N     N_R   0.817450 0.528810 0.792000 -0.050013
N9    N     N_R   0.473900 0.028390 0.792280 -0.133161
N10   N     N_R   0.473900 0.971610 0.792280 -0.128082
N11   N     N_R   0.973900 0.528390 0.792280 -0.133162
N12   N     N_R   0.392450 0.896420 0.942190 -0.099046
N13   N     N_R   0.973900 0.471610 0.792280 -0.128081
N14   N     N_R   0.682310 0.971180 0.208170 -0.040681
N15   N     N_R   0.682310 0.028820 0.208170 -0.040602
N16   N     N_R   0.182310 0.471180 0.208170 -0.040681
N17   N     N_R   0.182310 0.528820 0.208170 -0.040602
N18   N     N_R   0.606470 0.103570 0.057210 -0.040250
N19   N     N_R   0.606470 0.896430 0.057210 -0.042259
N20   N     N_R   0.106470 0.603570 0.057210 -0.040251
N21   N     N_R   0.106470 0.396430 0.057210 -0.042259
N22   N     N_R   0.549740 0.896000 0.943240 -0.041222
N23   N     N_R   0.892450 0.603580 0.942190 -0.102043
N24   N     N_R   0.549740 0.104000 0.943240 -0.043810
N25   N     N_R   0.049740 0.396000 0.943240 -0.041222
N26   N     N_R   0.049740 0.604000 0.943240 -0.043810
N27   N     N_1   0.856826 0.130007 0.123345 -0.115516
N28   N     N_1   0.853629 0.869470 0.127791 -0.119767
N29   N     N_1   0.356819 0.630003 0.123330 -0.115508
N30   N     N_1   0.353624 0.369472 0.127787 -0.119767
N31   N     N_1   0.971215 0.803683 0.933256 -0.059466
N32   N     N_1   0.970145 0.192697 0.932000 -0.058048
N33   N     N_1   0.471197 0.303676 0.933222 -0.059467
N34   N     N_R   0.892450 0.396420 0.942190 -0.099043
N35   N     N_1   0.470137 0.692702 0.931986 -0.058049
N36   N     N_1   0.659426 0.161767 0.786675 -0.066308
N37   N     N_1   0.661186 0.836966 0.791093 -0.061790
N38   N     N_1   0.159413 0.661773 0.786664 -0.066302
N39   N     N_1   0.161178 0.336967 0.791089 -0.061781
N40   N     N_1   0.790127 0.061092 0.621846 -0.094512
N41   N     N_1   0.775554 0.924420 0.647418 -0.089200
N42   N     N_1   0.290128 0.561086 0.621844 -0.094520
N43   N     N_1   0.275548 0.424416 0.647412 -0.089190
N44   N     N_1   0.381177 0.120298 0.443442 -0.094258
N45   N     N_R   0.450490 0.896000 0.057360 -0.068508
N46   N     N_1   0.269569 0.963765 0.404663 -0.109773
N47   N     N_1   0.881177 0.620299 0.443447 -0.094257
N48   N     N_1   0.769568 0.463766 0.404664 -0.109769
N49   N     N_1   0.841533 0.968484 0.523563 -0.082005
N50   N     N_1   0.341559 0.468440 0.523568 -0.082015
N51   N     N_R   0.450490 0.104000 0.057360 -0.070037
N52   N     N_R   0.950490 0.396000 0.057360 -0.068506
N53   N     N_R   0.950490 0.604000 0.057360 -0.070037
N54   N     N_R   0.525490 0.028390 0.207550 -0.035043
Ni1   Ni    Ni4+2 0.433780 0.065390 0.868430 0.198782
Ni2   Ni    Ni4+2 0.433780 0.934610 0.868430 0.203275
Ni3   Ni    Ni4+2 0.933780 0.565390 0.868430 0.198784
Ni4   Ni    Ni4+2 0.933780 0.434610 0.868430 0.203272
Ni5   Ni    Ni4+2 0.565800 0.934190 0.131570 0.206165
Ni6   Ni    Ni4+2 0.565800 0.065810 0.131570 0.206776
Ni7   Ni    Ni4+2 0.065800 0.434190 0.131570 0.206165
Ni8   Ni    Ni4+2 0.065800 0.565810 0.131570 0.206775
O1    O     O_3   0.246639 0.148093 0.799916 -0.669347
O2    O     O_3   0.121199 0.129822 0.906255 -0.597791
O3    O     O_3   0.622521 0.370019 0.911302 -0.600695
O4    O     O_3   0.621194 0.629823 0.906254 -0.597787
O5    O     O_3   0.466689 0.097934 0.676102 -0.621954
O6    O     O_3   0.479678 0.900195 0.691160 -0.632700
O7    O     O_3   0.966691 0.597934 0.676104 -0.621951
O8    O     O_3   0.979677 0.400195 0.691159 -0.632700
O9    O     O_3   0.254435 0.846214 0.802816 -0.672811
O10   O     O_3   0.746628 0.648080 0.799911 -0.669335
O11   O     O_3   0.754434 0.346214 0.802815 -0.672816
O12   O     O_3   0.902435 0.251392 0.047657 -0.607530
O13   O     O_3   0.904700 0.747955 0.060956 -0.603413
O14   O     O_3   0.402434 0.751389 0.047657 -0.607529
O15   O     O_3   0.404696 0.247961 0.060946 -0.603412
O16   O     O_3   0.122525 0.870021 0.911295 -0.600696

loop_
_geom_bond_atom_site_label_1
_geom_bond_atom_site_label_2
_ccdc_geom_bond_type
C123  H70   S    
C31   H11   S    
C97   H62   S    
C3    C85   A    
C89   H36   S    
C48   C135  S    
C33   H16   S    
C76   C79   S    
N7    Ni4   S    
C147  H90   S    
C124  C133  S    
C94   H46   S    
C78   H116  S    
C92   H44   S    
C139  C142  S    
C118  H98   S    
C64   C112  S    
C32   O3    S    
C22   H122  S    
C66   H39   S    
C15   N16   A    
C127  H79   S    
C122  H65   S    
C55   H30   S    
C54   H26   S    
C23   H125  S    
C135  C142  S    
C89   C106  S    
N11   N13   A    
C131  H74   S    
C1    O1    S    
C30   O16   S    
C128  N3    A    
C7    C146  A    
C30   H6    S    
C123  H66   S    
C99   O15   S    
C15   C59   A    
C20   H117  S    
N51   Ni6   S    
C21   H120  S    
C88   C94   S    
C77   C79   S    
C34   C120  S    
C129  H99   S    
C109  C117  S    
C120  H58   S    
C117  H56   S    
C52   H20   S    
C99   C116  S    
C71   C73   S    
C58   C70   S    
C91   H41   S    
C54   H28   S    
C8    C35   A    
C94   H40   S    
C1    N1    A    
C90   C92   S    
C57   C71   S    
C18   H109  S    
C38   C119  S    
C42   C116  S    
C5    C130  A    
C47   C134  S    
C47   N43   T    
C48   N44   T    
C33   H18   S    
C68   C77   S    
C135  C137  S    
C14   C57   A    
C4    C127  A    
C25   H4    S    
C95   H60   S    
C122  C137  S    
C85   N34   A    
N9    Ni1   S    
C74   O10   S    
C125  C138  S    
C44   C132  S    
C45   C133  S    
C83   N53   A    
C134  H77   S    
C43   C131  S    
C2    H101  S    
C20   H114  S    
C134  C141  S    
C147  N8    A    
N18   Ni6   S    
C5    C128  A    
C129  N21   A    
C2    C60   A    
C127  N2    A    
C61   C107  A    
C37   C117  S    
C90   H33   S    
C144  N5    A    
C11   C46   A    
C102  H49   S    
C35   C137  S    
C17   O1    S    
C22   H121  S    
C27   N28   T    
C33   O4    S    
C123  C132  S    
C100  C104  S    
C53   H23   S    
C132  C139  S    
N20   N26   A    
C43   N40   T    
C118  N20   A    
C136  C143  S    
C91   H43   S    
C7    C86   S    
C12   N14   A    
C88   H24   S    
C22   O13   S    
C40   N37   T    
C53   H22   S    
C14   H92   S    
C52   O5    S    
C62   C111  S    
C39   C113  S    
C32   H12   S    
C82   N52   A    
C89   C91   S    
C110  C114  S    
C102  O3    S    
C22   H123  S    
C83   C150  A    
C125  H68   S    
C49   C135  S    
C80   N45   A    
C11   O8    S    
C41   C115  S    
C61   C110  S    
N11   Ni3   S    
C53   O6    S    
C7    C147  A    
C51   N48   T    
C80   C149  A    
C15   H93   S    
C17   H104  S    
C71   C75   S    
C62   C118  A    
C122  H69   S    
C140  H100  S    
C65   C84   S    
C105  C148  S    
C143  H86   S    
C65   H1    S    
N24   Ni1   S    
C20   O11   S    
C95   C106  S    
N10   Ni2   S    
C51   C136  S    
C145  H88   S    
N34   N52   A    
C124  H71   S    
C102  C117  S    
C108  C150  S    
C18   O9    S    
C88   H35   S    
C9    O6    S    
C21   O12   S    
C12   C57   A    
C17   H107  S    
C122  C131  S    
C112  C116  S    
C23   O14   S    
C53   H25   S    
C124  H67   S    
C24   C62   A    
N12   N45   A    
C55   H29   S    
C110  C119  S    
N26   Ni3   S    
C61   C140  A    
N23   Ni3   S    
C123  C137  S    
C4    C126  A    
C67   C70   S    
C36   C121  S    
C90   C108  S    
C112  C121  S    
C83   H55   S    
C19   H112  S    
C88   C105  S    
C92   C110  S    
C98   C115  S    
C32   H14   S    
C94   C112  S    
C29   N30   T    
C131  C139  S    
C93   H38   S    
C119  H57   S    
C54   O7    S    
C56   C69   S    
C14   N15   A    
N21   N25   A    
C58   N50   T    
C97   C114  S    
C6    C144  A    
C79   H2    S    
C125  C134  S    
C81   N51   A    
C30   H7    S    
C17   H106  S    
N45   Ni5   S    
N3    Ni8   S    
C77   H105  S    
C21   H119  S    
C16   H95   S    
C26   N27   T    
C124  C138  S    
C141  C143  S    
C107  N19   A    
N13   Ni4   S    
C100  O16   S    
C90   H37   S    
N15   Ni6   S    
N14   N15   A    
C8    O5    S    
C21   H118  S    
C80   H52   S    
N3    N4    A    
N25   Ni4   S    
C18   H110  S    
C31   H10   S    
C59   C72   S    
C24   N26   A    
C32   H15   S    
C126  N54   A    
C103  O4    S    
C33   H17   S    
C96   H96   S    
C125  H73   S    
C3    C106  S    
C103  C119  S    
C6    C84   S    
C25   H3    S    
N20   Ni8   S    
C133  H76   S    
C6    C145  A    
C101  C121  S    
C104  C149  S    
N9    N10   A    
C28   C115  S    
C23   H126  S    
C81   C148  A    
C34   N31   T    
C63   N12   A    
C93   C111  S    
C8    N9    A    
C60   C96   A    
C98   H63   S    
C67   H50   S    
C101  O2    S    
N2    N54   A    
C45   N42   T    
C25   O15   S    
C67   C86   S    
C19   O10   S    
C85   O11   S    
C38   N35   T    
C10   O7    S    
C2    N24   A    
C52   H19   S    
N12   Ni2   S    
C99   H64   S    
C50   N47   T    
N1    Ni1   S    
C133  C141  S    
C36   N32   T    
C54   H27   S    
N5    Ni2   S    
C89   H32   S    
C26   C113  S    
C13   C64   A    
C65   C69   S    
C66   C75   S    
C144  H87   S    
C130  N4    A    
C24   H103  S    
C96   N18   A    
C18   H108  S    
C19   H113  S    
C87   C104  S    
C95   O12   S    
C11   N13   A    
C146  H89   S    
C12   H91   S    
C9    C35   A    
C79   C86   S    
C92   H42   S    
C4    C139  S    
C98   O14   S    
N23   N53   A    
C87   H13   S    
C25   H5    S    
C68   C86   S    
C28   N29   T    
C39   N36   T    
C72   C76   S    
C103  H51   S    
C81   H53   S    
C73   H72   S    
N1    N51   A    
C107  H97   S    
N16   N17   A    
C76   H94   S    
N2    Ni5   S    
C23   H124  S    
C66   C69   S    
C87   C93   S    
C65   C73   S    
C143  H85   S    
C69   C71   S    
C63   C149  A    
C97   C108  S    
C142  H82   S    
C40   C114  S    
C42   N39   T    
C10   C46   A    
C73   C78   S    
C102  C106  S    
C103  C108  S    
C60   C109  S    
C121  H59   S    
C44   N41   T    
N52   Ni7   S    
C109  C113  S    
C46   C138  S    
C100  H47   S    
N54   Ni6   S    
C13   N25   A    
C74   N23   A    
C93   H45   S    
C145  N6    A    
C52   H21   S    
N19   N22   A    
C101  C105  S    
C99   C105  S    
C136  C138  S    
C63   O9    S    
C87   H34   S    
C101  H48   S    
C140  N22   A    
N5    N6    A    
C111  C120  S    
C16   C59   A    
N19   Ni5   S    
N4    Ni7   S    
N18   N24   A    
C72   C77   S    
N14   Ni5   S    
C19   H111  S    
C5    C141  S    
N16   Ni7   S    
N21   Ni7   S    
C3    C82   A    
N6    Ni1   S    
C55   H31   S    
N8    Ni3   S    
C100  C120  S    
C29   C116  S    
C41   N38   T    
C55   O8    S    
N17   Ni8   S    
C9    N10   A    
N53   Ni8   S    
N7    N8    A    
C30   H8    S    
C13   H102  S    
C128  H80   S    
C10   N11   A    
C126  H78   S    
C97   O13   S    
C20   H115  S    
C70   C72   S    
C56   N49   T    
N22   Ni2   S    
C16   N17   A    
C37   N33   T    
C91   C109  S    
C50   C136  S    
C132  H75   S    
C82   H54   S    
C130  H81   S    
C95   C113  S    
C98   C104  S    
C75   H83   S    
C75   C78   S    
C49   N46   T    
C146  N7    A    
C66   C84   S    
C27   C114  S    
C78   C84   S    
C142  H84   S    
C64   C129  A    
C68   C70   S    
C74   C150  A    
C1    C148  A    
C111  C115  S    
C67   C76   S    
C68   H61   S    
C31   H9    S    
C31   O2    S    
N34   Ni4   S    
