data_mof_unit_38459.cif
_audit_creation_date              2012-12-10T17:18:54-0500
_audit_creation_method            fapswitch 2.2
_symmetry_space_group_name_H-M    P1
_symmetry_Int_Tables_number       1
_space_group_crystal_system       triclinic
_cell_length_a                    10.224745
_cell_length_b                    10.821091
_cell_length_c                    13.710948
_cell_angle_alpha                 91.830702
_cell_angle_beta                  99.799564
_cell_angle_gamma                 95.733276
_cell_volume                      1485.55189384

loop_
_atom_site_label
_atom_site_type_symbol
_atom_type_description
_atom_site_fract_x
_atom_site_fract_y
_atom_site_fract_z
_atom_type_partial_charge
C1    C     C_R   0.054269 0.732503 0.496371 0.922010
C2    C     C_2   0.024465 0.068536 0.529032 -0.136579
C3    C     C_2   0.430365 0.508900 0.508820 -0.014207
C4    C     C_2   0.569642 0.490989 0.491281 -0.010969
C5    C     C_R   0.093130 0.512882 0.685295 0.851995
C6    C     C_R   0.906919 0.487356 0.314713 0.859399
C7    C     C_R   0.143542 0.523334 0.791330 -0.062568
C8    C     C_R   0.856729 0.478160 0.208650 -0.065705
C9    C     C_R   0.130013 0.586702 0.959089 -0.183575
C10   C     C_R   0.870394 0.416566 0.040578 -0.183742
C11   C     C_R   0.072410 0.572198 0.859254 -0.167571
C12   C     C_R   0.947976 0.267916 0.508720 0.927086
C13   C     C_R   0.927790 0.429795 0.140477 -0.165762
C14   C     C_R   0.270638 0.489288 0.823314 -0.219990
C15   C     C_R   0.730044 0.513331 0.176822 -0.218838
C16   C     C_R   0.335811 0.514788 0.920593 0.059796
C17   C     C_R   0.665003 0.489196 0.079373 0.059766
C18   C     C_R   0.261205 0.557283 0.990875 0.062306
C19   C     C_R   0.739503 0.446840 0.008953 0.060855
C20   C     C_R   0.472050 0.496366 0.949233 0.007818
C21   C     C_R   0.528902 0.508349 0.050730 0.009189
C22   C     C_3   0.303545 0.693406 0.228362 0.114514
C23   C     C_R   0.447258 0.536275 0.120779 -0.312304
C24   C     C_3   0.198962 0.769209 0.259791 -0.776895
C25   C     C_3   0.697478 0.308433 0.773587 0.112935
C26   C     C_3   0.802841 0.231978 0.744307 -0.779195
C27   C     C_R   0.553673 0.468717 0.879133 -0.311745
C28   C     C_R   0.317437 0.567952 0.091390 0.456274
C29   C     C_R   0.683325 0.436880 0.908460 0.456562
C30   C     C_2   0.088955 0.865280 0.503174 -0.371592
C31   C     C_2   0.921936 0.136723 0.521702 -0.378602
C32   C     C_2   0.001249 0.936397 0.531010 -0.131472
Cl1   Cl    Cl    0.668812 0.661421 0.633543 -0.575035
Cl2   Cl    Cl    0.331196 0.338954 0.366200 -0.567711
H1    H     H_    0.684040 0.561194 0.229807 0.155631
H2    H     H_    0.906677 0.897370 0.549357 0.215356
H3    H     H_    0.820937 0.095699 0.523532 0.161905
H4    H     H_    0.183177 0.904834 0.484799 0.161209
H5    H     H_    0.581941 0.421872 0.435613 0.171250
H6    H     H_    0.418078 0.577883 0.564596 0.172008
H7    H     H_    0.375168 0.758417 0.196509 0.126169
H8    H     H_    0.357704 0.652936 0.295052 0.172889
H9    H     H_    0.123448 0.707816 0.289824 0.264169
H10   H     H_    0.247329 0.841397 0.317575 0.209534
H11   H     H_    0.147930 0.815349 0.194990 0.244381
H12   H     H_    0.316862 0.441087 0.770631 0.154675
H13   H     H_    0.642763 0.346099 0.705780 0.172636
H14   H     H_    0.626364 0.244439 0.806808 0.124976
H15   H     H_    0.855165 0.189476 0.810569 0.244277
H16   H     H_    0.754878 0.156885 0.688896 0.210337
H17   H     H_    0.877159 0.292150 0.712092 0.264279
H18   H     H_    0.026774 0.402296 0.164187 0.213488
H19   H     H_    0.973190 0.599075 0.835405 0.214250
H20   H     H_    0.072388 0.622697 0.010851 0.195996
H21   H     H_    0.927878 0.380768 0.988636 0.195505
H22   H     H_    0.479923 0.531433 0.199332 0.168076
H23   H     H_    0.521024 0.473552 0.800548 0.170120
H24   H     H_    0.125706 0.109033 0.526957 0.205522
N1    N     N_2   0.322180 0.446120 0.460900 0.046719
N2    N     N_2   0.677820 0.553880 0.539100 0.047709
O1    O     O_R   0.935190 0.693030 0.507870 -0.577304
O2    O     O_3   0.761640 0.408083 0.839275 -0.616303
O3    O     O_R   0.064810 0.306970 0.492130 -0.574620
O4    O     O_R   0.142080 0.658430 0.482770 -0.625881
O5    O     O_R   0.857920 0.341570 0.517230 -0.625984
O6    O     O_R   0.969700 0.527180 0.651960 -0.569692
O7    O     O_R   0.030300 0.472820 0.348040 -0.567137
O8    O     O_R   0.176600 0.492580 0.626860 -0.638223
O9    O     O_R   0.823400 0.507420 0.373140 -0.635021
O10   O     O_3   0.238573 0.596388 0.160376 -0.617388
Zn1   Zn    Zn3+2 0.861850 0.523100 0.516760 1.018876
Zn2   Zn    Zn3+2 0.138150 0.476900 0.483240 1.019162

loop_
_geom_bond_atom_site_label_1
_geom_bond_atom_site_label_2
_ccdc_geom_bond_type
C6    O9    A    
C7    C11   A    
C2    H24   S    
C8    C13   A    
C20   C27   A    
Cl1   N2    S    
C13   H18   S    
C12   O5    A    
C25   H13   S    
O6    Zn1   S    
C11   H19   S    
C4    H5    S    
C16   C20   A    
N1    Zn2   S    
O8    Zn2   S    
O1    Zn1   S    
C26   H16   S    
C23   H22   S    
C14   H12   S    
C5    O6    A    
C12   C31   S    
C26   H17   S    
C20   C21   A    
C30   C32   D    
C10   H21   S    
C9    C11   A    
C25   H14   S    
C4    N2    D    
C22   H8    S    
C27   C29   A    
C5    O8    A    
C24   H11   S    
C32   H2    S    
C2    C32   S    
C16   C18   A    
C1    C30   S    
C17   C19   A    
C10   C19   A    
C3    H6    S    
C8    C15   A    
C5    C7    S    
C25   O2    S    
O4    Zn2   S    
C21   C23   A    
Cl2   N1    S    
C24   H10   S    
C22   C24   S    
C22   H7    S    
C23   C28   A    
C3    C4    S    
C19   C29   A    
C1    O4    A    
C9    C18   A    
C18   C28   A    
O3    Zn2   S    
C30   H4    S    
C12   O3    A    
C15   C17   A    
O7    Zn2   S    
C27   H23   S    
C26   H15   S    
C15   H1    S    
O9    Zn1   S    
C24   H9    S    
C3    N1    D    
C29   O2    S    
C6    O7    A    
C6    C8    S    
C9    H20   S    
N2    Zn1   S    
C25   C26   S    
O5    Zn1   S    
C22   O10   S    
C7    C14   A    
C28   O10   S    
C14   C16   A    
C31   H3    S    
C1    O1    A    
C2    C31   D    
C10   C13   A    
C17   C21   A    
