data_mof_unit_25262.cif
_audit_creation_date              2013-03-05T15:55:18-0500
_audit_creation_method            fapswitch 2.2
_symmetry_space_group_name_H-M    P1
_symmetry_Int_Tables_number       1
_space_group_crystal_system       triclinic
_cell_length_a                    6.936795
_cell_length_b                    16.767265
_cell_length_c                    17.08461
_cell_angle_alpha                 100.326359
_cell_angle_beta                  89.331908
_cell_angle_gamma                 90.656463
_cell_volume                      1954.72173977

loop_
_atom_site_label
_atom_site_type_symbol
_atom_site_description
_atom_site_fract_x
_atom_site_fract_y
_atom_site_fract_z
_atom_type_partial_charge
O1    O     O_R   0.494370 0.415690 0.413450 -0.596818
O2    O     O_R   0.819420 0.429360 0.578420 -0.598922
O3    O     O_R   0.994280 0.584310 0.586550 -0.599573
C1    C     C_R   0.651331 0.414323 0.605724 0.931708
O4    O     O_R   0.823790 0.406230 0.413570 -0.592873
O5    O     O_R   0.998670 0.561000 0.420530 -0.588206
C2    C     C_R   0.655026 0.383275 0.384873 0.950723
O6    O     O_R   0.489970 0.439000 0.579470 -0.589257
O7    O     O_3   0.662300 0.550810 0.502470 -0.278022
V1    V     V_3+5 0.935380 0.490570 0.499540 1.156023
O8    O     O_R   0.328650 0.570640 0.421580 -0.601919
C3    C     C_R   0.162750 0.586239 0.394650 0.946019
O9    O     O_R   0.324290 0.593770 0.586430 -0.599076
C4    C     C_R   0.155080 0.616927 0.615066 0.915014
V2    V     V_3+5 0.435930 0.509430 0.500460 1.150095
O10   O     O_3   0.159140 0.449190 0.497530 -0.270492
C5    C     C_R   0.312026 0.723989 0.717654 -0.141397
H1    H     H_    0.452834 0.704964 0.693871 0.120323
C6    C     C_R   0.300814 0.787792 0.782778 -0.139994
H2    H     H_    0.433563 0.816063 0.806993 0.121916
C7    C     C_R   0.121132 0.814743 0.816007 -0.119574
C8    C     C_R   0.952982 0.776114 0.782209 -0.141927
H3    H     H_    0.812170 0.795133 0.805993 0.120170
C9    C     C_R   0.964193 0.712313 0.717087 -0.138839
H4    H     H_    0.831440 0.684042 0.692878 0.123461
C10   C     C_R   0.143873 0.685355 0.683862 -0.123538
C11   C     C_R   0.170303 0.638919 0.332998 -0.134857
C12   C     C_R   0.094521 0.860837 0.166804 -0.132132
C13   C     C_R   0.899879 0.803770 0.264302 -0.233061
C14   C     C_R   0.923948 0.858807 0.212408 -0.151554
C15   C     C_R   0.243468 0.807204 0.175845 -0.288024
C16   C     C_R   0.219209 0.750893 0.227714 0.215431
C17   C     C_R   0.045585 0.748824 0.272047 0.220871
C18   C     C_R   0.021344 0.692534 0.323935 -0.288393
C19   C     C_R   0.340844 0.640914 0.287367 -0.134516
C20   C     C_R   0.364902 0.695936 0.235454 -0.227035
H5    H     H_    0.890114 0.692400 0.359032 0.138697
H6    H     H_    0.458349 0.600236 0.292626 0.139443
H7    H     H_    0.766153 0.803707 0.297769 0.129027
H8    H     H_    0.498618 0.695987 0.201979 0.134906
H9    H     H_    0.806434 0.899481 0.207156 0.132357
H10   H     H_    0.374710 0.807353 0.140758 0.140430
C21   C     C_R   0.654324 0.364149 0.669329 -0.129934
C22   C     C_R   0.610400 0.136256 0.831010 -0.134936
C23   C     C_R   0.426498 0.179547 0.724744 -0.215430
C24   C     C_R   0.454713 0.126154 0.777616 -0.140272
C25   C     C_R   0.741005 0.200558 0.829110 -0.252576
C26   C     C_R   0.711911 0.255384 0.776407 0.200958
C27   C     C_R   0.552636 0.245128 0.724066 0.215548
C28   C     C_R   0.523588 0.299918 0.671330 -0.288159
C29   C     C_R   0.809965 0.374294 0.722750 -0.144883
C30   C     C_R   0.838064 0.320962 0.775705 -0.202712
H11   H     H_    0.405035 0.290545 0.629787 0.134025
H12   H     H_    0.913492 0.423118 0.722368 0.131672
H13   H     H_    0.304123 0.170131 0.685178 0.125751
H14   H     H_    0.960428 0.330390 0.815278 0.141441
H15   H     H_    0.351252 0.077294 0.777938 0.124485
H16   H     H_    0.859550 0.209915 0.870659 0.152042
C31   C     C_R   0.790610 0.258419 0.298836 -0.088554
H17   H     H_    0.913999 0.261392 0.337558 0.124486
C32   C     C_R   0.778058 0.195234 0.233224 -0.083189
H18   H     H_    0.891757 0.150680 0.223791 0.136275
C33   C     C_R   0.620724 0.188780 0.180943 -0.305105
C34   C     C_R   0.475563 0.248895 0.195394 0.375034
C35   C     C_R   0.486368 0.310139 0.263414 -0.240753
H19   H     H_    0.375129 0.355773 0.273853 0.167046
C36   C     C_R   0.643758 0.315981 0.315255 -0.188247
O11   O     O_R   0.774880 0.061150 0.920630 -0.595160
O12   O     O_R   0.440980 0.093710 0.086500 -0.565122
O13   O     O_R   0.266190 0.938890 0.079390 -0.598649
C37   C     C_R   0.609915 0.118366 0.113746 0.988767
O14   O     O_R   0.445420 0.070740 0.921670 -0.579246
O15   O     O_R   0.270660 0.915760 0.913380 -0.605739
C38   C     C_R   0.613505 0.085924 0.894473 0.960663
O16   O     O_R   0.770400 0.084270 0.086640 -0.589443
O17   O     O_3   0.602590 0.949210 0.997500 -0.290849
V3    V     V_3+5 0.329470 0.009420 0.000470 1.203083
O18   O     O_R   0.940650 0.906250 0.913470 -0.602989
C39   C     C_R   0.109887 0.883140 0.884831 0.906685
O19   O     O_R   0.936210 0.929220 0.078300 -0.603676
C40   C     C_R   0.102106 0.913590 0.105213 0.929623
V4    V     V_3+5 0.828930 0.990510 0.999490 1.167932
O20   O     O_3   0.105680 0.050790 0.002500 -0.239673
N1    N     N_R   0.323266 0.251976 0.139713 0.233879
O21   O     O_R   0.363143 0.245235 0.064197 -0.394043
O22   O     O_R   0.153096 0.276921 0.165260 -0.416673

loop_
_geom_bond_atom_site_label_1
_geom_bond_atom_site_label_2
_geom_bond_distance
_ccdc_geom_bond_type
C15   H10   1.084398 S    
C18   H5    1.084400 S    
O12   V3    2.003201 S    
C19   C20   1.397129 A    
C1    O6    1.309258 A    
C23   C24   1.397778 A    
O14   V3    1.992120 S    
C5    C10   1.406356 A    
C16   C20   1.398625 A    
C6    C7    1.408724 A    
C9    C10   1.408715 A    
O5    C3    1.309342 A    
V3    O20   1.705011 S    
O11   C38   1.309288 A    
V2    O10   2.156139 S    
C13   C17   1.398583 A    
C32   C33   1.409273 A    
O12   C37   1.301342 A    
O13   C40   1.309368 A    
C34   N1    1.437370 S    
C31   C36   1.402403 A    
O8    V2    1.989978 S    
N1    O21   1.301500 A    
C15   C16   1.413487 A    
C35   C36   1.405353 A    
C14   H9    1.083539 S    
O1    V2    2.001863 S    
O7    V1    2.152813 S    
C22   C25   1.404916 A    
C31   H17   1.083118 S    
O9    C4    1.302619 A    
O13   V3    1.988749 S    
C13   H7    1.084086 S    
C22   C24   1.410876 A    
C17   C18   1.413437 A    
C11   C18   1.405261 A    
C31   C32   1.400333 A    
C28   H11   1.084161 S    
C3    C11   1.491167 S    
C29   C30   1.397952 A    
C20   H8    1.084084 S    
C19   H6    1.083549 S    
C9    H4    1.082764 S    
O19   V4    1.989912 S    
O17   V4    1.706963 S    
O4    C2    1.301698 A    
O18   C39   1.302613 A    
C11   C19   1.412558 A    
V4    O20   2.156130 S    
C4    C10   1.490085 S    
O2    C1    1.289757 A    
C13   C14   1.397081 A    
O18   V4    2.002638 S    
C25   C26   1.414857 A    
C23   C27   1.398990 A    
C7    C39   1.490079 S    
C5    H1    1.082745 S    
O15   C39   1.297652 A    
C21   C28   1.404852 A    
O17   V3    2.152771 S    
C22   C38   1.489045 S    
O3    C4    1.297619 A    
O14   C38   1.289643 A    
C26   C27   1.418961 A    
C33   C37   1.493856 S    
C35   H19   1.083560 S    
O6    V2    1.987617 S    
O9    V2    2.002686 S    
C24   H15   1.083654 S    
C8    C9    1.400519 A    
O2    V1    1.992027 S    
C12   C40   1.491211 S    
O1    C2    1.296842 A    
C12   C15   1.405305 A    
N1    O22   1.301047 A    
O19   C40   1.291071 A    
O5    V1    1.988772 S    
O8    C3    1.291065 A    
O16   V4    2.003643 S    
C1    C21   1.489191 S    
C29   H12   1.083652 S    
O11   V4    1.988146 S    
C16   C17   1.418681 A    
C6    H2    1.082763 S    
C12   C14   1.412560 A    
O7    V2    1.707664 S    
O4    V1    2.003265 S    
O3    V1    2.002236 S    
V1    O10   1.704912 S    
C34   C35   1.408198 A    
C25   H16   1.084176 S    
C37   O16   1.299333 A    
C21   C29   1.410911 A    
C5    C6    1.400570 A    
C32   H18   1.083271 S    
C2    C36   1.487592 S    
C33   C34   1.420962 A    
C26   C30   1.399075 A    
C23   H13   1.083765 S    
C27   C28   1.414753 A    
O15   V3    2.002065 S    
C8    H3    1.082746 S    
C7    C8    1.406345 A    
C30   H14   1.083769 S    
