data_mof_unit_45105.cif
_audit_creation_date              2012-12-11T14:44:19-0500
_audit_creation_method            fapswitch 2.2
_symmetry_space_group_name_H-M    P1
_symmetry_Int_Tables_number       1
_space_group_crystal_system       triclinic
_cell_length_a                    19.218762
_cell_length_b                    11.004634
_cell_length_c                    18.738502
_cell_angle_alpha                 90.813751
_cell_angle_beta                  89.992631
_cell_angle_gamma                 90.496027
_cell_volume                      3962.55955655

loop_
_atom_site_label
_atom_site_type_symbol
_atom_type_description
_atom_site_fract_x
_atom_site_fract_y
_atom_site_fract_z
_atom_type_partial_charge
C1    C     C_R   0.727315 0.370085 0.142813 0.551069
C2    C     C_R   0.288718 0.328436 0.861285 0.580682
C3    C     C_R   0.227315 0.870084 0.142812 0.551070
C4    C     C_R   0.788718 0.828436 0.861285 0.580682
C5    C     C_R   0.504529 0.397522 0.928371 -0.103662
C6    C     C_R   0.491307 0.381577 0.075562 -0.087499
C7    C     C_R   0.004529 0.897522 0.928372 -0.103663
C8    C     C_R   0.991306 0.881577 0.075563 -0.087498
C9    C     C_R   0.001042 0.002401 0.970315 -0.145356
C10   C     C_R   0.994706 0.994655 0.043708 -0.150026
C11   C     C_R   0.501042 0.502402 0.970313 -0.145357
C12   C     C_R   0.494706 0.494655 0.043706 -0.150029
C13   C     C_R   0.712926 0.812311 0.049504 0.322318
C14   C     C_R   0.300660 0.854427 0.954861 0.266564
C15   C     C_R   0.212928 0.312309 0.049504 0.322319
C16   C     C_R   0.800660 0.354425 0.954861 0.266565
C17   C     C_R   0.723155 0.784525 0.976319 0.286937
C18   C     C_R   0.299189 0.857018 0.030157 0.257378
C19   C     C_R   0.223156 0.284523 0.976319 0.286936
C20   C     C_R   0.799189 0.357019 0.030157 0.257386
C21   C     C_R   0.778760 0.840606 0.939110 -0.021715
C22   C     C_R   0.238118 0.891743 0.066178 -0.013945
C23   C     C_R   0.278761 0.340605 0.939111 -0.021717
C24   C     C_R   0.738119 0.391744 0.066178 -0.013945
C25   C     C_R   0.829125 0.903819 0.977960 -0.192187
C26   C     C_R   0.179491 0.922793 0.026046 -0.162643
C27   C     C_R   0.329125 0.403817 0.977961 -0.192191
C28   C     C_R   0.679491 0.422794 0.026046 -0.162645
C29   C     C_R   0.822217 0.920415 0.050487 -0.225562
C30   C     C_R   0.182582 0.927093 0.952809 -0.145758
C31   C     C_R   0.322218 0.420412 0.050487 -0.225566
C32   C     C_R   0.682583 0.427094 0.952810 -0.145756
C33   C     C_R   0.759656 0.893204 0.084184 -0.025186
C34   C     C_R   0.244736 0.904171 0.917591 0.012335
C35   C     C_R   0.259656 0.393203 0.084185 -0.025186
C36   C     C_R   0.744736 0.404170 0.917591 0.012336
C37   C     C_R   0.446591 0.068849 0.438605 0.016145
C38   C     C_R   0.438727 0.052336 0.513183 -0.007042
C39   C     C_R   0.946592 0.568849 0.438606 0.016146
C40   C     C_R   0.938728 0.552336 0.513183 -0.007042
C41   C     C_R   0.450056 0.155013 0.560348 0.013851
C42   C     C_R   0.487004 0.169015 0.416266 0.022824
C43   C     C_R   0.950057 0.655014 0.560348 0.013852
C44   C     C_R   0.987004 0.669015 0.416266 0.022825
C45   C     C_R   0.536090 0.153734 0.143845 0.552056
C46   C     C_R   0.470172 0.157574 0.851720 0.558846
C47   C     C_R   0.036089 0.653734 0.143845 0.552053
C48   C     C_R   0.970172 0.657574 0.851721 0.558848
C49   C     C_R   0.473518 0.265291 0.531636 -0.149970
C50   C     C_R   0.495581 0.270143 0.461337 -0.158385
C51   C     C_R   0.973519 0.765291 0.531636 -0.149972
C52   C     C_R   0.995582 0.770144 0.461338 -0.158385
C53   C     C_R   0.800969 0.003114 0.469755 -0.153238
C54   C     C_R   0.232186 0.041461 0.525544 -0.120332
C55   C     C_R   0.300968 0.503119 0.469757 -0.153240
C56   C     C_R   0.732181 0.541461 0.525545 -0.120332
C57   C     C_R   0.807461 0.982636 0.540918 -0.139903
C58   C     C_R   0.227458 0.021404 0.452975 -0.142477
C59   C     C_R   0.307459 0.482642 0.540920 -0.139903
C60   C     C_R   0.727454 0.521403 0.452976 -0.142475
C61   C     C_R   0.753954 0.923458 0.578166 0.033646
C62   C     C_R   0.243862 0.907197 0.425655 0.024778
C63   C     C_R   0.253954 0.423459 0.578167 0.033644
C64   C     C_R   0.743863 0.407198 0.425655 0.024779
C65   C     C_R   0.691941 0.891322 0.543574 -0.158056
C66   C     C_R   0.265152 0.813878 0.470629 -0.149147
C67   C     C_R   0.191942 0.391317 0.543573 -0.158058
C68   C     C_R   0.765159 0.313880 0.470628 -0.149149
C69   C     C_R   0.683700 0.919106 0.471956 -0.142617
C70   C     C_R   0.269007 0.832959 0.543461 -0.166258
C71   C     C_R   0.183702 0.419098 0.471954 -0.142617
C72   C     C_R   0.769013 0.332961 0.543460 -0.166257
C73   C     C_R   0.738653 0.974506 0.434942 0.032686
C74   C     C_R   0.252010 0.946644 0.570697 0.035957
C75   C     C_R   0.238654 0.474503 0.434942 0.032685
C76   C     C_R   0.752010 0.446644 0.570697 0.035959
C77   C     C_R   0.742650 0.963830 0.149329 0.557828
C78   C     C_R   0.257293 0.964667 0.849939 0.572677
C79   C     C_R   0.242651 0.463830 0.149329 0.557825
C80   C     C_R   0.757293 0.464666 0.849938 0.572675
C81   C     C_R   0.728585 0.376409 0.352823 0.532534
C82   C     C_R   0.270686 0.378805 0.648102 0.544618
C83   C     C_R   0.228585 0.876410 0.352823 0.532532
C84   C     C_R   0.770687 0.878805 0.648102 0.544618
C85   C     C_R   0.530781 0.157752 0.352479 0.537428
C86   C     C_R   0.436314 0.151008 0.638447 0.557630
C87   C     C_R   0.030781 0.657752 0.352479 0.537428
C88   C     C_R   0.936315 0.651008 0.638447 0.557631
C89   C     C_R   0.730430 0.012715 0.362068 0.553862
C90   C     C_R   0.259032 0.974476 0.645031 0.534229
C91   C     C_R   0.230431 0.512712 0.362068 0.553860
C92   C     C_R   0.759032 0.474476 0.645030 0.534231
C93   C     C_R   0.508781 0.174692 0.918866 -0.052716
C94   C     C_R   0.518597 0.160246 0.067299 -0.054443
C95   C     C_R   0.008780 0.674691 0.918867 -0.052713
C96   C     C_R   0.018595 0.660247 0.067300 -0.054436
C97   C     C_R   0.504153 0.282103 0.960097 -0.029946
C98   C     C_R   0.503421 0.273912 0.035332 -0.026116
C99   C     C_R   0.004151 0.782103 0.960098 -0.029946
C100  C     C_R   0.003419 0.773912 0.035333 -0.026117
C101  C     C_R   0.538309 0.060360 0.022400 0.251130
C102  C     C_R   0.539201 0.073619 0.948774 0.255165
C103  C     C_R   0.038308 0.560361 0.022401 0.251133
C104  C     C_R   0.039199 0.573618 0.948775 0.255163
Cr1   Cr    Cr6+3 0.772000 0.169640 0.250110 0.972909
Cr2   Cr    Cr6+3 0.228000 0.169640 0.749890 0.997222
Cr3   Cr    Cr6+3 0.272000 0.669640 0.250110 0.972909
Cr4   Cr    Cr6+3 0.728000 0.669640 0.749890 0.997223
Cr5   Cr    Cr6+3 0.614960 0.323350 0.249260 0.984614
Cr6   Cr    Cr6+3 0.385040 0.323350 0.750740 0.995596
Cr7   Cr    Cr6+3 0.114960 0.823350 0.249260 0.984614
Cr8   Cr    Cr6+3 0.885040 0.823350 0.750740 0.995596
Cr9   Cr    Cr6+3 0.616670 0.010620 0.250840 1.007861
Cr10  Cr    Cr6+3 0.383330 0.010620 0.749160 0.988683
Cr11  Cr    Cr6+3 0.116670 0.510620 0.250840 1.007872
Cr12  Cr    Cr6+3 0.883330 0.510620 0.749160 0.988673
H1    H     H_    0.844558 0.045581 0.442821 0.129641
H2    H     H_    0.220570 0.131201 0.546550 0.138006
H3    H     H_    0.344556 0.545590 0.442823 0.129641
H4    H     H_    0.720560 0.631199 0.546551 0.138007
H5    H     H_    0.856621 0.008149 0.565431 0.133735
H6    H     H_    0.210274 0.093540 0.418547 0.120283
H7    H     H_    0.356617 0.508162 0.565434 0.133736
H8    H     H_    0.710265 0.593538 0.418548 0.120285
H9    H     H_    0.651352 0.842567 0.571294 0.118642
H10   H     H_    0.277052 0.725837 0.449016 0.132406
H11   H     H_    0.151354 0.342557 0.571292 0.118644
H12   H     H_    0.777064 0.225839 0.449014 0.132404
H13   H     H_    0.635324 0.896378 0.445293 0.127688
H14   H     H_    0.285362 0.760486 0.578054 0.119458
H15   H     H_    0.135327 0.396365 0.445291 0.127688
H16   H     H_    0.785373 0.260489 0.578053 0.119457
H17   H     H_    0.511943 0.408745 0.871669 0.134802
H18   H     H_    0.478675 0.381479 0.131626 0.133747
H19   H     H_    0.011942 0.908744 0.871670 0.134801
H20   H     H_    0.978674 0.881478 0.131628 0.133746
H21   H     H_    0.000329 0.089455 0.945433 0.087210
H22   H     H_    0.991539 0.076223 0.076245 0.086800
H23   H     H_    0.500327 0.589456 0.945431 0.087213
H24   H     H_    0.491538 0.576223 0.076244 0.086804
H25   H     H_    0.873126 0.943560 0.951687 0.186559
H26   H     H_    0.130791 0.945146 0.051248 0.184844
H27   H     H_    0.373127 0.443558 0.951688 0.186558
H28   H     H_    0.630791 0.445147 0.051248 0.184843
H29   H     H_    0.862972 0.967053 0.079103 0.142294
H30   H     H_    0.137854 0.957513 0.923799 0.162393
H31   H     H_    0.362973 0.467050 0.079104 0.142293
H32   H     H_    0.637854 0.457514 0.923800 0.162394
H33   H     H_    0.481342 0.345322 0.565063 0.139403
H34   H     H_    0.523075 0.350565 0.443544 0.138625
H35   H     H_    0.981344 0.845322 0.565063 0.139401
H36   H     H_    0.023076 0.850565 0.443544 0.138626
O1    O     O_R   0.787540 0.042690 0.170470 -0.556604
O2    O     O_R   0.212460 0.042690 0.829530 -0.501886
O3    O     O_R   0.287540 0.542690 0.170470 -0.556606
O4    O     O_R   0.712460 0.542690 0.829530 -0.501885
O5    O     O_R   0.556540 0.252920 0.323970 -0.506800
O6    O     O_R   0.443460 0.252920 0.676030 -0.504728
O7    O     O_R   0.056540 0.752920 0.323970 -0.506802
O8    O     O_R   0.943460 0.752920 0.676030 -0.504728
O9    O     O_R   0.545870 0.051100 0.330840 -0.538529
O10   O     O_R   0.454130 0.051100 0.669160 -0.528521
O11   O     O_R   0.045870 0.551100 0.330840 -0.538529
O12   O     O_R   0.954130 0.551100 0.669160 -0.528522
O13   O     O_R   0.681340 0.959300 0.325510 -0.516459
O14   O     O_R   0.318660 0.959300 0.674490 -0.540981
O15   O     O_R   0.181340 0.459300 0.325510 -0.516459
O16   O     O_R   0.818660 0.459300 0.674490 -0.540981
O17   O     O_3   0.667880 0.167870 0.250070 -0.258310
O18   O     O_3   0.332120 0.167870 0.749930 -0.288136
O19   O     O_3   0.167880 0.667870 0.250070 -0.258310
O20   O     O_3   0.832120 0.667870 0.749930 -0.288134
O21   O     O_R   0.765660 0.292160 0.175050 -0.474165
O22   O     O_R   0.234340 0.292160 0.824950 -0.497083
O23   O     O_R   0.265660 0.792160 0.175050 -0.474163
O24   O     O_R   0.734340 0.792160 0.824950 -0.497084
O25   O     O_R   0.670190 0.408980 0.168550 -0.556040
O26   O     O_R   0.329810 0.408980 0.831450 -0.517697
O27   O     O_R   0.170190 0.908980 0.168550 -0.556040
O28   O     O_R   0.829810 0.908980 0.831450 -0.517696
O29   O     O_R   0.556580 0.251450 0.175160 -0.515681
O30   O     O_R   0.443420 0.251450 0.824840 -0.527463
O31   O     O_R   0.056580 0.751450 0.175160 -0.515683
O32   O     O_R   0.943420 0.751450 0.824840 -0.527463
O33   O     O_R   0.545920 0.049510 0.170320 -0.500966
O34   O     O_R   0.454080 0.049510 0.829680 -0.505231
O35   O     O_R   0.045920 0.549510 0.170320 -0.500951
O36   O     O_R   0.954080 0.549510 0.829680 -0.505231
O37   O     O_R   0.681390 0.957840 0.176710 -0.441622
O38   O     O_R   0.318610 0.957840 0.823290 -0.494964
O39   O     O_R   0.181390 0.457840 0.176710 -0.441615
O40   O     O_R   0.818610 0.457840 0.823290 -0.494980
O41   O     O_R   0.787500 0.044280 0.330990 -0.534130
O42   O     O_R   0.212500 0.044280 0.669010 -0.523882
O43   O     O_R   0.287500 0.544280 0.330990 -0.534130
O44   O     O_R   0.712500 0.544280 0.669010 -0.523883
O45   O     O_R   0.765610 0.293630 0.323860 -0.534948
O46   O     O_R   0.234390 0.293630 0.676140 -0.513115
O47   O     O_R   0.265610 0.793630 0.323860 -0.534947
O48   O     O_R   0.734390 0.793630 0.676140 -0.513114
O49   O     O_R   0.670140 0.410570 0.329080 -0.517593
O50   O     O_R   0.329860 0.410570 0.670920 -0.531855
O51   O     O_R   0.170140 0.910570 0.329080 -0.517592
O52   O     O_R   0.829860 0.910570 0.670920 -0.531856
O53   O     O_3   0.566486 0.955347 0.049580 -0.503166
C105  C     C_3   0.512375 0.877907 0.073170 -0.033677
H37   H     H_    0.497166 0.813913 0.030544 0.102374
H38   H     H_    0.465968 0.927391 0.093314 0.149179
H39   H     H_    0.531734 0.823028 0.118061 0.164349
O54   O     O_3   0.568570 0.985569 0.905515 -0.585342
C106  C     C_3   0.628951 0.035568 0.873363 -0.106491
H40   H     H_    0.671285 0.046650 0.913482 0.140782
H41   H     H_    0.619412 0.123633 0.846700 0.108568
H42   H     H_    0.647138 0.973052 0.830629 0.154232
O55   O     O_3   0.066488 0.455351 0.049583 -0.503165
C107  C     C_3   0.012376 0.377903 0.073161 -0.033694
H43   H     H_    0.997150 0.313957 0.030517 0.102379
H44   H     H_    0.965978 0.427383 0.093333 0.149193
H45   H     H_    0.031740 0.322975 0.118030 0.164344
O56   O     O_3   0.068569 0.485569 0.905516 -0.585344
C108  C     C_3   0.128950 0.535567 0.873366 -0.106492
H46   H     H_    0.171284 0.546648 0.913486 0.140780
H47   H     H_    0.119412 0.623633 0.846703 0.108567
H48   H     H_    0.147138 0.473052 0.830631 0.154232
O57   O     O_3   0.656595 0.762223 0.084654 -0.550173
C109  C     C_3   0.680103 0.684001 0.138270 -0.104415
H49   H     H_    0.635385 0.627247 0.155324 0.151663
H50   H     H_    0.698580 0.735107 0.186107 0.121861
H51   H     H_    0.722220 0.623438 0.118809 0.118374
O58   O     O_3   0.345923 0.778727 0.918074 -0.587673
C110  C     C_3   0.412422 0.831839 0.911276 -0.030001
H52   H     H_    0.419609 0.919978 0.940509 0.144791
H53   H     H_    0.423930 0.841938 0.853841 0.186003
H54   H     H_    0.451548 0.767028 0.929257 0.082976
O59   O     O_3   0.156597 0.262219 0.084655 -0.550183
C111  C     C_3   0.180106 0.184000 0.138272 -0.104417
H55   H     H_    0.135389 0.127246 0.155327 0.151666
H56   H     H_    0.198583 0.235108 0.186109 0.121861
H57   H     H_    0.222224 0.123437 0.118812 0.118374
O60   O     O_3   0.845919 0.278716 0.918074 -0.587676
C112  C     C_3   0.912417 0.331825 0.911264 -0.030016
H58   H     H_    0.919612 0.419959 0.940500 0.144798
H59   H     H_    0.923916 0.341930 0.853828 0.186002
H60   H     H_    0.951545 0.267008 0.929234 0.082966
O61   O     O_3   0.688789 0.686603 0.945589 -0.555931
C113  C     C_3   0.621953 0.720441 0.923791 -0.043102
H61   H     H_    0.623713 0.796203 0.886542 0.178447
H62   H     H_    0.588159 0.740374 0.969988 0.175259
H63   H     H_    0.598866 0.644640 0.892342 0.101854
O62   O     O_3   0.357131 0.827352 0.068904 -0.620790
C114  C     C_3   0.363869 0.700820 0.068353 -0.091428
H64   H     H_    0.312816 0.653119 0.063984 0.169769
H65   H     H_    0.396792 0.671151 0.023305 0.139292
H66   H     H_    0.389460 0.674375 0.118762 0.131637
O63   O     O_3   0.188790 0.186602 0.945590 -0.555930
C115  C     C_3   0.121953 0.220440 0.923793 -0.043106
H67   H     H_    0.123713 0.296204 0.886545 0.178448
H68   H     H_    0.088159 0.240370 0.969991 0.175254
H69   H     H_    0.098866 0.144641 0.892343 0.101856
O64   O     O_3   0.857132 0.327357 0.068904 -0.620789
C116  C     C_3   0.863873 0.200826 0.068354 -0.091431
H70   H     H_    0.812821 0.153122 0.063985 0.169772
H71   H     H_    0.896798 0.171159 0.023307 0.139292
H72   H     H_    0.889464 0.174384 0.118763 0.131632
C117  C     C_3   0.418828 0.975992 0.383438 -0.234830
C118  C     C_3   0.385540 0.033971 0.316843 -0.282138
C119  C     C_3   0.393203 0.951954 0.250921 -0.408963
H73   H     H_    0.448849 0.942944 0.236650 0.168366
H74   H     H_    0.372375 0.859746 0.261042 0.185482
H75   H     H_    0.365051 0.991623 0.205163 0.153858
H76   H     H_    0.329505 0.050595 0.326951 0.146631
H77   H     H_    0.408153 0.123803 0.303884 0.162369
H78   H     H_    0.460580 0.911095 0.368950 0.159939
H79   H     H_    0.377238 0.919439 0.405711 0.133640
C120  C     C_3   0.432755 0.922767 0.540862 -0.240811
C121  C     C_3   0.504534 0.868297 0.553887 -0.291767
C122  C     C_3   0.498572 0.745041 0.590005 -0.449647
H80   H     H_    0.473571 0.755382 0.643178 0.159830
H81   H     H_    0.467256 0.680784 0.556577 0.139500
H82   H     H_    0.551184 0.706301 0.597379 0.144772
H83   H     H_    0.531063 0.855692 0.501775 0.147402
H84   H     H_    0.536641 0.930504 0.587779 0.195393
H85   H     H_    0.401396 0.918672 0.589204 0.202344
H86   H     H_    0.405253 0.859834 0.504381 0.122405
C123  C     C_3   0.918827 0.475994 0.383438 -0.234832
C124  C     C_3   0.885538 0.533975 0.316845 -0.282141
C125  C     C_3   0.893200 0.451961 0.250922 -0.408965
H87   H     H_    0.948846 0.442953 0.236650 0.168372
H88   H     H_    0.872373 0.359753 0.261042 0.185484
H89   H     H_    0.865048 0.491632 0.205165 0.153856
H90   H     H_    0.829503 0.550598 0.326954 0.146634
H91   H     H_    0.908151 0.623808 0.303886 0.162369
H92   H     H_    0.960579 0.411097 0.368949 0.159940
H93   H     H_    0.877238 0.419440 0.405712 0.133640
C126  C     C_3   0.932758 0.422768 0.540863 -0.240808
C127  C     C_3   0.004537 0.368301 0.553892 -0.291757
C128  C     C_3   0.998576 0.245050 0.590017 -0.449637
H94   H     H_    0.973575 0.255398 0.643190 0.159828
H95   H     H_    0.967260 0.180786 0.556592 0.139498
H96   H     H_    0.051188 0.206312 0.597393 0.144771
H97   H     H_    0.031068 0.355691 0.501781 0.147397
H98   H     H_    0.036643 0.430515 0.587782 0.195395
H99   H     H_    0.901395 0.418672 0.589202 0.202341
H100  H     H_    0.905260 0.359830 0.504379 0.122400

loop_
_geom_bond_atom_site_label_1
_geom_bond_atom_site_label_2
_ccdc_geom_bond_type
C62   C83   S    
Cr10  O38   S    
C55   C59   A    
C128  H95   S    
C107  H45   S    
Cr8   O32   S    
C55   H3    S    
C7    C99   A    
C124  H90   S    
C48   O36   A    
C13   O57   S    
C95   C99   A    
Cr6   O26   S    
C115  H69   S    
C29   C33   A    
C37   C42   A    
C54   C74   A    
C40   C43   A    
C70   C74   A    
C27   H27   S    
C125  H88   S    
C30   H30   S    
C28   H28   S    
C68   H12   S    
Cr11  O39   S    
C84   O52   A    
Cr1   O45   S    
Cr12  O40   S    
C79   O39   A    
O61   C113  S    
Cr7   O27   S    
C80   O40   A    
C41   C49   A    
C72   H16   S    
C63   C67   A    
C25   C29   A    
C58   H6    S    
C27   C31   A    
C51   C52   A    
C28   C32   A    
C47   O31   A    
C36   C80   S    
Cr7   O51   S    
C82   O50   A    
C82   O46   A    
C30   C34   A    
C105  H37   S    
Cr3   O19   S    
C17   C21   A    
C19   C23   A    
O55   C107  S    
C13   C33   A    
C37   C38   A    
C91   O43   A    
C92   O16   A    
C68   C72   A    
C89   O41   A    
C46   O34   A    
Cr1   O17   S    
C19   O63   S    
C127  C128  S    
Cr8   O52   S    
Cr8   O8    S    
C92   O44   A    
C61   C84   S    
C57   C61   A    
C59   C63   A    
Cr6   O50   S    
C60   C64   A    
C74   C90   S    
C81   O45   A    
C45   O33   A    
C66   C70   A    
C121  H84   S    
C87   O7    A    
C110  H54   S    
C88   O8    A    
Cr11  O11   S    
C14   O58   S    
Cr9   O9    S    
C61   C65   A    
C8    C10   A    
Cr12  O16   S    
C10   H22   S    
Cr3   O3    S    
C29   H29   S    
Cr1   O1    S    
Cr5   O5    S    
C97   C98   A    
Cr2   O42   S    
C39   C123  S    
C127  H98   S    
C1    O21   A    
C64   C68   A    
C91   O15   A    
C107  H44   S    
C118  H76   S    
C116  H70   S    
C119  H75   S    
C111  H55   S    
C112  H58   S    
C11   H23   S    
C77   O1    A    
C115  H68   S    
C120  H85   S    
C9    C10   A    
C75   C91   S    
Cr8   O28   S    
C55   C75   A    
C44   C52   A    
Cr1   O21   S    
C122  H80   S    
Cr2   O18   S    
O56   C108  S    
Cr5   O17   S    
C62   C66   A    
C63   C82   S    
C38   C41   A    
C39   C40   A    
C114  H66   S    
C88   O12   A    
C79   O3    A    
C66   H10   S    
C108  H46   S    
Cr11  O35   S    
C17   O61   S    
C47   C96   S    
Cr9   O33   S    
Cr7   O31   S    
C42   C50   A    
C117  H78   S    
C20   O64   S    
C26   C30   A    
Cr4   O20   S    
C4    O24   A    
C47   O35   A    
C93   C97   A    
C126  H99   S    
Cr5   O29   S    
C21   C25   A    
C113  H61   S    
C18   C22   A    
C24   C28   A    
C5    C97   A    
O64   C116  S    
C14   C34   A    
C116  H72   S    
C119  H73   S    
C32   C36   A    
C39   C44   A    
C111  H57   S    
C124  H91   S    
C112  H60   S    
C77   O37   A    
C46   O30   A    
C54   H2    S    
C8    C100  A    
C31   H31   S    
C16   C36   A    
Cr3   O47   S    
C33   C77   S    
C96   C100  A    
C35   C79   S    
O60   C112  S    
Cr7   O19   S    
C64   C81   S    
C71   H15   S    
C106  H42   S    
C121  C122  S    
C16   O60   S    
C1    C24   S    
C49   C50   A    
C122  H82   S    
C2    C23   S    
C3    C22   S    
C2    O26   A    
Cr11  O15   S    
C113  H63   S    
C58   C62   A    
C101  C102  A    
C8    H20   S    
C85   O9    A    
C120  C121  S    
C45   O29   A    
C114  H64   S    
C15   C19   A    
C41   C86   S    
C43   C88   S    
C6    C98   A    
C5    C11   A    
C108  H48   S    
C6    C12   A    
C105  H38   S    
C38   C120  S    
Cr10  O10   S    
C94   C98   A    
C70   H14   S    
Cr12  O20   S    
Cr10  O18   S    
Cr7   O7    S    
C9    H21   S    
Cr2   O2    S    
C123  H93   S    
O59   C111  S    
C12   H24   S    
C69   C73   A    
Cr4   O44   S    
C44   C87   S    
Cr6   O6    S    
Cr2   O46   S    
C51   H35   S    
C90   O14   A    
C85   O5    A    
C4    O28   A    
C59   H7    S    
Cr11  O19   S    
C126  C127  S    
C53   C57   A    
C78   O2    A    
C81   O49   A    
O62   C114  S    
C56   C60   A    
C5    H17   S    
C123  C124  S    
C106  H40   S    
Cr4   O4    S    
C52   H36   S    
Cr10  O14   S    
Cr2   O22   S    
C125  H89   S    
C110  H53   S    
C42   C85   S    
C37   C117  S    
Cr6   O18   S    
C3    O23   A    
C31   C35   A    
C103  O55   S    
C83   O51   A    
C48   O32   A    
C25   H25   S    
Cr9   O13   S    
C93   C102  A    
Cr9   O17   S    
C32   H32   S    
C13   C17   A    
Cr9   O37   S    
Cr10  O34   S    
Cr5   O49   S    
C73   C89   S    
C118  H77   S    
C119  H74   S    
C43   C51   A    
Cr8   O20   S    
Cr3   O23   S    
C65   C69   A    
Cr4   O24   S    
C111  H56   S    
C67   C71   A    
O58   C110  S    
Cr5   O25   S    
Cr6   O30   S    
C6    H18   S    
C22   C26   A    
C96   C103  A    
C15   O59   S    
C103  C104  A    
C2    O22   A    
C87   O11   A    
C56   C76   A    
C48   C95   S    
C128  H94   S    
C14   C18   A    
C78   O38   A    
C72   C76   A    
Cr3   O43   S    
O53   C105  S    
C84   O48   A    
Cr1   O41   S    
Cr12  O36   S    
C124  C125  S    
C53   H1    S    
C114  H65   S    
C121  H83   S    
C60   H8    S    
C3    O27   A    
C104  O56   S    
C1    O25   A    
C20   C24   A    
C94   C101  A    
C90   O42   A    
C86   O10   A    
C23   C27   A    
C117  C118  S    
C16   C20   A    
C56   H4    S    
C45   C94   S    
C15   C35   A    
C80   O4    A    
C127  H97   S    
C113  H62   S    
C107  H43   S    
C116  H71   S    
C102  O54   S    
C112  H59   S    
C65   H9    S    
Cr4   O48   S    
C7    H19   S    
C67   H11   S    
C50   H34   S    
C99   C100  A    
C115  H67   S    
O57   C109  S    
C120  H86   S    
C86   O6    A    
C89   O13   A    
C101  O53   S    
C76   C92   S    
C106  H41   S    
C109  H49   S    
C109  H50   S    
C122  H81   S    
C125  H87   S    
C128  H96   S    
C83   O47   A    
O63   C115  S    
C95   C104  A    
C54   C58   A    
C7    C9    A    
Cr12  O12   S    
C53   C73   A    
C11   C12   A    
C109  H51   S    
C49   H33   S    
C108  H47   S    
C34   C78   S    
C71   C75   A    
C4    C21   S    
C105  H39   S    
C46   C93   S    
C18   O62   S    
C69   H13   S    
C118  C119  S    
C57   H5    S    
C117  H79   S    
O54   C106  S    
C123  H92   S    
C110  H52   S    
C40   C126  S    
C26   H26   S    
C126  H100  S    
