data_mof_unit_57437.cif
_audit_creation_date              2012-12-10T21:42:33-0500
_audit_creation_method            fapswitch 2.2
_symmetry_space_group_name_H-M    P1
_symmetry_Int_Tables_number       1
_space_group_crystal_system       triclinic
_cell_length_a                    10.744041
_cell_length_b                    16.118556
_cell_length_c                    16.852457
_cell_angle_alpha                 89.634875
_cell_angle_beta                  90.513645
_cell_angle_gamma                 92.956242
_cell_volume                      2914.42994808

loop_
_atom_site_label
_atom_site_type_symbol
_atom_type_description
_atom_site_fract_x
_atom_site_fract_y
_atom_site_fract_z
_atom_type_partial_charge
C1    C     C_R   0.498353 0.490388 0.652744 0.914468
C2    C     C_R   0.569546 0.453723 0.221254 0.390331
C3    C     C_R   0.483804 0.556934 0.863940 0.421714
C4    C     C_R   0.549757 0.443171 0.139814 0.447947
C5    C     C_R   0.544363 0.491387 0.900989 0.140398
C6    C     C_R   0.466470 0.495045 0.099749 0.128807
C7    C     C_R   0.588278 0.426532 0.856737 -0.261671
C8    C     C_R   0.395946 0.549787 0.141867 -0.229692
C9    C     C_R   0.568436 0.424600 0.775467 -0.286812
C10   C     C_R   0.411454 0.557248 0.223107 -0.344941
C11   C     C_R   0.486816 0.762052 0.443588 -0.126405
C12   C     C_R   0.502171 0.509469 0.347507 0.971383
C13   C     C_R   0.558108 0.238861 0.539503 -0.138972
C14   C     C_R   0.490157 0.849641 0.444991 -0.269072
C15   C     C_R   0.557409 0.151883 0.535181 -0.271657
C16   C     C_R   0.740182 0.500654 0.498099 0.885440
C17   C     C_R   0.259908 0.499387 0.502014 0.876832
C18   C     C_R   0.523356 0.892230 0.515515 0.264351
C19   C     C_R   0.480514 0.109113 0.479022 0.271887
C20   C     C_R   0.552924 0.844784 0.581958 -0.323143
C21   C     C_R   0.406054 0.156163 0.429181 -0.383818
C22   C     C_R   0.548973 0.757465 0.578615 0.658686
C23   C     C_R   0.127502 0.498306 0.503182 -0.089705
C24   C     C_R   0.408712 0.244527 0.434797 0.654305
C25   C     C_R   0.808107 0.731058 0.335129 0.556940
C26   C     C_R   0.222957 0.282604 0.665151 0.592751
C27   C     C_R   0.848929 0.655940 0.366642 -0.290693
C28   C     C_R   0.170195 0.352789 0.632762 -0.259564
C29   C     C_R   0.893562 0.651681 0.445025 -0.122658
C30   C     C_R   0.108718 0.350140 0.558983 -0.145203
C31   C     C_R   0.899439 0.724407 0.492570 0.438971
C32   C     C_R   0.095965 0.273890 0.517201 0.499383
C33   C     C_R   0.856211 0.798707 0.461543 0.415370
C34   C     C_R   0.872702 0.501839 0.497598 -0.079353
C35   C     C_R   0.144440 0.202254 0.550493 0.431040
C36   C     C_R   0.812193 0.801677 0.382814 -0.406821
C37   C     C_R   0.207687 0.206631 0.623989 -0.484198
C38   C     C_R   0.072499 0.569789 0.476143 -0.242486
C39   C     C_R   0.927799 0.430276 0.524764 -0.255013
C40   C     C_3   0.692472 0.709198 0.664492 -0.246129
C41   C     C_3   0.281584 0.256234 0.321006 -0.326813
C42   C     C_3   0.678927 0.684136 0.234240 -0.266767
C43   C     C_3   0.379062 0.238339 0.750078 -0.289814
C44   C     C_3   0.639687 0.330704 0.270210 -0.177088
C45   C     C_R   0.055361 0.427395 0.528000 0.042809
C46   C     C_3   0.270637 0.592270 0.737461 -0.180594
C47   C     C_3   0.538690 0.317779 0.077989 -0.341556
C48   C     C_3   0.541111 0.682972 0.914737 -0.247537
C49   C     C_R   0.945140 0.572918 0.473390 0.039575
C50   C     C_R   0.504581 0.487844 0.738346 -0.200586
C51   C     C_R   0.498635 0.510186 0.262266 -0.228379
C52   C     C_R   0.458445 0.553182 0.783007 0.408571
H1    H     H_    0.782225 0.859530 0.357884 0.182648
H2    H     H_    0.345846 0.122669 0.387314 0.172962
H3    H     H_    0.851355 0.601597 0.329366 0.179082
H4    H     H_    0.177519 0.410323 0.665531 0.150029
H5    H     H_    0.128806 0.623629 0.456129 0.183113
H6    H     H_    0.871502 0.376544 0.545011 0.174158
H7    H     H_    0.636035 0.376886 0.885620 0.186077
H8    H     H_    0.330861 0.588123 0.111105 0.198243
H9    H     H_    0.735983 0.668725 0.620877 0.190878
H10   H     H_    0.703563 0.680152 0.723815 0.165762
H11   H     H_    0.741625 0.771700 0.666247 0.185317
H12   H     H_    0.242725 0.150379 0.648936 0.167531
H13   H     H_    0.204406 0.211226 0.337836 0.230931
H14   H     H_    0.352623 0.226021 0.285052 0.123004
H15   H     H_    0.240887 0.304468 0.282959 0.200145
H16   H     H_    0.600456 0.685899 0.276737 0.165911
H17   H     H_    0.711327 0.620204 0.228357 0.174780
H18   H     H_    0.642555 0.702627 0.175269 0.194926
H19   H     H_    0.440887 0.238933 0.697396 0.159852
H20   H     H_    0.344052 0.174207 0.765186 0.166809
H21   H     H_    0.436452 0.261181 0.801216 0.191891
H22   H     H_    0.966413 0.669767 0.586692 0.321685
H23   H     H_    0.605427 0.374837 0.741377 0.179541
H24   H     H_    0.024755 0.321943 0.421247 0.342242
H25   H     H_    0.825348 0.914896 0.479441 0.337786
H26   H     H_    0.169935 0.084252 0.539502 0.340281
H27   H     H_    0.538369 0.313991 0.275893 0.138065
H28   H     H_    0.685393 0.310302 0.325791 0.182673
H29   H     H_    0.679490 0.295876 0.220745 0.191090
H30   H     H_    0.259046 0.543873 0.691079 0.111166
H31   H     H_    0.219580 0.646570 0.716797 0.194223
H32   H     H_    0.227560 0.570021 0.794132 0.152460
H33   H     H_    0.596594 0.268470 0.054847 0.194989
H34   H     H_    0.354820 0.598964 0.255569 0.188625
H35   H     H_    0.472652 0.334138 0.029996 0.188215
H36   H     H_    0.486033 0.291188 0.129636 0.132242
H37   H     H_    0.621774 0.658342 0.947585 0.150993
H38   H     H_    0.508034 0.735818 0.949196 0.189663
H39   H     H_    0.570965 0.707421 0.855572 0.180735
H40   H     H_    0.618226 0.271345 0.582191 0.154361
H41   H     H_    0.459856 0.730398 0.389317 0.161722
H42   H     H_    0.617407 0.118871 0.574969 0.175893
H43   H     H_    0.467215 0.883271 0.391480 0.173166
H44   H     H_    0.576381 0.875584 0.637465 0.166181
N1    N     N_2   0.557352 0.488167 0.983492 -0.105707
N2    N     N_2   0.456102 0.497048 0.016749 -0.120446
N3    N     N_R   0.515300 0.716920 0.509720 -0.134462
N4    N     N_R   0.484700 0.283080 0.490280 -0.129950
N5    N     N_2   0.529177 0.981113 0.523252 -0.165049
N6    N     N_2   0.475302 0.020233 0.469749 -0.159621
O1    O     O_R   0.494530 0.422540 0.612660 -0.639199
O2    O     O_3   0.334693 0.295246 0.388860 -0.579066
O3    O     O_3   0.778199 0.740282 0.255520 -0.596191
O4    O     O_3   0.279066 0.290909 0.739703 -0.594866
O5    O     O_3   0.948835 0.726482 0.568653 -0.747277
O6    O     O_3   0.037272 0.266306 0.444072 -0.730823
O7    O     O_3   0.860393 0.868121 0.509258 -0.709548
O8    O     O_3   0.129117 0.128549 0.509382 -0.712310
O9    O     O_3   0.666954 0.416734 0.260189 -0.602800
O10   O     O_3   0.397276 0.617441 0.747665 -0.533513
O11   O     O_3   0.618282 0.386617 0.099624 -0.575106
O12   O     O_R   0.505470 0.577460 0.387340 -0.660106
O13   O     O_3   0.442437 0.622325 0.907530 -0.579390
O14   O     O_R   0.504350 0.561840 0.618900 -0.529872
O15   O     O_R   0.495650 0.438160 0.381100 -0.559712
O16   O     O_R   0.678330 0.430350 0.496870 -0.627797
O17   O     O_R   0.321670 0.569650 0.503130 -0.625679
O18   O     O_R   0.688150 0.569660 0.503110 -0.639763
O19   O     O_R   0.311850 0.430340 0.496890 -0.576504
O20   O     O_3   0.564349 0.713521 0.648037 -0.562397
Zn1   Zn    Zn3+2 0.493440 0.406980 0.495830 0.990377
Zn2   Zn    Zn3+2 0.506560 0.593020 0.504170 0.979907

loop_
_geom_bond_atom_site_label_1
_geom_bond_atom_site_label_2
_ccdc_geom_bond_type
C43   H21   S    
C43   H20   S    
C23   C45   A    
C46   O10   S    
C27   C29   A    
C14   C18   A    
C30   C45   S    
O1    Zn1   S    
C26   O4    S    
C15   H42   S    
N1    N2    D    
C28   H4    S    
C25   O3    S    
C41   H15   S    
C38   C49   A    
C29   C49   S    
O17   Zn2   S    
C15   C19   A    
C17   C23   S    
C40   H11   S    
C47   H33   S    
C35   C37   A    
C16   O18   A    
C47   O11   S    
C21   H2    S    
C19   N6    S    
C27   H3    S    
C52   O10   S    
C42   H18   S    
C33   C36   A    
C40   H10   S    
C11   N3    A    
C36   H1    S    
C16   C34   S    
H22   O5    S    
C46   H30   S    
C48   H39   S    
C50   C52   A    
C31   C33   A    
C1    O14   A    
C1    C50   S    
C1    O1    A    
C39   C45   A    
O12   Zn2   S    
C11   H41   S    
C20   H44   S    
H24   O6    S    
C48   H38   S    
C42   H16   S    
C10   C51   A    
C7    H7    S    
C22   O20   S    
C12   O12   A    
C2    O9    S    
C34   C39   A    
N5    N6    D    
C4    O11   S    
C44   H28   S    
C4    C6    A    
C44   H29   S    
C5    C7    A    
C6    C8    A    
C39   H6    S    
C42   H17   S    
C40   H9    S    
C46   H31   S    
C37   H12   S    
C24   O2    S    
C43   O4    S    
C47   H35   S    
C2    C4    A    
C32   C35   A    
C16   O16   A    
C38   H5    S    
H26   O8    S    
H25   O7    S    
C35   O8    S    
C48   O13   S    
C46   H32   S    
C17   O19   A    
C20   C22   A    
C48   H37   S    
C13   C15   A    
C13   H40   S    
C33   O7    S    
C6    N2    S    
C14   H43   S    
C12   C51   S    
C7    C9    A    
C10   H34   S    
C34   C49   A    
C43   H19   S    
C22   N3    A    
O14   Zn2   S    
C19   C21   A    
C24   N4    A    
C31   O5    S    
C44   H27   S    
C9    C50   A    
C5    N1    S    
C3    C5    A    
C41   H13   S    
C3    C52   A    
C26   C37   A    
C41   H14   S    
C25   C27   A    
C23   C38   A    
C40   O20   S    
C26   C28   A    
C41   O2    S    
N4    Zn1   S    
C47   H36   S    
C13   N4    A    
C28   C30   A    
O15   Zn1   S    
C29   C31   A    
C3    O13   S    
C8    H8    S    
C30   C32   A    
C11   C14   A    
C18   C20   A    
O16   Zn1   S    
C42   O3    S    
O19   Zn1   S    
C2    C51   A    
C17   O17   A    
C25   C36   A    
C12   O15   A    
C44   O9    S    
C8    C10   A    
C32   O6    S    
C21   C24   A    
C9    H23   S    
C18   N5    S    
O18   Zn2   S    
N3    Zn2   S    
