data_mof_unit_15911.cif
_audit_creation_date              2012-12-11T14:36:17-0500
_audit_creation_method            fapswitch 2.2
_symmetry_space_group_name_H-M    P1
_symmetry_Int_Tables_number       1
_space_group_crystal_system       triclinic
_cell_length_a                    13.431326
_cell_length_b                    13.505301
_cell_length_c                    27.51633
_cell_angle_alpha                 90.62999
_cell_angle_beta                  90.163375
_cell_angle_gamma                 59.989978
_cell_volume                      4321.87446213

loop_
_atom_site_label
_atom_site_type_symbol
_atom_type_description
_atom_site_fract_x
_atom_site_fract_y
_atom_site_fract_z
_atom_type_partial_charge
C1    C     C_R   0.620460 0.101207 0.570243 0.547009
C2    C     C_1   0.637035 0.721798 0.614389 -0.018722
C3    C     C_3   0.737830 0.507290 0.756461 -0.106293
C4    C     C_3   0.705950 0.594302 0.798380 0.051996
C5    C     C_3   0.622072 0.589654 0.731568 -0.100439
C6    C     C_3   0.680884 0.647029 0.705649 0.053830
C7    C     C_3   0.590635 0.675960 0.774228 -0.098150
C8    C     C_3   0.649218 0.733735 0.747694 -0.099993
C9    C     C_1   0.716482 0.566990 0.850208 -0.061584
C10   C     C_1   0.660627 0.683441 0.654834 -0.058750
C11   C     C_3   0.057697 0.200923 0.736321 -0.106235
C12   C     C_R   0.600327 0.778591 0.568577 0.548055
C13   C     C_3   0.114328 0.099241 0.771959 -0.101852
C14   C     C_1   0.094651 0.202998 0.901387 -0.017591
C15   C     C_1   0.228394 0.138710 0.617403 -0.017326
C16   C     C_3   0.085460 0.273906 0.771660 -0.102591
C17   C     C_3   0.142620 0.172035 0.806464 0.052712
C18   C     C_3   0.203061 0.230509 0.746319 -0.101495
C19   C     C_3   0.175001 0.157655 0.711733 0.053237
C20   C     C_3   0.259773 0.128921 0.781825 -0.103209
C21   C     C_3   0.232110 0.055791 0.746517 -0.099242
C22   C     C_1   0.120928 0.184787 0.859007 -0.059613
C23   C     C_R   0.277698 0.121841 0.569703 0.547060
C24   C     C_1   0.199098 0.148733 0.659404 -0.059333
C25   C     C_3   0.647007 0.270932 0.738905 -0.103030
C26   C     C_3   0.561195 0.270722 0.776451 -0.099576
C27   C     C_1   0.691031 0.208949 0.902766 -0.020353
C28   C     C_1   0.636009 0.133035 0.618369 -0.016786
C29   C     C_3   0.748895 0.187919 0.771223 -0.103012
C30   C     C_3   0.662929 0.187374 0.807942 0.053357
C31   C     C_3   0.753052 0.084266 0.744669 -0.098812
C32   C     C_3   0.651385 0.167458 0.713123 0.052377
C33   C     C_3   0.667324 0.083935 0.782098 -0.101689
C34   C     C_R   0.621765 0.098521 0.430731 0.543953
C35   C     C_3   0.565380 0.166944 0.749808 -0.102579
C36   C     C_1   0.674299 0.198255 0.860465 -0.059831
C37   C     C_1   0.644452 0.152051 0.660637 -0.059294
C38   C     C_R   0.730471 0.707766 0.357397 -0.141077
C39   C     C_R   0.742717 0.694135 0.306940 0.013385
C40   C     C_R   0.765045 0.665156 0.205744 0.011457
C41   C     C_R   0.859957 0.645568 0.234168 -0.136828
C42   C     C_R   0.848737 0.660282 0.284540 -0.140672
C43   C     C_R   0.778165 0.637478 0.156405 -0.137645
C44   C     C_R   0.685231 0.644848 0.129830 -0.006217
C45   C     C_R   0.599796 0.779499 0.429254 0.545080
C46   C     C_R   0.530580 0.755890 0.350168 -0.126136
C47   C     C_R   0.539893 0.747830 0.300138 0.007834
C48   C     C_R   0.646381 0.716217 0.278262 0.065755
C49   C     C_R   0.443579 0.772576 0.271749 -0.130666
C50   C     C_R   0.453753 0.761471 0.221513 -0.131356
C51   C     C_R   0.560668 0.724075 0.199476 0.012053
C52   C     C_R   0.656957 0.703826 0.227738 0.065687
C53   C     C_R   0.575111 0.696940 0.150292 -0.135414
C54   C     C_R   0.624136 0.739514 0.378981 0.000155
C55   C     C_R   0.200427 0.071067 0.357720 -0.143531
C56   C     C_R   0.283213 0.118542 0.429632 0.544549
C57   C     C_R   0.180710 0.077746 0.307573 0.014983
C58   C     C_R   0.132811 0.101443 0.207881 0.005115
C59   C     C_R   0.103959 0.033565 0.236235 -0.132651
C60   C     C_R   0.128102 0.021519 0.285825 -0.137516
C61   C     C_R   0.098090 0.123272 0.159836 -0.149852
C62   C     C_R   0.117244 0.199463 0.132427 -0.015001
C63   C     C_R   0.282705 0.194664 0.349663 -0.124616
C64   C     C_R   0.266811 0.199303 0.299964 0.007060
C65   C     C_R   0.213580 0.142830 0.278661 0.067819
C66   C     C_R   0.303645 0.259784 0.271444 -0.137545
C67   C     C_3   0.796459 0.565273 0.729672 -0.104476
C68   C     C_R   0.283153 0.269261 0.221842 -0.132028
C69   C     C_R   0.221738 0.221238 0.200074 0.007736
C70   C     C_R   0.190508 0.154149 0.228690 0.053449
C71   C     C_R   0.186476 0.242456 0.151161 -0.030280
C72   C     C_R   0.249199 0.131593 0.378820 0.002305
C73   C     C_R   0.572707 0.237035 0.362942 -0.146137
C74   C     C_R   0.577184 0.255866 0.313230 0.007296
C75   C     C_R   0.585629 0.290012 0.213023 0.009121
C76   C     C_R   0.516886 0.382762 0.243958 -0.138120
C77   C     C_R   0.512417 0.365727 0.293756 -0.145146
C78   C     C_3   0.764876 0.651604 0.772517 -0.101590
C79   C     C_R   0.598417 0.306983 0.163942 -0.133091
C80   C     C_R   0.675252 0.214216 0.134608 -0.006030
C81   C     C_R   0.712418 0.035471 0.350698 -0.127156
C82   C     C_R   0.714331 0.051890 0.301210 0.008931
C83   C     C_R   0.646343 0.162265 0.282192 0.064729
C84   C     C_R   0.781824 0.958830 0.270434 -0.131061
C85   C     C_R   0.783116 0.974915 0.220717 -0.131735
C86   C     C_R   0.718583 0.084729 0.201512 0.012112
C87   C     C_R   0.648987 0.178909 0.232148 0.064102
C88   C     C_R   0.728946 0.102874 0.152714 -0.135402
C89   C     C_1   0.723531 0.544002 0.892744 -0.015615
C90   C     C_R   0.639639 0.126585 0.381595 -0.001464
C91   C     C_R   0.048775 0.236604 0.949619 0.535727
C92   C     C_R   0.732097 0.512978 0.942923 0.558908
C93   C     C_R   0.721903 0.225737 0.950840 0.534992
C94   C     C_R   0.050409 0.243531 0.087696 0.549000
C95   C     C_R   0.707454 0.576737 0.085639 0.557874
C96   C     C_R   0.717761 0.234273 0.089162 0.547030
Cr1   Cr    Cr6+3 0.417550 0.169090 0.500530 1.020059
Cr2   Cr    Cr6+3 0.669180 0.913420 0.499920 1.021518
Cr3   Cr    Cr6+3 0.413260 0.917540 0.499520 1.021196
Cr4   Cr    Cr6+3 0.909170 0.177380 0.020380 1.011071
Cr5   Cr    Cr6+3 0.912710 0.429210 0.018220 1.028346
Cr6   Cr    Cr6+3 0.657170 0.432570 0.019030 1.007292
H1    H     H_    0.823519 0.677008 0.789930 0.104821
H2    H     H_    0.342735 0.099337 0.800898 0.101497
H3    H     H_    0.239420 0.284800 0.735252 0.103294
H4    H     H_    0.024974 0.363886 0.782598 0.107773
H5    H     H_    0.482182 0.347243 0.790111 0.105215
H6    H     H_    0.638915 0.347240 0.720458 0.099925
H7    H     H_    0.489591 0.158317 0.740396 0.102078
H8    H     H_    0.675355 0.007287 0.800270 0.102353
H9    H     H_    0.832177 0.007773 0.731061 0.106104
H10   H     H_    0.824724 0.196484 0.780627 0.099565
H11   H     H_    0.863115 0.599220 0.140181 0.126170
H12   H     H_    0.880907 0.519727 0.710819 0.105655
H13   H     H_    0.802050 0.696763 0.379610 0.114853
H14   H     H_    0.943370 0.616080 0.217603 0.098833
H15   H     H_    0.923178 0.643688 0.306003 0.104114
H16   H     H_    0.502951 0.705296 0.129220 0.124785
H17   H     H_    0.379275 0.777786 0.200114 0.107842
H18   H     H_    0.360943 0.798814 0.288452 0.110480
H19   H     H_    0.447219 0.782526 0.366308 0.135651
H20   H     H_    0.047587 0.087637 0.145116 0.138786
H21   H     H_    0.177865 0.019707 0.380179 0.111642
H22   H     H_    0.059880 0.992361 0.220308 0.109340
H23   H     H_    0.612587 0.827342 0.743626 0.101985
H24   H     H_    0.103349 0.970488 0.307307 0.106031
H25   H     H_    0.312446 0.317751 0.201310 0.129382
H26   H     H_    0.346331 0.301767 0.287726 0.121930
H27   H     H_    0.325411 0.237563 0.365401 0.137421
H28   H     H_    0.556276 0.393142 0.149785 0.130911
H29   H     H_    0.515745 0.307058 0.386781 0.114345
H30   H     H_    0.468001 0.468591 0.229764 0.111637
H31   H     H_    0.458818 0.438390 0.317041 0.108755
H32   H     H_    0.786680 0.031130 0.129749 0.124053
H33   H     H_    0.506086 0.721483 0.793008 0.105532
H34   H     H_    0.837104 0.902151 0.197519 0.107108
H35   H     H_    0.834354 0.873909 0.284921 0.113143
H36   H     H_    0.762847 0.949394 0.364594 0.133162
H37   H     H_    0.563180 0.564542 0.714188 0.101398
H38   H     H_    0.774899 0.413742 0.760803 0.097664
H39   H     H_    0.077874 0.045096 0.783109 0.103630
H40   H     H_    0.974727 0.230702 0.717226 0.100245
H41   H     H_    0.292560 0.965805 0.735590 0.105225
O1    O     O_R   0.301710 0.195650 0.554160 -0.505682
O2    O     O_R   0.658900 0.818120 0.449760 -0.502811
O3    O     O_R   0.503220 0.801620 0.445520 -0.523714
O4    O     O_R   0.319370 0.022040 0.450020 -0.501860
O5    O     O_3   0.499990 0.000010 0.499990 -0.246148
O6    O     O_R   0.818720 0.150820 0.967160 -0.505730
O7    O     O_R   0.006410 0.181720 0.970200 -0.497055
O8    O     O_R   0.027890 0.334070 0.964920 -0.512301
O9    O     O_R   0.809600 0.521790 0.967960 -0.492569
O10   O     O_R   0.635520 0.542770 0.964420 -0.506902
O11   O     O_R   0.665950 0.325030 0.970100 -0.513644
O12   O     O_R   0.522390 0.158990 0.550460 -0.493928
O13   O     O_R   0.816620 0.158530 0.074540 -0.520498
O14   O     O_R   0.004460 0.188870 0.069750 -0.505935
O15   O     O_R   0.025800 0.341780 0.072300 -0.499491
O16   O     O_R   0.807650 0.528950 0.067500 -0.497756
O17   O     O_R   0.633420 0.550490 0.071810 -0.518158
O18   O     O_R   0.664000 0.332180 0.069640 -0.501919
O19   O     O_3   0.826350 0.346390 0.019210 -0.260891
O20   O     O_R   0.694390 0.003530 0.554040 -0.506264
O21   O     O_R   0.657700 0.819660 0.549320 -0.493862
O22   O     O_R   0.501930 0.803280 0.552920 -0.506346
O23   O     O_R   0.318170 0.023580 0.549580 -0.493645
O24   O     O_R   0.303010 0.193990 0.446760 -0.522269
O25   O     O_R   0.523600 0.157450 0.450900 -0.504333
O26   O     O_R   0.695690 0.001860 0.446640 -0.521736
C97   C     C_R   0.220259 0.310130 0.120162 0.050385
C98   C     C_R   0.167673 0.429242 0.126388 -0.077864
C99   C     C_R   0.202422 0.491910 0.098030 -0.120007
C100  C     C_R   0.289619 0.436168 0.063397 -0.099361
C101  C     C_R   0.341811 0.317731 0.056898 -0.103900
C102  C     C_R   0.307105 0.254759 0.085096 -0.086330
H42   H     H_    0.100502 0.473000 0.153315 0.094601
H43   H     H_    0.162031 0.583607 0.103010 0.097409
H44   H     H_    0.316756 0.484724 0.041604 0.108390
H45   H     H_    0.409393 0.274701 0.030113 0.110459
H46   H     H_    0.348529 0.162948 0.080014 0.103453

loop_
_geom_bond_atom_site_label_1
_geom_bond_atom_site_label_2
_ccdc_geom_bond_type
C99   H43   S    
C66   C68   A    
Cr3   O5    S    
C73   H29   S    
C76   H30   S    
C73   C74   A    
C29   H10   S    
C93   O6    A    
C74   C83   A    
C98   C99   A    
C2    C12   S    
C49   C50   A    
Cr2   O20   S    
C7    C8    S    
C47   C49   A    
C100  C101  A    
C7    H33   S    
C11   C19   S    
C20   C21   S    
Cr2   O5    S    
C45   O2    A    
C28   C37   T    
C40   C52   A    
Cr5   O19   S    
C19   C21   S    
C67   H12   S    
C73   C90   A    
C5    C6    S    
C63   H27   S    
C86   C88   A    
C33   H8    S    
C49   H18   S    
C97   C98   A    
C65   C70   A    
C17   C20   S    
C96   O18   A    
C1    O12   A    
C18   C19   S    
C41   C42   A    
C69   C71   A    
C101  C102  A    
Cr2   O26   S    
Cr4   O14   S    
C40   C43   A    
C31   C32   S    
C16   C17   S    
C56   C72   S    
C74   C77   A    
C92   O9    A    
C1    C28   S    
C31   C33   S    
C46   H19   S    
C92   O10   A    
C13   H39   S    
C80   C96   S    
C45   C54   S    
Cr6   O11   S    
C55   C72   A    
C35   H7    S    
C16   H4    S    
Cr3   O23   S    
Cr4   O13   S    
C58   C61   A    
C15   C23   S    
C59   C60   A    
C94   O15   A    
C8    C78   S    
C61   C62   A    
C67   C78   S    
C77   H31   S    
C4    C7    S    
C34   O25   A    
C44   C53   A    
C5    H37   S    
C39   C42   A    
C97   C102  A    
C25   C29   S    
C81   H36   S    
C55   H21   S    
C50   H17   S    
C32   C35   S    
C38   C39   A    
C76   C77   A    
C21   H41   S    
C9    C89   T    
C12   O22   A    
C5    C7    S    
C53   H16   S    
C68   C69   A    
C57   C60   A    
C6    C8    S    
Cr4   O7    S    
C58   C59   A    
C85   C86   A    
C79   H28   S    
Cr5   O8    S    
C81   C82   A    
C51   C52   A    
C61   H20   S    
C51   C53   A    
C64   C66   A    
C75   C76   A    
C34   C90   S    
Cr1   O1    S    
C4    C78   S    
C29   C30   S    
C12   O21   A    
C23   O23   A    
C11   C16   S    
C26   C35   S    
C47   C48   A    
C38   C54   A    
Cr6   O19   S    
C83   C87   A    
C46   C54   A    
C50   C51   A    
C71   C97   S    
C13   C21   S    
C16   C18   S    
C32   C37   S    
C84   C85   A    
C89   C92   S    
Cr6   O10   S    
Cr5   O16   S    
C34   O26   A    
C81   C90   A    
C75   C87   A    
C15   C24   T    
Cr3   O3    S    
C84   H35   S    
C26   C30   S    
C94   O14   A    
C82   C84   A    
C55   C57   A    
C43   C44   A    
C27   C36   T    
Cr1   O5    S    
C95   O16   A    
C23   O1    A    
C27   C93   S    
C41   H14   S    
Cr6   O17   S    
C3    C4    S    
C2    C10   T    
C6    C67   S    
C99   C100  A    
C59   H22   S    
Cr3   O4    S    
C46   C47   A    
C40   C41   A    
C30   C33   S    
C78   H1    S    
C86   C87   A    
C58   C70   A    
C17   C22   S    
C57   C65   A    
C63   C64   A    
C3    C5    S    
C93   O11   A    
C26   H5    S    
Cr5   O15   S    
C91   O7    A    
Cr2   O21   S    
C42   H15   S    
C102  H46   S    
C20   H2    S    
Cr2   O2    S    
C30   C36   S    
Cr4   O6    S    
Cr1   O25   S    
C98   H42   S    
Cr5   O9    S    
C45   O3    A    
C13   C17   S    
C64   C65   A    
C14   C22   T    
C56   O4    A    
C62   C94   S    
C19   C24   S    
C25   C26   S    
C18   H3    S    
C88   H32   S    
C80   C88   A    
C44   C95   S    
Cr1   O24   S    
C43   H11   S    
C91   O8    A    
C38   H13   S    
C11   C13   S    
C96   O13   A    
C3    C67   S    
C100  H44   S    
C25   C32   S    
Cr6   O18   S    
C56   O24   A    
C60   H24   S    
C33   C35   S    
C66   H26   S    
C62   C71   A    
C18   C20   S    
Cr1   O12   S    
C69   C70   A    
C11   H40   S    
C14   C91   S    
C6    C10   S    
C85   H34   S    
C68   H25   S    
C79   C80   A    
C8    H23   S    
C48   C52   A    
C63   C72   A    
C1    O20   A    
C29   C31   S    
C82   C83   A    
C31   H9    S    
Cr4   O19   S    
C3    H38   S    
C4    C9    S    
C75   C79   A    
C101  H45   S    
C95   O17   A    
C25   H6    S    
C39   C48   A    
Cr3   O22   S    
