data_mof_unit_35886.cif
_audit_creation_date              2012-12-11T20:00:43-0500
_audit_creation_method            fapswitch 2.2
_symmetry_space_group_name_H-M    P1
_symmetry_Int_Tables_number       1
_space_group_crystal_system       triclinic
_cell_length_a                    8.229147
_cell_length_b                    16.322558
_cell_length_c                    27.097757
_cell_angle_alpha                 72.17281
_cell_angle_beta                  96.994179
_cell_angle_gamma                 96.163221
_cell_volume                      3429.76552748

loop_
_atom_site_label
_atom_site_type_symbol
_atom_type_description
_atom_site_fract_x
_atom_site_fract_y
_atom_site_fract_z
_atom_type_partial_charge
Ba1   Ba    Ba6+2 0.337820 0.939830 0.518500 1.642372
Ba2   Ba    Ba6+2 0.851970 0.060110 0.481480 1.642648
C1    C     C_3   0.021285 0.525285 0.618968 -0.103569
C2    C     C_R   0.463369 0.402577 0.190979 0.575005
C3    C     C_2   0.295693 0.285796 0.282378 -0.098161
C4    C     C_3   0.542134 0.641223 0.631337 0.346859
C5    C     C_3   0.280689 0.246898 0.339915 -0.056767
C6    C     C_1   0.472942 0.142421 0.340719 0.026915
C7    C     C_2   0.517174 0.190163 0.293866 -0.116637
C8    C     C_2   0.418918 0.264502 0.260710 0.201340
C9    C     C_R   0.518548 0.406809 0.103592 -0.083877
C10   C     C_R   0.505159 0.316010 0.119643 -0.073602
C11   C     C_R   0.514033 0.273200 0.082610 -0.030296
C12   C     C_3   0.049138 0.623315 0.604780 0.450726
C13   C     C_R   0.496641 0.450127 0.139617 -0.016102
C14   C     C_2   0.347909 0.159635 0.361324 -0.273266
C15   C     C_2   0.840115 0.839243 0.638055 -0.285027
C16   C     C_3   0.525435 0.566792 0.680854 -0.320169
C17   C     C_R   0.631444 0.459241 0.965967 0.018709
C18   C     C_R   0.582197 0.593967 0.982658 0.020094
C19   C     C_R   0.625279 0.550499 0.948722 0.053596
C20   C     C_R   0.702409 0.421453 0.934140 -0.115250
C21   C     C_R   0.741435 0.468644 0.884228 -0.058546
C22   C     C_R   0.719793 0.557232 0.864671 -0.022926
C23   C     C_3   0.081196 0.015288 0.646939 0.293875
C24   C     C_R   0.665818 0.598892 0.897338 -0.080423
C25   C     C_R   0.654471 0.688903 0.878923 -0.036254
C26   C     C_R   0.695347 0.735823 0.827929 0.597497
C27   C     C_R   0.755402 0.604924 0.813559 0.574463
C28   C     C_3   0.595843 0.884719 0.391261 0.302721
C29   C     C_2   0.911975 0.724995 0.721560 -0.094588
C30   C     C_3   0.918298 0.755773 0.663396 -0.037438
C31   C     C_1   0.717168 0.857655 0.659098 0.035270
C32   C     C_2   0.674928 0.811468 0.706473 -0.102931
C33   C     C_2   0.781617 0.742570 0.741840 0.191335
C34   C     C_3   0.085308 0.976681 0.705723 -0.355855
C35   C     C_R   0.576550 0.409915 0.015508 -0.000213
C36   C     C_R   0.551480 0.454428 0.051363 0.031376
C37   C     C_R   0.556557 0.546300 0.035305 0.027169
C38   C     C_R   0.541725 0.318061 0.030995 0.120655
C39   C     C_R   0.507690 0.540566 0.123668 -0.060669
C40   C     C_3   0.558367 0.810970 0.367309 -0.383393
C41   C     C_R   0.568290 0.684173 0.962682 -0.101320
C42   C     C_R   0.603387 0.730305 0.912073 -0.058803
C43   C     C_R   0.536925 0.587547 0.072862 -0.101137
C44   C     C_2   0.403335 0.245059 0.512764 -0.293924
C45   C     C_3   0.659470 0.359937 0.367981 0.336161
C46   C     C_R   0.803097 0.759533 0.492116 -0.296085
C47   C     C_2   0.261091 0.310095 0.564380 -0.131627
C48   C     C_2   0.271914 0.244238 0.545459 0.045567
C49   C     C_2   0.511810 0.313268 0.499336 0.008634
C50   C     C_3   0.471917 0.397432 0.505786 -0.050118
C51   C     C_3   0.388833 0.384671 0.555500 0.012246
C52   C     C_3   0.601459 0.115241 0.609885 0.312122
C53   C     C_2   0.611668 0.464399 0.501995 -0.069775
C54   C     C_2   0.577686 0.546629 0.489959 -0.076190
C55   C     C_R   0.845488 0.616210 0.460780 -0.010748
C56   C     C_3   0.689136 0.433167 0.318672 -0.299141
C57   C     C_R   0.706638 0.617127 0.485780 -0.041521
C58   C     C_R   0.958962 0.687525 0.449841 -0.135963
C59   C     C_R   0.934962 0.760358 0.464151 0.085361
C60   C     C_R   0.685121 0.689630 0.501414 0.000514
C61   C     C_3   0.646379 0.188372 0.634048 -0.373570
C62   C     C_3   0.094758 0.982809 0.349733 0.307537
C63   C     C_3   0.040341 0.010834 0.290828 0.089394
C64   C     C_3   0.139509 0.378703 0.396023 0.351363
C65   C     C_3   0.127838 0.473891 0.389531 -0.369362
C66   C     C_R   0.473783 0.269639 0.171685 0.610779
H1    H     H_    0.103437 0.648573 0.566920 0.061217
H2    H     H_    0.230606 0.986027 0.356077 -0.029733
H3    H     H_    0.046490 0.026088 0.368273 0.063217
H4    H     H_    0.069131 0.960218 0.274063 0.104713
H5    H     H_    0.925867 0.648337 0.599909 -0.147900
H6    H     H_    0.922395 0.507526 0.591348 0.032246
H7    H     H_    0.951658 0.015029 0.630069 0.015328
H8    H     H_    0.149859 0.974577 0.631793 0.068453
H9    H     H_    0.012268 0.014158 0.721863 0.136025
H10   H     H_    0.032865 0.908787 0.715689 0.069276
H11   H     H_    0.214014 0.977919 0.723622 0.134103
H12   H     H_    0.629210 0.822952 0.333122 0.116024
H13   H     H_    0.980502 0.499804 0.658859 0.114109
H14   H     H_    0.564597 0.590387 0.714934 0.115641
H15   H     H_    0.720060 0.303149 0.366567 0.097361
H16   H     H_    0.525572 0.343826 0.369171 -0.047564
H17   H     H_    0.812231 0.466993 0.322232 0.141396
H18   H     H_    0.684054 0.406493 0.285478 0.121122
H19   H     H_    0.595036 0.480606 0.310995 0.126784
H20   H     H_    0.269557 0.369673 0.392974 -0.055250
H21   H     H_    0.104836 0.340949 0.435462 0.070713
H22   H     H_    0.217560 0.494307 0.418385 0.068448
H23   H     H_    0.591955 0.749272 0.396025 0.063306
H24   H     H_    0.002978 0.485495 0.396091 0.149390
H25   H     H_    0.480533 0.696176 0.634974 0.088859
H26   H     H_    0.155878 0.513266 0.349742 0.121193
H27   H     H_    0.622226 0.174378 0.278834 0.139538
H28   H     H_    0.491022 0.203636 0.092993 0.135658
H29   H     H_    0.791696 0.435341 0.861216 0.122708
H30   H     H_    0.735513 0.355800 0.947832 0.079416
H31   H     H_    0.217172 0.336385 0.260138 0.121442
H32   H     H_    0.493644 0.575932 0.150645 0.120366
H33   H     H_    0.527174 0.721148 0.984977 0.071104
H34   H     H_    0.425135 0.805185 0.354701 0.127535
H35   H     H_    0.674578 0.659839 0.627548 -0.050170
H36   H     H_    0.590851 0.799233 0.899045 0.122922
H37   H     H_    0.562735 0.823101 0.719675 0.137305
H38   H     H_    0.547317 0.656699 0.064553 0.069589
H39   H     H_    0.303192 0.115435 0.396657 0.071946
H40   H     H_    0.866902 0.874960 0.598643 0.079286
H41   H     H_    0.169257 0.306053 0.590726 0.070988
H42   H     H_    0.060765 0.687331 0.428105 0.097674
H43   H     H_    0.419830 0.186162 0.503911 0.066599
H44   H     H_    0.785571 0.816222 0.503011 0.071474
H45   H     H_    0.468659 0.112011 0.598171 -0.007157
H46   H     H_    0.737474 0.446524 0.512137 0.100597
H47   H     H_    0.395855 0.540478 0.683579 0.172598
H48   H     H_    0.450194 0.561948 0.483333 0.102956
H49   H     H_    0.602895 0.514698 0.681536 0.115819
H50   H     H_    0.728572 0.890592 0.403036 0.004320
H51   H     H_    0.525682 0.870000 0.425804 0.071209
H52   H     H_    0.150885 0.420220 0.631606 0.172207
H53   H     H_    0.192036 0.500636 0.577812 0.198684
H54   H     H_    0.252508 0.083287 0.268225 0.182358
H55   H     H_    0.107636 0.138897 0.280765 0.189614
H56   H     H_    0.671065 0.128389 0.575374 0.072282
H57   H     H_    0.831339 0.041812 0.241865 0.202156
H58   H     H_    0.802726 0.958999 0.295130 0.191675
H59   H     H_    0.998549 0.679648 0.745166 0.122390
H60   H     H_    0.608776 0.239149 0.992463 0.176214
H61   H     H_    0.457715 0.306909 0.958209 0.188823
H62   H     H_    0.571699 0.179580 0.667033 0.127239
H63   H     H_    0.623418 0.251312 0.604785 0.061053
H64   H     H_    0.778659 0.189145 0.648466 0.127488
N1    N     N_R   0.454345 0.312791 0.207201 -0.418567
N2    N     N_R   0.743551 0.693929 0.795163 -0.421111
N3    N     N_3   0.171676 0.487179 0.616956 -0.461453
N4    N     N_3   0.127024 0.091910 0.263750 -0.481033
N5    N     N_3   0.863432 0.020198 0.282040 -0.446084
N6    N     N_3   0.504944 0.269057 0.994627 -0.506813
O1    O     O_2   0.431310 0.922990 0.623550 -0.460935
O2    O     O_2   0.849645 0.305944 0.504042 -0.486626
O3    O     O_3   0.725052 0.386355 0.411322 -0.604372
O4    O     O_3   0.663280 0.983100 0.563360 -0.499763
O5    O     O_3   0.016420 0.932050 0.462720 -0.490520
O6    O     O_2   0.959730 0.164640 0.549160 -0.456830
O7    O     O_3   0.153194 0.099994 0.635388 -0.639379
O8    O     O_2   0.930552 0.216076 0.327418 -0.493252
O9    O     O_3   0.033056 0.353727 0.357445 -0.598959
O10   O     O_2   0.460477 0.190810 0.184908 -0.597261
O11   O     O_2   0.795372 0.566399 0.785275 -0.619714
O12   O     O_3   0.033282 0.897165 0.369732 -0.658257
O13   O     O_2   0.442356 0.441710 0.221270 -0.625764
O14   O     O_2   0.690508 0.814214 0.813197 -0.597254
O15   O     O_3   0.126250 0.812630 0.574830 -0.481164
O16   O     O_2   0.268249 0.784962 0.672211 -0.500070
O17   O     O_3   0.639417 0.037789 0.647253 -0.624937
O18   O     O_3   0.155518 0.647207 0.643872 -0.595894
O19   O     O_2   0.229950 0.835370 0.450810 -0.461341
O20   O     O_3   0.517580 0.797570 0.545130 -0.495381
O21   O     O_2   0.344689 0.694792 0.495035 -0.497354
O22   O     O_3   0.468358 0.615206 0.588548 -0.585158
O23   O     O_2   0.758370 0.077020 0.376420 -0.447522
O24   O     O_3   0.526390 0.016840 0.436620 -0.497667
O25   O     O_3   0.063420 0.187310 0.425160 -0.471205
O26   O     O_3   0.551339 0.961004 0.353708 -0.627992
O27   O     O_3   0.173250 0.067890 0.537260 -0.481024
O28   O     O_3   0.672100 0.202370 0.454860 -0.493717
P1    P     P_3+3 0.610630 0.953360 0.619150 0.990887
P2    P     P_3+3 0.057260 0.861390 0.437850 0.982239
P3    P     P_3+3 0.502490 0.699095 0.531679 0.941427
P4    P     P_3+3 0.579040 0.046590 0.380840 0.997896
P5    P     P_3+3 0.690602 0.301852 0.467830 0.942113
P6    P     P_3+3 0.120614 0.752892 0.640071 0.952599
P7    P     P_3+3 0.142987 0.144848 0.567697 0.951348
P8    P     P_3+3 0.073929 0.249184 0.360653 0.942423

loop_
_geom_bond_atom_site_label_1
_geom_bond_atom_site_label_2
_ccdc_geom_bond_type
C53   C54   D    
C5    P8    S    
H58   N5    S    
C40   H12   S    
C20   H30   S    
Ba2   O6    S    
Ba1   Ba2   S    
O26   P4    S    
C8    N1    S    
C29   H59   S    
C19   C24   A    
C56   H19   S    
Ba2   O24   S    
C42   H36   S    
O9    P8    S    
C50   C51   S    
Ba2   O27   S    
C10   C11   A    
C10   C66   A    
C24   C25   A    
C48   P7    S    
C26   N2    Am   
C66   N1    Am   
C17   C19   A    
C22   C24   A    
C40   H23   S    
C35   C38   A    
C34   H9    S    
C64   H20   S    
C36   C37   A    
C55   C57   A    
C28   H51   S    
Ba1   P1    S    
O27   P7    S    
C52   H45   S    
C40   H34   S    
O3    P5    S    
Ba2   O23   S    
C45   H16   S    
C32   C33   S    
C61   H62   S    
C2    O13   D    
C1    H6    S    
H60   N6    S    
C22   C27   A    
C11   C38   A    
C52   H56   S    
Ba1   O4    S    
C17   C35   A    
C14   H39   S    
O4    P1    S    
C9    C13   A    
C25   C42   A    
H61   N6    S    
C3    H31   S    
O17   P1    S    
C6    C7    D    
C38   N6    S    
O6    P7    D    
C1    H13   S    
C65   H26   S    
C21   C22   A    
C28   O26   S    
C7    C8    S    
Ba2   O28   S    
C12   O18   S    
C66   O10   D    
C50   C53   S    
C37   C43   A    
C63   N5    S    
C27   N2    Am   
C30   P6    S    
O28   P5    S    
C6    C14   D    
C44   H43   S    
Ba2   O5    S    
C31   P1    S    
C15   C31   D    
C56   H18   S    
O19   P2    D    
C6    P4    S    
C44   C48   S    
C64   H21   S    
C4    C16   S    
C11   H28   S    
C62   H3    S    
C49   C50   S    
C12   H5    S    
C17   C20   A    
C13   C39   A    
C15   H40   S    
C52   O17   S    
C3    C5    S    
C18   C37   A    
C55   C58   A    
C28   H50   S    
Ba1   P2    S    
H57   N5    S    
C61   H64   S    
C44   C49   D    
O18   P6    S    
C65   H22   S    
C62   O12   S    
C58   C59   A    
C23   H7    S    
C16   H47   S    
C9    C36   A    
Ba1   O15   S    
C41   C42   A    
C41   H33   S    
C35   C36   A    
Ba1   O5    S    
C46   C60   A    
C29   C30   S    
O24   P4    S    
C33   N2    S    
O22   P3    S    
C4    H25   S    
O12   P2    S    
C31   C32   D    
C54   H48   S    
C39   H32   S    
O16   P6    D    
C4    H35   S    
H53   N3    S    
O1    P1    D    
C16   H49   S    
H54   N4    S    
C64   O9    S    
C1    C12   S    
C61   H63   S    
Ba2   P4    S    
O23   P4    D    
C5    C14   S    
C21   H29   S    
O7    P7    S    
Ba1   O24   S    
C26   O14   D    
O2    P5    D    
C62   H2    S    
Ba2   O4    S    
C12   H1    S    
C29   C33   D    
C56   H17   S    
C18   C41   A    
C43   H38   S    
C47   H41   S    
C60   P3    S    
C7    H27   S    
Ba1   O20   S    
C57   C60   A    
O21   P3    D    
C46   H44   S    
Ba1   O27   S    
C32   H37   S    
C34   H11   S    
Ba1   O1    S    
Ba2   O25   S    
C4    O22   S    
C9    C10   A    
O20   P3    S    
C53   H46   S    
C63   H4    S    
C45   O3    S    
C54   C57   S    
H55   N4    S    
H52   N3    S    
C62   C63   S    
C23   H8    S    
C2    C13   A    
Ba1   O19   S    
C3    C8    D    
C34   H10   S    
C45   C56   S    
C46   C59   A    
C47   C51   S    
O8    P8    D    
O15   P6    S    
C49   P5    S    
C65   H24   S    
C16   H14   S    
C64   C65   S    
C1    N3    S    
O5    P2    S    
C63   N4    S    
C58   H42   S    
C23   C34   S    
C27   O11   D    
C45   H15   S    
C18   C19   A    
C59   P2    S    
C47   C48   D    
C52   C61   S    
C25   C26   A    
C15   C30   S    
C39   C43   A    
C20   C21   A    
C28   C40   S    
C23   O7    S    
O25   P8    S    
C2    N1    Am   
