data_mof_unit_45350.cif
_audit_creation_date              2012-12-10T20:32:00-0500
_audit_creation_method            fapswitch 2.2
_symmetry_space_group_name_H-M    P1
_symmetry_Int_Tables_number       1
_space_group_crystal_system       triclinic
_cell_length_a                    9.984502
_cell_length_b                    10.711082
_cell_length_c                    15.657466
_cell_angle_alpha                 90.087746
_cell_angle_beta                  68.062519
_cell_angle_gamma                 88.708954
_cell_volume                      1552.75520854

loop_
_atom_site_label
_atom_site_type_symbol
_atom_type_description
_atom_site_fract_x
_atom_site_fract_y
_atom_site_fract_z
_atom_type_partial_charge
C1    C     C_R   0.497590 0.739180 0.502064 0.904554
C2    C     C_R   0.715470 0.546992 0.033266 0.123170
C3    C     C_R   0.581533 0.493090 0.087233 0.048895
C4    C     C_R   0.411197 0.490334 0.674820 0.837067
C5    C     C_R   0.817777 0.568684 0.073309 -0.256730
C6    C     C_R   0.787235 0.547051 0.166667 0.152841
C7    C     C_R   0.546118 0.486823 0.181926 -0.287351
C8    C     C_R   0.383762 0.942469 0.558452 0.071166
C9    C     C_R   0.498242 0.870745 0.500040 -0.174638
C10   C     C_R   0.620471 0.930644 0.439353 -0.240836
C11   C     C_R   0.623229 0.060371 0.434981 0.447378
C12   C     C_R   0.419828 0.453853 0.910248 0.054214
C13   C     C_R   0.504835 0.130033 0.497635 -0.251207
C14   C     C_R   0.389104 0.067329 0.558851 0.104288
C15   C     C_3   0.243821 0.084245 0.634119 0.529873
C16   C     C_R   0.501439 0.261193 0.499583 0.849096
C17   C     C_3   0.239605 0.939995 0.635791 -0.523553
C18   C     C_R   0.888513 0.555882 0.570525 -0.028661
C19   C     C_R   0.967470 0.432470 0.436573 0.433620
C20   C     C_R   0.109470 0.432551 0.436402 0.480586
C21   C     C_R   0.030519 0.556241 0.568954 -0.030064
C22   C     C_3   0.022722 0.688843 0.596376 0.281944
C23   C     C_R   0.276070 0.426706 0.963786 0.049739
C24   C     C_3   0.861993 0.687112 0.612578 -0.146904
C25   C     C_R   0.591031 0.502449 0.324299 0.851860
C26   C     C_R   0.363307 0.461673 0.773525 -0.083082
C27   C     C_R   0.646034 0.510379 0.222880 -0.085976
C28   C     C_R   0.173719 0.424236 0.922120 -0.193904
C29   C     C_R   0.216016 0.451253 0.828295 -0.263093
C30   C     C_R   0.466810 0.439603 0.814541 0.124301
C31   C     C_3   0.242312 0.153081 0.721385 -0.396435
C32   C     C_3   0.320024 0.084857 0.776014 -0.947580
C33   C     C_3   0.804490 0.794595 0.569854 -0.255696
C34   C     C_R   0.513984 0.489071 0.953707 -0.019762
C35   C     C_3   0.836704 0.924089 0.598173 -0.859498
C36   C     C_3   0.905606 0.572701 0.202410 -0.391930
C37   C     C_3   0.883197 0.699879 0.250063 -0.788212
C38   C     C_3   0.871516 0.655600 0.883018 -0.447466
C39   C     C_3   0.856343 0.793724 0.909853 -0.839398
C40   C     C_3   0.619815 0.384063 0.762544 -0.391109
C41   C     C_3   0.621777 0.261150 0.712470 -0.805114
C42   C     C_R   0.481511 0.457977 0.046494 -0.072754
C43   C     C_R   0.348979 0.394476 0.093353 0.431395
C44   C     C_R   0.241928 0.394203 0.055590 -0.233704
C45   C     C_R   0.635771 0.560014 0.906074 -0.262264
C46   C     C_R   0.740311 0.584014 0.942272 0.169457
H1    H     H_    0.137051 0.356689 0.094943 0.183788
H2    H     H_    0.135292 0.457035 0.797598 0.158831
H3    H     H_    0.650137 0.596965 0.839010 0.142873
H4    H     H_    0.708607 0.196038 0.352021 0.326970
H5    H     H_    0.254061 0.007335 0.815823 0.262950
H6    H     H_    0.427258 0.047596 0.729613 0.260743
H7    H     H_    0.334509 0.150813 0.826483 0.283952
H8    H     H_    0.292125 0.244888 0.699978 0.210058
H9    H     H_    0.128616 0.171607 0.768414 0.207018
H10   H     H_    0.047452 0.122223 0.644839 0.317886
H11   H     H_    0.841268 0.353830 0.387083 0.378160
H12   H     H_    0.921799 0.605967 0.033138 0.155473
H13   H     H_    0.288895 0.338533 0.390180 0.378027
H14   H     H_    0.088416 0.737840 0.465065 0.343925
H15   H     H_    0.814466 0.927946 0.673177 0.238548
H16   H     H_    0.950129 0.949345 0.559154 0.314746
H17   H     H_    0.766462 0.995377 0.582851 0.252768
H18   H     H_    0.844883 0.786108 0.493642 0.224322
H19   H     H_    0.685460 0.790211 0.600488 0.222443
H20   H     H_    0.896105 0.775300 0.199174 0.256745
H21   H     H_    0.773674 0.708390 0.303853 0.257900
H22   H     H_    0.963982 0.711492 0.282454 0.245528
H23   H     H_    0.712322 0.877479 0.393568 0.176429
H24   H     H_    0.914150 0.497144 0.248135 0.262495
H25   H     H_    0.012765 0.572575 0.144950 0.199661
H26   H     H_    0.759340 0.835922 0.901518 0.261214
H27   H     H_    0.846637 0.806165 0.982340 0.266783
H28   H     H_    0.953130 0.843411 0.864416 0.241017
H29   H     H_    0.972039 0.614838 0.886437 0.203164
H30   H     H_    0.885723 0.648307 0.809457 0.184244
H31   H     H_    0.590299 0.184252 0.762951 0.239618
H32   H     H_    0.548247 0.264398 0.674432 0.269947
H33   H     H_    0.732990 0.239938 0.662672 0.251490
H34   H     H_    0.245974 0.893485 0.697349 0.172064
H35   H     H_    0.690444 0.452573 0.715411 0.223812
H36   H     H_    0.674892 0.360209 0.810408 0.200556
H37   H     H_    0.418146 0.283587 0.165044 0.333375
H38   H     H_    0.152681 0.906127 0.615726 0.258510
H39   H     H_    0.046856 0.704000 0.659234 0.097974
H40   H     H_    0.436171 0.469891 0.225672 0.243863
H41   H     H_    0.795763 0.681728 0.687449 0.108396
H42   H     H_    0.061727 0.405085 0.962147 0.146535
N1    N     N_R   0.856900 0.500860 0.500610 -0.188655
N2    N     N_R   0.142540 0.500820 0.500610 -0.178888
O1    O     O_R   0.385310 0.683210 0.499990 -0.539297
O2    O     O_3   0.145570 0.138413 0.599210 -0.743090
O3    O     O_3   0.945472 0.359273 0.371141 -0.700539
O4    O     O_3   0.211635 0.362144 0.368728 -0.672963
O5    O     O_3   0.106786 0.761650 0.521019 -0.732038
O6    O     O_3   0.324329 0.322546 0.170243 -0.698678
O7    O     O_R   0.614650 0.683240 0.500000 -0.655751
O8    O     O_R   0.319830 0.499970 0.632240 -0.619047
O9    O     O_R   0.549170 0.500000 0.632250 -0.600985
O10   O     O_R   0.385350 0.316760 0.500000 -0.599629
O11   O     O_R   0.614690 0.316790 0.500010 -0.632553
O12   O     O_R   0.450830 0.500000 0.367750 -0.619793
O13   O     O_R   0.680170 0.500030 0.367760 -0.637451
O14   O     O_3   0.739566 0.113628 0.367611 -0.724937
Zn1   Zn    Zn3+2 0.346870 0.499980 0.499990 0.987696
Zn2   Zn    Zn3+2 0.653130 0.500020 0.500010 0.923273

loop_
_geom_bond_atom_site_label_1
_geom_bond_atom_site_label_2
_ccdc_geom_bond_type
C3    C42   A    
H4    O14   S    
C4    O8    A    
C18   C21   A    
C22   O5    S    
O1    Zn1   S    
C19   C20   A    
C34   C42   A    
C33   H19   S    
C38   H30   S    
C45   C46   A    
C2    C46   A    
C12   C23   A    
O10   Zn1   S    
O8    Zn1   S    
C5    H12   S    
C18   C24   S    
C36   C37   S    
C3    C7    A    
C41   H31   S    
C38   C39   S    
C25   O12   A    
C39   H28   S    
C7    H40   S    
C37   H22   S    
C7    C27   A    
O12   Zn1   S    
C22   H39   S    
C32   H6    S    
C15   O2    S    
C31   C32   S    
C8    C9    A    
N1    Zn2   S    
C28   H42   S    
C39   H26   S    
C11   O14   S    
H13   O4    S    
C35   H16   S    
C9    C10   A    
C19   O3    S    
C36   H25   S    
C21   N2    A    
C1    O1    A    
H11   O3    S    
C21   C22   S    
C36   H24   S    
C38   H29   S    
C29   H2    S    
C40   H36   S    
C1    C9    S    
C1    O7    A    
C41   H32   S    
C25   O13   A    
C20   N2    A    
C17   H34   S    
C23   C44   A    
C43   C44   A    
C10   H23   S    
C32   H5    S    
C19   N1    A    
C6    C27   A    
C45   H3    S    
C37   H20   S    
C43   O6    S    
C30   C40   S    
C35   H15   S    
C34   C45   A    
C23   C28   A    
O7    Zn2   S    
C40   C41   S    
C26   C30   A    
C22   C24   S    
C13   C16   S    
C2    C5    A    
C42   C43   A    
C12   C34   A    
C32   H7    S    
O11   Zn2   S    
C15   C17   S    
O9    Zn2   S    
C20   O4    S    
C28   C29   A    
C8    C14   A    
C12   C30   A    
C18   N1    A    
C40   H35   S    
C16   O10   A    
C24   C33   S    
N2    Zn1   S    
C41   H33   S    
C4    C26   S    
C44   H1    S    
C15   C31   S    
C25   C27   S    
C8    C17   S    
C17   H38   S    
C2    C3    A    
C11   C13   A    
C5    C6    A    
C33   H18   S    
H37   O6    S    
C37   H21   S    
C33   C35   S    
C6    C36   S    
O13   Zn2   S    
C39   H27   S    
C31   H8    S    
C24   H41   S    
C38   C46   S    
C10   C11   A    
H14   O5    S    
C16   O11   A    
H10   O2    S    
C26   C29   A    
C4    O9    A    
C14   C15   S    
C35   H17   S    
C31   H9    S    
C13   C14   A    
