data_mof_unit_24111.cif
_audit_creation_date              2012-10-26T19:51:31-0400
_audit_creation_method            fapswitch 2.2
_symmetry_space_group_name_H-M    P1
_symmetry_Int_Tables_number       1
_space_group_crystal_system       triclinic
_cell_length_a                    19.413955
_cell_length_b                    18.16559
_cell_length_c                    9.084341
_cell_angle_alpha                 90.002514
_cell_angle_beta                  90.18981
_cell_angle_gamma                 90.001428
_cell_volume                      3203.72013578

loop_
_atom_site_label
_atom_site_type_symbol
_atom_type_description
_atom_site_fract_x
_atom_site_fract_y
_atom_site_fract_z
_atom_type_partial_charge
C1    C     C_R   0.367443 0.499998 0.499733 0.555536
C2    C     C_R   0.454082 0.201722 0.410459 -0.128304
C3    C     C_R   0.499979 0.838441 0.500020 0.016355
C4    C     C_R   0.499976 0.161558 0.500025 0.018550
C5    C     C_R   0.512424 0.961323 0.630286 -0.096115
C6    C     C_R   0.487514 0.038676 0.369767 -0.095145
C7    C     C_R   0.487515 0.961317 0.369765 -0.094812
C8    C     C_R   0.512422 0.038682 0.630288 -0.095496
C9    C     C_R   0.499969 0.078712 0.500027 0.037528
C10   C     C_R   0.499971 0.921287 0.500024 0.037162
C11   C     C_R   0.499965 0.499999 0.220425 0.562762
C12   C     C_R   0.632563 0.500001 0.500252 0.556473
C13   C     C_R   0.500033 0.500001 0.779575 0.562641
C14   C     C_1   0.499986 0.499999 0.065480 -0.043950
C15   C     C_1   0.500012 0.500001 0.934520 -0.044027
C16   C     C_R   0.744629 0.433343 0.499648 -0.111451
C17   C     C_R   0.255394 0.566476 0.489423 -0.129943
C18   C     C_R   0.255410 0.433496 0.508510 -0.130546
C19   C     C_R   0.744627 0.566670 0.502107 -0.111335
C20   C     C_R   0.816545 0.432581 0.499751 0.216694
C21   C     C_R   0.183478 0.567270 0.489619 0.183242
C22   C     C_R   0.183495 0.432697 0.507849 0.182373
C23   C     C_R   0.454939 0.720964 0.412153 0.058930
C24   C     C_R   0.816543 0.567440 0.502216 0.216750
C25   C     C_R   0.852842 0.500014 0.500881 -0.030517
C26   C     C_R   0.147185 0.499987 0.498784 -0.018171
C27   C     C_R   0.708328 0.500005 0.500660 -0.086022
C28   C     C_R   0.291691 0.499992 0.499248 -0.066706
C29   C     C_R   0.964588 0.499575 0.633791 0.000335
C30   C     C_R   0.035440 0.500496 0.365851 -0.002938
C31   C     C_R   0.036283 0.499533 0.633254 -0.003154
C32   C     C_R   0.963742 0.500469 0.366393 0.000170
C33   C     C_R   0.071749 0.500006 0.499286 0.090660
C34   C     C_R   0.545042 0.279028 0.587875 0.064010
C35   C     C_R   0.928280 0.500021 0.500362 0.091911
C36   C     C_R   0.545047 0.720978 0.587865 0.063135
C37   C     C_R   0.454941 0.279030 0.412148 0.059740
C38   C     C_R   0.454081 0.798271 0.410461 -0.129380
C39   C     C_R   0.545878 0.201720 0.589586 -0.126686
C40   C     C_R   0.545885 0.798286 0.589574 -0.127207
Cu1   Cu    Cu3+1 0.500000 0.573360 0.500000 0.964495
Cu2   Cu    Cu3+1 0.500000 0.426640 0.500000 0.966010
H1    H     H_    0.716776 0.381739 0.498642 0.193814
H2    H     H_    0.580693 0.309228 0.656888 0.134712
H3    H     H_    0.580702 0.690782 0.656870 0.134927
H4    H     H_    0.419291 0.309231 0.343141 0.127713
H5    H     H_    0.417002 0.826242 0.341014 0.115165
H6    H     H_    0.582946 0.173743 0.659052 0.112210
H7    H     H_    0.582955 0.826268 0.659033 0.112597
H8    H     H_    0.417003 0.173747 0.341007 0.109506
H9    H     H_    0.521036 0.932866 0.733403 0.110595
H10   H     H_    0.478903 0.067133 0.266649 0.111139
H11   H     H_    0.478904 0.932856 0.266647 0.111343
H12   H     H_    0.283261 0.617903 0.481301 0.167648
H13   H     H_    0.521034 0.067143 0.733406 0.111031
H14   H     H_    0.831016 0.231560 0.498158 0.391106
H15   H     H_    0.211861 0.725492 0.589424 0.347622
H16   H     H_    0.211683 0.274971 0.406501 0.343543
H17   H     H_    0.831008 0.768458 0.505636 0.391080
H18   H     H_    0.283286 0.382063 0.516666 0.170164
H19   H     H_    0.716773 0.618270 0.503155 0.193641
H20   H     H_    0.937314 0.499254 0.737614 0.145087
H21   H     H_    0.062712 0.500757 0.262024 0.142724
H22   H     H_    0.064208 0.499261 0.736675 0.142679
H23   H     H_    0.935809 0.500794 0.262980 0.145129
H24   H     H_    0.419287 0.690757 0.343151 0.133967
N1    N     N_R   0.500000 0.683620 0.500000 -0.226584
N2    N     N_R   0.500000 0.316380 0.500000 -0.224979
O1    O     O_R   0.400190 0.561980 0.499980 -0.506925
O2    O     O_2   0.905156 0.340707 0.631801 -0.226739
O3    O     O_3   0.802600 0.276846 0.499106 -0.524769
O4    O     O_2   0.102028 0.657030 0.333780 -0.197761
O5    O     O_2   0.089636 0.660516 0.601207 -0.227595
O6    O     O_3   0.196690 0.723468 0.485269 -0.485198
O7    O     O_2   0.102700 0.342585 0.663280 -0.196207
O8    O     O_2   0.089149 0.339725 0.395895 -0.228816
O9    O     O_3   0.196695 0.276499 0.510601 -0.481542
O10   O     O_2   0.903940 0.658538 0.639758 -0.229641
O11   O     O_2   0.904465 0.659601 0.370128 -0.224860
O12   O     O_R   0.599810 0.438020 0.500020 -0.504332
O13   O     O_3   0.802591 0.723171 0.504333 -0.524781
O14   O     O_R   0.599810 0.561980 0.500020 -0.503989
O15   O     O_R   0.400190 0.438020 0.499980 -0.506333
O16   O     O_R   0.500000 0.561940 0.288400 -0.495315
O17   O     O_R   0.500000 0.438060 0.711600 -0.495811
O18   O     O_R   0.500000 0.561940 0.711600 -0.497017
O19   O     O_R   0.500000 0.438060 0.288400 -0.495819
O20   O     O_2   0.903242 0.341209 0.362176 -0.227775
S1    S     S_3+6 0.859646 0.346551 0.498159 0.044678
S2    S     S_3+6 0.140392 0.653152 0.477471 0.054855
S3    S     S_3+6 0.140440 0.346797 0.519410 0.055872
S4    S     S_3+6 0.859645 0.653473 0.504144 0.044688

loop_
_geom_bond_atom_site_label_1
_geom_bond_atom_site_label_2
_ccdc_geom_bond_type
C7    C10   A    
C21   C26   A    
Cu2   O12   S    
Cu1   Cu2   S    
C6    C9    A    
C36   N1    A    
Cu1   N1    S    
Cu1   O18   S    
C23   H24   S    
O5    S2    D    
C11   C14   S    
C20   C25   A    
C40   H7    S    
C37   N2    A    
C23   N1    A    
C2    H8    S    
H16   O9    S    
O13   S4    S    
C3    C38   A    
C11   O19   A    
C8    C9    A    
C13   O18   A    
C1    C28   S    
C22   S3    S    
C31   C33   A    
C19   C27   A    
O7    S3    D    
C16   C27   A    
C32   H23   S    
C30   H21   S    
Cu2   N2    S    
C24   S4    S    
C8    H13   S    
C21   S2    S    
C12   C27   S    
C34   C39   A    
C32   C35   A    
C36   C40   A    
C18   C28   A    
C24   C25   A    
C34   N2    A    
O10   S4    D    
Cu1   O16   S    
C17   C21   A    
H15   O6    S    
C2    C4    A    
O4    S2    D    
C26   C33   S    
O3    S1    S    
C4    C39   A    
C16   C20   A    
H14   O3    S    
O11   S4    D    
C12   O14   A    
C36   H3    S    
Cu2   O17   S    
C16   H1    S    
C38   H5    S    
C25   C35   S    
C18   H18   S    
C3    C40   A    
C13   C15   S    
O2    S1    D    
C7    H11   S    
Cu1   O1    S    
C34   H2    S    
C29   H20   S    
O9    S3    S    
C30   C33   A    
C18   C22   A    
C17   C28   A    
C31   H22   S    
Cu2   O15   S    
H17   O13   S    
C5    C8    A    
C6    C7    A    
C11   O16   A    
C1    O15   A    
C23   C38   A    
C20   S1    S    
C29   C35   A    
O6    S2    S    
C19   C24   A    
C4    C9    S    
C5    C10   A    
C29   C31   A    
C3    C10   S    
C30   C32   A    
C2    C37   A    
C19   H19   S    
Cu1   O14   S    
C12   O12   A    
C1    O1    A    
O8    S3    D    
O20   S1    D    
C22   C26   A    
C13   O17   A    
C14   C15   T    
C5    H9    S    
Cu2   O19   S    
C6    H10   S    
C37   H4    S    
C17   H12   S    
C39   H6    S    
