data_mof_unit_66892.cif
_audit_creation_date              2013-03-05T15:57:24-0500
_audit_creation_method            fapswitch 2.2
_symmetry_space_group_name_H-M    P1
_symmetry_Int_Tables_number       1
_space_group_crystal_system       triclinic
_cell_length_a                    17.389448
_cell_length_b                    19.331272
_cell_length_c                    8.536008
_cell_angle_alpha                 90.659076
_cell_angle_beta                  101.771753
_cell_angle_gamma                 89.325693
_cell_volume                      2808.79940867

loop_
_atom_site_label
_atom_site_type_symbol
_atom_site_description
_atom_site_fract_x
_atom_site_fract_y
_atom_site_fract_z
_atom_type_partial_charge
P1    P     P_3+3 0.834140 0.419320 0.003900 0.491667
P2    P     P_3+3 0.834140 0.580680 0.503900 0.516796
P3    P     P_3+3 0.334140 0.919320 0.003900 0.499270
P4    P     P_3+3 0.334140 0.080680 0.503900 0.516191
O1    O     O_2   0.841960 0.394640 0.833410 -0.352041
O2    O     O_2   0.841960 0.605360 0.333410 -0.384779
O3    O     O_2   0.341960 0.894640 0.833410 -0.346573
O4    O     O_2   0.341960 0.105360 0.333410 -0.377927
O5    O     O_3   0.907950 0.463080 0.102990 -0.449578
O6    O     O_3   0.907950 0.536920 0.602990 -0.374610
O7    O     O_3   0.407950 0.963080 0.102990 -0.445643
O8    O     O_3   0.407950 0.036920 0.602990 -0.364331
O9    O     O_3   0.972780 0.329600 0.629720 -0.370262
O10   O     O_3   0.972780 0.670400 0.129720 -0.382269
O11   O     O_3   0.472780 0.829600 0.629720 -0.361550
O12   O     O_3   0.472780 0.170400 0.129720 -0.373963
O13   O     O_2   0.825782 0.297614 0.657749 -0.334203
O14   O     O_2   0.839706 0.720636 0.199384 -0.423478
O15   O     O_2   0.338161 0.781697 0.698038 -0.345191
O16   O     O_2   0.335744 0.217489 0.186017 -0.409512
O17   O     O_3   0.757691 0.481533 0.968331 -0.603719
O18   O     O_3   0.750923 0.529035 0.469688 -0.612856
O19   O     O_3   0.256612 0.982359 0.976602 -0.593328
O20   O     O_3   0.250655 0.029183 0.474589 -0.615253
O21   O     O_3   0.912090 0.191793 0.655296 -0.510836
O22   O     O_3   0.933065 0.811290 0.132385 -0.503620
O23   O     O_3   0.428029 0.688270 0.618889 -0.493690
O24   O     O_3   0.431089 0.311641 0.143433 -0.496335
H1    H     H_    0.010532 0.134407 0.696986 0.203438
H2    H     H_    0.037697 0.808011 0.056653 0.075945
H3    H     H_    0.514553 0.689344 0.486917 0.030984
H4    H     H_    0.534870 0.310925 0.064405 0.077899
C1    C     C_3   0.941052 0.102535 0.477746 -1.039106
C2    C     C_3   0.978825 0.907187 0.011634 -0.915393
C3    C     C_3   0.465527 0.585978 0.492251 -0.912709
C4    C     C_3   0.479403 0.411930 0.045485 -0.893147
H5    H     H_    0.503046 0.568220 0.604330 0.266968
H6    H     H_    0.511846 0.428636 0.164280 0.247989
H7    H     H_    0.906924 0.065544 0.533802 0.286187
H8    H     H_    0.002301 0.923370 0.907242 0.211362
H9    H     H_    0.902382 0.123931 0.371291 0.248480
H10   H     H_    0.016272 0.928556 0.121178 0.280204
H11   H     H_    0.406244 0.563502 0.482109 0.285677
H12   H     H_    0.419017 0.434263 0.022316 0.284709
P5    P     P_3+3 0.165830 0.418670 0.685610 0.433832
P6    P     P_3+3 0.165830 0.581330 0.185610 0.448613
P7    P     P_3+3 0.665830 0.918670 0.685610 0.440314
P8    P     P_3+3 0.665830 0.081330 0.185610 0.446105
P9    P     P_3+3 0.098558 0.267101 0.111959 0.431314
P10   P     P_3+3 0.099809 0.729870 0.617341 0.468510
P11   P     P_3+3 0.601701 0.770073 0.109534 0.429852
P12   P     P_3+3 0.600375 0.229747 0.618290 0.480337
O25   O     O_2   0.157990 0.394030 0.856030 -0.362508
O26   O     O_2   0.157990 0.605970 0.356030 -0.382979
O27   O     O_2   0.657990 0.894030 0.856030 -0.365094
O28   O     O_2   0.657990 0.105970 0.356030 -0.362093
O29   O     O_3   0.027110 0.329490 0.059550 -0.401285
O30   O     O_3   0.027110 0.670510 0.559550 -0.364257
O31   O     O_3   0.527110 0.829490 0.059550 -0.393353
O32   O     O_3   0.527110 0.170510 0.559550 -0.357580
O33   O     O_2   0.153247 0.275126 0.991620 -0.388184
O34   O     O_2   0.156081 0.719186 0.501381 -0.393492
O35   O     O_2   0.658400 0.783336 0.996603 -0.387969
O36   O     O_2   0.659199 0.218330 0.507510 -0.386969
O37   O     O_3   0.247615 0.472724 0.731383 -0.569733
O38   O     O_3   0.249676 0.528565 0.226619 -0.561715
O39   O     O_3   0.747199 0.973047 0.730394 -0.568776
O40   O     O_3   0.749632 0.028070 0.228408 -0.567174
O41   O     O_3   0.043509 0.194362 0.044550 -0.477612
O42   O     O_3   0.050908 0.808776 0.562713 -0.564225
O43   O     O_3   0.550177 0.697618 0.029013 -0.507688
O44   O     O_3   0.554243 0.308907 0.561147 -0.564896
C5    C     C_3   0.983139 0.189878 0.131578 0.308217
C6    C     C_3   0.969067 0.800230 0.550508 0.396894
C7    C     C_3   0.493007 0.685375 0.119708 0.266011
C8    C     C_3   0.473239 0.303757 0.560936 0.297080
H13   H     H_    0.951251 0.239466 0.136227 0.067833
H14   H     H_    0.944364 0.775523 0.433603 0.177336
H15   H     H_    0.458527 0.732329 0.138189 0.072319
H16   H     H_    0.443134 0.277384 0.449313 0.177786
H17   H     H_    0.007922 0.172326 0.255044 0.032761
H18   H     H_    0.955959 0.766707 0.646482 0.030386
H19   H     H_    0.522819 0.663519 0.235512 0.036597
H20   H     H_    0.462288 0.274338 0.665208 0.054709
C9    C     C_3   0.922154 0.139709 0.046551 -0.666476
C10   C     C_3   0.924989 0.868862 0.562579 -0.716338
C11   C     C_3   0.434350 0.634014 0.032399 -0.640466
C12   C     C_3   0.436343 0.375344 0.569473 -0.722077
H21   H     H_    0.403806 0.657289 0.918035 0.254244
H22   H     H_    0.371384 0.370517 0.544523 0.188582
H23   H     H_    0.897977 0.160211 0.926171 0.259615
H24   H     H_    0.867106 0.867274 0.479450 0.186008
C13   C     C_3   0.237235 0.469814 0.312081 0.402074
C14   C     C_3   0.226396 0.540819 0.764446 0.382626
C15   C     C_3   0.730665 0.958840 0.248508 0.368925
C16   C     C_3   0.725685 0.040024 0.771176 0.376496
H25   H     H_    0.281723 0.469265 0.425412 0.112725
H26   H     H_    0.235166 0.547567 0.895950 0.096854
H27   H     H_    0.737357 0.949031 0.378377 0.081136
H28   H     H_    0.735057 0.044255 0.903200 0.085934
H29   H     H_    0.179011 0.468688 0.346155 0.077911
H30   H     H_    0.165370 0.555975 0.708882 0.133604
H31   H     H_    0.671043 0.943754 0.185439 0.133889
H32   H     H_    0.664383 0.055363 0.718044 0.132959
C17   C     C_3   0.248970 0.406191 0.212721 -0.766154
C18   C     C_3   0.280591 0.589346 0.701130 -0.925232
C19   C     C_3   0.788046 0.913153 0.181623 -0.899731
C20   C     C_3   0.779035 0.090426 0.711680 -0.896544
H33   H     H_    0.275047 0.362884 0.290610 0.210949
H34   H     H_    0.341894 0.573611 0.746876 0.300671
H35   H     H_    0.848872 0.926304 0.239270 0.293728
H36   H     H_    0.840642 0.074575 0.755539 0.283024
H37   H     H_    0.191214 0.390838 0.142852 0.255233
H38   H     H_    0.271585 0.643513 0.737589 0.232038
H39   H     H_    0.777259 0.857821 0.201803 0.248475
H40   H     H_    0.769626 0.143725 0.753343 0.227744
H41   H     H_    0.288260 0.416969 0.128518 0.285245
H42   H     H_    0.270647 0.585660 0.569441 0.266916
H43   H     H_    0.781778 0.922426 0.051955 0.265355
H44   H     H_    0.768279 0.089135 0.579608 0.283352
Ba1   Ba    Ba6+2 0.000000 0.447380 0.844850 1.556278
Ba2   Ba    Ba6+2 0.000000 0.552620 0.344850 1.548733
Ba3   Ba    Ba6+2 0.500000 0.947380 0.844850 1.555374
Ba4   Ba    Ba6+2 0.500000 0.052620 0.344850 1.551056
C21   C     C_3   0.733754 0.497952 0.804768 0.301400
C22   C     C_3   0.759214 0.471635 0.375165 0.280450
C23   C     C_3   0.226941 0.002712 0.816314 0.220520
C24   C     C_3   0.257599 0.971363 0.379884 0.269680
H45   H     H_    0.722653 0.452684 0.724233 0.111820
H46   H     H_    0.797046 0.481327 0.288127 0.152630
H47   H     H_    0.227218 0.960037 0.729237 0.125865
H48   H     H_    0.295144 0.980321 0.291873 0.156010
H49   H     H_    0.777092 0.527425 0.760828 0.081929
H50   H     H_    0.783747 0.428580 0.455550 0.115993
H51   H     H_    0.261603 0.044303 0.781191 0.041050
H52   H     H_    0.281870 0.928197 0.460254 0.113882
C25   C     C_3   0.661281 0.543305 0.780646 0.015432
C26   C     C_3   0.677196 0.453670 0.283852 0.015279
C27   C     C_3   0.141964 0.031580 0.796015 0.085114
C28   C     C_3   0.175084 0.953632 0.289923 -0.002279
H53   H     H_    0.632365 0.537547 0.651892 0.078193
H54   H     H_    0.659614 0.488571 0.180960 0.118640
H55   H     H_    0.111628 0.028782 0.667870 0.062167
H56   H     H_    0.156374 0.988277 0.187275 0.130737
H57   H     H_    0.620616 0.525497 0.856055 0.132114
H58   H     H_    0.633378 0.463566 0.360897 0.094005
H59   H     H_    0.106942 0.000501 0.861691 0.142745
H60   H     H_    0.131997 0.963229 0.368989 0.142334
O45   O     O_3   0.092100 0.536880 0.086720 -0.435240
O46   O     O_3   0.092100 0.463120 0.586720 -0.456930
O47   O     O_3   0.592100 0.036880 0.086720 -0.454652
O48   O     O_3   0.592100 0.963120 0.586720 -0.442858
P13   P     P_3+3 0.894042 0.730121 0.079446 0.451489
P14   P     P_3+3 0.890787 0.273257 0.571420 0.509124
P15   P     P_3+3 0.394946 0.230894 0.077893 0.461442
P16   P     P_3+3 0.392118 0.772197 0.576610 0.512845
C29   C     C_3   0.972803 0.159901 0.594740 0.404146
C30   C     C_3   0.977607 0.829427 0.020255 0.406545
C31   C     C_3   0.458154 0.663960 0.487755 0.352495
C32   C     C_3   0.475425 0.334458 0.035110 0.378235
H61   H     H_    0.009668 0.195871 0.541061 0.020400
H62   H     H_    0.953587 0.810342 0.897875 0.018470
H63   H     H_    0.419478 0.674171 0.371757 0.033814
H64   H     H_    0.449052 0.322443 0.908712 0.035735
H65   H     H_    0.491518 0.567332 0.390906 0.208384
H66   H     H_    0.510386 0.431210 0.954901 0.210669
H67   H     H_    0.990799 0.075195 0.440062 0.244508
H68   H     H_    0.918104 0.928096 0.997446 0.271506
H69   H     H_    0.390122 0.621815 0.105062 0.145667
H70   H     H_    0.454507 0.397686 0.691070 0.178312
H71   H     H_    0.872578 0.134941 0.108536 0.137601
H72   H     H_    0.911419 0.875015 0.683001 0.157025
C33   C     C_R   0.144973 0.670929 0.923863 -0.574819
C34   C     C_R   0.151745 0.326348 0.417704 -0.564642
C35   C     C_R   0.642702 0.172335 0.924938 -0.566549
C36   C     C_R   0.654428 0.827936 0.414601 -0.553890
C37   C     C_R   0.851976 0.327158 0.263156 0.215834
C38   C     C_R   0.855599 0.673187 0.767337 0.211521
C39   C     C_R   0.348589 0.830149 0.269969 0.213055
C40   C     C_R   0.360934 0.176039 0.763698 0.188698
C41   C     C_R   0.789553 0.217241 0.296591 -0.288885
C42   C     C_R   0.786767 0.780776 0.801517 -0.259988
C43   C     C_R   0.283104 0.721690 0.304390 -0.270814
C44   C     C_R   0.291146 0.283620 0.799120 -0.262238
C45   C     C_R   0.842080 0.270514 0.357320 0.109688
C46   C     C_R   0.838684 0.727094 0.866357 0.117469
C47   C     C_R   0.333528 0.776462 0.367697 0.088058
C48   C     C_R   0.344850 0.230734 0.862083 0.058935
C49   C     C_R   0.810503 0.334097 0.105912 0.273327
C50   C     C_R   0.812729 0.664715 0.609911 0.239646
C51   C     C_R   0.310395 0.834781 0.109049 0.265349
C52   C     C_R   0.316175 0.166516 0.608097 0.190622
C53   C     C_R   0.753927 0.279065 0.042946 -0.229527
C54   C     C_R   0.754021 0.717335 0.544959 -0.214321
C55   C     C_R   0.255369 0.778438 0.044502 -0.232439
C56   C     C_R   0.256856 0.219091 0.544670 -0.239823
C57   C     C_R   0.242982 0.720240 0.143649 -0.130567
C58   C     C_R   0.246937 0.280351 0.640580 -0.114309
C59   C     C_R   0.744457 0.219028 0.139903 -0.135299
C60   C     C_R   0.744410 0.778681 0.641214 -0.126799
C61   C     C_R   0.186571 0.665381 0.081287 0.298304
C62   C     C_R   0.189951 0.334004 0.577489 0.292792
C63   C     C_R   0.686232 0.165425 0.080354 0.290847
C64   C     C_R   0.690006 0.834014 0.576400 0.289496
C65   C     C_R   0.157021 0.725138 0.826849 0.095294
C66   C     C_R   0.155449 0.266301 0.325773 0.066048
C67   C     C_R   0.653238 0.227718 0.829465 0.098707
C68   C     C_R   0.656746 0.767429 0.323005 0.059572
C69   C     C_R   0.208620 0.779349 0.888047 0.597961
C70   C     C_R   0.203712 0.209754 0.394513 0.522061
C71   C     C_R   0.703052 0.282836 0.891346 0.592820
C72   C     C_R   0.703353 0.709635 0.390503 0.504682
H73   H     H_    0.276945 0.679543 0.382403 0.208622
H74   H     H_    0.283754 0.326707 0.876475 0.210539
H75   H     H_    0.782118 0.175703 0.375292 0.217096
H76   H     H_    0.780894 0.824580 0.877432 0.204668
H77   H     H_    0.102676 0.631776 0.874489 0.202823
H78   H     H_    0.119749 0.369725 0.360598 0.131156
H79   H     H_    0.600735 0.132980 0.875274 0.204213
H80   H     H_    0.623589 0.872220 0.357630 0.120867
O49   O     O_3   0.684334 0.611686 0.824080 -0.643043
C73   C     C_3   0.627851 0.657091 0.740144 -0.105434
H81   H     H_    0.625709 0.651556 0.610228 0.130383
H82   H     H_    0.644722 0.710528 0.772439 0.205772
H83   H     H_    0.569938 0.648873 0.771220 0.222864
O50   O     O_3   0.676499 0.385960 0.222556 -0.680582
C74   C     C_3   0.648058 0.340901 0.323642 -0.075765
H84   H     H_    0.587330 0.355068 0.331303 0.161694
H85   H     H_    0.687233 0.340085 0.444051 0.197006
H86   H     H_    0.644661 0.288716 0.269680 0.186390
O51   O     O_3   0.137471 0.098180 0.860356 -0.601115
C75   C     C_3   0.160870 0.148313 0.763753 -0.190106
H87   H     H_    0.155309 0.132501 0.636472 0.141419
H88   H     H_    0.221132 0.161118 0.819406 0.138162
H89   H     H_    0.124737 0.195574 0.765427 0.202412
O52   O     O_3   0.174219 0.886315 0.226607 -0.684586
C76   C     C_3   0.142580 0.841414 0.322929 -0.074178
H90   H     H_    0.139692 0.789453 0.267810 0.183067
H91   H     H_    0.081214 0.856108 0.325433 0.213217
H92   H     H_    0.179810 0.840223 0.445540 0.194889
O53   O     O_3   0.694385 0.343367 0.807555 -0.593752
C77   C     C_3   0.626225 0.377496 0.836546 -0.196653
H93   H     H_    0.640376 0.409210 0.945904 0.199218
H94   H     H_    0.577764 0.342403 0.845913 0.102723
H95   H     H_    0.602645 0.411906 0.735193 0.134103
O54   O     O_3   0.683864 0.642486 0.335853 -0.666960
C78   C     C_3   0.689547 0.628893 0.175202 0.120632
H96   H     H_    0.712135 0.671581 0.113628 0.171663
H97   H     H_    0.633437 0.608707 0.108787 0.114331
H98   H     H_    0.727842 0.584224 0.166286 0.142880
O55   O     O_3   0.200834 0.838897 0.802191 -0.589916
C79   C     C_3   0.132809 0.872186 0.831501 -0.237287
H99   H     H_    0.146653 0.901004 0.945154 0.206556
H100  H     H_    0.083740 0.837619 0.840026 0.110705
H101  H     H_    0.109758 0.905158 0.728148 0.144412
O56   O     O_3   0.182737 0.142183 0.350097 -0.681316
C80   C     C_3   0.183890 0.125664 0.189695 0.119235
H102  H     H_    0.204872 0.166732 0.120852 0.164733
H103  H     H_    0.125964 0.104866 0.134696 0.166502
H104  H     H_    0.223021 0.081748 0.180688 0.140242
O57   O     O_3   0.894697 0.382391 0.334749 -0.658482
C81   C     C_3   0.974423 0.369735 0.338935 0.095001
H105  H     H_    0.996984 0.397936 0.249005 0.157926
H106  H     H_    0.992549 0.314240 0.344917 -0.009788
H107  H     H_    0.005495 0.395404 0.444268 0.193587
O58   O     O_3   0.921350 0.632604 0.819755 -0.661515
C82   C     C_3   0.903628 0.580422 0.920110 0.158590
H108  H     H_    0.891192 0.532399 0.855511 0.123840
H109  H     H_    0.855865 0.593039 0.985640 0.090917
H110  H     H_    0.957312 0.566760 0.005860 0.208067
O59   O     O_3   0.395411 0.883734 0.339313 -0.657040
C83   C     C_3   0.474176 0.867998 0.336810 0.136176
H111  H     H_    0.496648 0.897394 0.248640 0.152357
H112  H     H_    0.489134 0.811903 0.335742 -0.034218
H113  H     H_    0.509315 0.890522 0.442660 0.177907
O60   O     O_3   0.423865 0.132629 0.818947 -0.643407
C84   C     C_3   0.401503 0.081091 0.915951 0.149465
H114  H     H_    0.382269 0.034356 0.847912 0.122432
H115  H     H_    0.355782 0.096955 0.983871 0.070446
H116  H     H_    0.454398 0.064541 0.001091 0.214077
C85   C     C_2   0.959355 0.070771 0.036656 0.669369
H117  H     H_    0.975423 0.039965 0.143670 0.037627
O61   O     O_2   0.974358 0.050508 0.910473 -0.621223
C86   C     C_2   0.969050 0.931276 0.530912 0.683330
H118  H     H_    0.988661 0.968191 0.626642 0.010663
O62   O     O_2   0.983497 0.940903 0.399231 -0.641251
C87   C     C_2   0.477322 0.569793 0.004234 0.693071
H119  H     H_    0.512901 0.543627 0.105633 -0.020426
O63   O     O_2   0.476041 0.548777 0.868781 -0.654238
C88   C     C_2   0.461116 0.423484 0.454229 0.754993
H120  H     H_    0.521566 0.440199 0.473334 -0.035245
O64   O     O_2   0.413704 0.445207 0.340022 -0.619653

loop_
_geom_bond_atom_site_label_1
_geom_bond_atom_site_label_2
_geom_bond_distance
_ccdc_geom_bond_type
C43   H73   1.078128 S    
C42   H76   1.076903 S    
C33   C65   1.387000 A    
P1    O17   1.764067 S    
O10   Ba2   2.914857 S    
O16   P15   1.542174 D    
C29   H61   1.114494 S    
P12   C67   1.849477 S    
C28   H56   1.101893 S    
C20   H44   1.104534 S    
P3    O19   1.787902 S    
O7    Ba4   2.907778 S    
C2    H10   1.103642 S    
C35   C67   1.389090 A    
C20   H40   1.107335 S    
O44   C8    1.412932 S    
O6    Ba1   2.913616 S    
C28   H60   1.118692 S    
C81   H107  1.069774 S    
C9    H23   1.104036 S    
P9    O29   1.717184 S    
Ba3   Ba4   4.749156 S    
C10   H24   1.107442 S    
C1    H67   1.109061 S    
O52   C76   1.394403 S    
C39   O59   1.376739 S    
P8    C63   1.937304 S    
C27   H59   1.096268 S    
C1    H7    1.107344 S    
O11   Ba3   2.890458 S    
C71   O53   1.369175 S    
C18   H38   1.107408 S    
C10   H72   1.105424 S    
C32   H64   1.105990 S    
C25   H57   1.108804 S    
C86   H118  1.082547 S    
C3    H5    1.098362 S    
C11   C87   1.483930 S    
C55   C69   1.414902 A    
P3    O3    1.557971 D    
P15   C48   1.870179 S    
C24   H52   1.109884 S    
O57   C81   1.398310 S    
P4    O20   1.743933 S    
C82   H110  1.093998 S    
C15   H27   1.109097 S    
O18   C22   1.387845 S    
C39   C47   1.398951 A    
P13   C46   1.876979 S    
C14   H26   1.107956 S    
O23   C31   1.403424 S    
O59   C83   1.403938 S    
C11   H69   1.110914 S    
O1    Ba1   2.925047 S    
O24   C32   1.397206 S    
C37   C45   1.398507 A    
Ba1   O46   2.996555 S    
P4    Ba4   3.464118 S    
C26   O50   1.403287 S    
O53   C77   1.413825 S    
C42   C46   1.409110 A    
C5    H17   1.109519 S    
O32   Ba4   2.889864 S    
C49   C53   1.477922 A    
P4    C52   1.925945 S    
O40   C15   1.402865 S    
C38   O58   1.378846 S    
C37   O57   1.372522 S    
C40   C48   1.403524 A    
P12   O32   1.716513 S    
C13   C17   1.521314 S    
Ba3   O48   2.996555 S    
P5    O37   1.751011 S    
C27   H55   1.114259 S    
P6    C61   1.934233 S    
C54   C60   1.462311 A    
C36   C68   1.404208 A    
C87   H119  1.082594 S    
C35   C63   1.393820 A    
P3    Ba3   3.479604 S    
P5    C62   1.952834 S    
C53   C71   1.412835 A    
C37   C49   1.395210 A    
O42   C6    1.417099 S    
O24   P15   1.733229 S    
C77   H94   1.104074 S    
C87   O63   1.217088 D    
O41   C5    1.408301 S    
C34   H78   1.066818 S    
C28   O52   1.402416 S    
P4    O8    1.620613 S    
C3    H11   1.110078 S    
C14   C18   1.516766 S    
C8    C12   1.525751 S    
C88   O64   1.216467 D    
O28   Ba4   2.928849 S    
P11   O35   1.538360 D    
P4    O4    1.569164 D    
C22   C26   1.521240 S    
C56   C70   1.429961 A    
C78   H97   1.097202 S    
P8    O47   1.631686 S    
C16   C20   1.514207 S    
P7    O27   1.568448 D    
P5    O25   1.568448 D    
C36   C64   1.397637 A    
P9    O41   1.735792 S    
C76   H90   1.101603 S    
C18   H42   1.103498 S    
C59   C63   1.469644 A    
O15   P16   1.541700 D    
C17   H41   1.110856 S    
P2    O2    1.569164 D    
P11   O43   1.730066 S    
C6    H18   1.111281 S    
C2    H68   1.109897 S    
O13   P14   1.536860 D    
C24   H48   1.107455 S    
C19   H43   1.106345 S    
C36   H80   1.072052 S    
C15   H31   1.107065 S    
C77   H93   1.097478 S    
C50   C54   1.463522 A    
C51   C55   1.483609 A    
P2    Ba2   3.464118 S    
O31   Ba3   2.914260 S    
P14   C45   1.851327 S    
O27   Ba3   2.906770 S    
C8    H20   1.111419 S    
O30   Ba2   2.889864 S    
C77   H95   1.105061 S    
C12   H70   1.105791 S    
P10   O30   1.710249 S    
Ba2   O45   2.987568 S    
C8    H16   1.110587 S    
O55   C79   1.405406 S    
C25   O49   1.409300 S    
P1    O5    1.626216 S    
C72   O54   1.396198 S    
C26   H54   1.104209 S    
C13   H29   1.109519 S    
C22   H46   1.106991 S    
C4    C32   1.500804 S    
P11   C68   1.878436 S    
O4    Ba4   2.903202 S    
C33   C61   1.394762 A    
H1    C29   1.097135 S    
Ba3   O47   2.907726 S    
C73   H83   1.106141 S    
P5    Ba1   3.466362 S    
C85   H117  1.082403 S    
C53   C59   1.463308 A    
C67   C71   1.409517 A    
C54   C72   1.435738 A    
C75   H89   1.104355 S    
P8    O40   1.753073 S    
C20   H36   1.101370 S    
C40   O60   1.378808 S    
C80   H103  1.099532 S    
O21   P14   1.741799 S    
C38   C46   1.400309 A    
P2    O18   1.740961 S    
O49   C73   1.398410 S    
P12   O44   1.746938 S    
P3    C51   1.961557 S    
C60   C64   1.456527 A    
O9    Ba1   2.890458 S    
C19   H35   1.103012 S    
C66   C70   1.426823 A    
P7    Ba3   3.466362 S    
C74   H84   1.102469 S    
C52   C56   1.466359 A    
C34   C62   1.396976 A    
C65   C69   1.412264 A    
C68   C72   1.428287 A    
C70   O56   1.387968 S    
O56   C80   1.406433 S    
P6    O26   1.557271 D    
O12   P15   1.767926 S    
C75   H88   1.088741 S    
O5    Ba2   2.907778 S    
O11   P16   1.780440 S    
C42   C60   1.415883 A    
P7    O39   1.748800 S    
C43   C57   1.406827 A    
C6    C10   1.537381 S    
C73   H82   1.093952 S    
C19   H39   1.109558 S    
Ba1   Ba2   4.749156 S    
O14   P13   1.541958 D    
C15   C19   1.517133 S    
C69   O55   1.362291 S    
C79   H101  1.099035 S    
C58   C62   1.455567 A    
C2    H8    1.102916 S    
P16   C47   1.866825 S    
C7    C11   1.509404 S    
O37   C14   1.403975 S    
C74   H85   1.111367 S    
Ba4   O47   2.987568 S    
C12   H22   1.110813 S    
C12   C88   1.490887 S    
C44   C58   1.414602 A    
P12   O36   1.540723 D    
C76   H91   1.105397 S    
C21   H45   1.100727 S    
C40   C52   1.407049 A    
O39   C16   1.403162 S    
P10   O34   1.538094 D    
C84   H114  1.086814 S    
P1    O1    1.557971 D    
C84   H116  1.096475 S    
P11   O31   1.712952 S    
O2    Ba2   2.903202 S    
O17   C21   1.411833 S    
P2    O6    1.620613 S    
C13   H25   1.108653 S    
C80   H102  1.101700 S    
C33   H77   1.082016 S    
C83   H111  1.084951 S    
C79   H100  1.104441 S    
C18   H34   1.098489 S    
C78   H98   1.095684 S    
C17   H37   1.100461 S    
O23   P16   1.746457 S    
H2    C30   1.104590 S    
C16   H32   1.108327 S    
C25   H53   1.116310 S    
O54   C78   1.416235 S    
P5    O46   1.626010 S    
C41   C45   1.407217 A    
C2    C30   1.506455 S    
P1    Ba1   3.479604 S    
O38   C13   1.399325 S    
C27   O51   1.401492 S    
C35   H79   1.081909 S    
C4    H12   1.111192 S    
P6    Ba2   3.482200 S    
P2    C50   1.919880 S    
O3    Ba3   2.925047 S    
P8    Ba4   3.482200 S    
C81   H106  1.113363 S    
C78   H96   1.101524 S    
C41   H75   1.078464 S    
P6    O38   1.747503 S    
C81   H105  1.085330 S    
C86   O62   1.217510 D    
P8    O28   1.557271 D    
C85   O61   1.218263 D    
O19   C23   1.418657 S    
C21   H49   1.078711 S    
Ba2   O46   2.913553 S    
C57   C61   1.472651 A    
C82   H108  1.075615 S    
C21   C25   1.507179 S    
P9    C66   1.890391 S    
C80   H104  1.093590 S    
C4    H66   1.099272 S    
C84   H115  1.113804 S    
C24   C28   1.523805 S    
C1    H9    1.096249 S    
C5    C9    1.511924 S    
O10   P13   1.768097 S    
C3    C31   1.511704 S    
O25   Ba1   2.906770 S    
O43   C7    1.402663 S    
O60   C84   1.410293 S    
C82   H109  1.115290 S    
P9    O33   1.545774 D    
C7    H19   1.104426 S    
P10   O42   1.758199 S    
O8    Ba3   2.913616 S    
C17   H33   1.108777 S    
C26   H58   1.117064 S    
C83   H113  1.072973 S    
C38   C50   1.406201 A    
C34   C66   1.401873 A    
C16   H28   1.107494 S    
C4    H6    1.101898 S    
C75   H87   1.110579 S    
C3    H65   1.109550 S    
Ba1   O45   2.907726 S    
P7    C64   1.957691 S    
O22   C30   1.398432 S    
C31   H63   1.096074 S    
Ba4   O48   2.913553 S    
C73   H81   1.105963 S    
C23   H51   1.091015 S    
C23   H47   1.104693 S    
O9    P14   1.789260 S    
C1    C29   1.515233 S    
C56   C58   1.460445 A    
P3    O7    1.626216 S    
O58   C82   1.407581 S    
C30   H62   1.103884 S    
O21   C29   1.400684 S    
O29   Ba1   2.914260 S    
C9    H71   1.104894 S    
P10   C65   1.863347 S    
C44   C48   1.411233 A    
C44   H74   1.079694 S    
O26   Ba2   2.928849 S    
C74   H86   1.101335 S    
C39   C51   1.401832 A    
P7    O48   1.626010 S    
C22   H50   1.109472 S    
C5    H13   1.106160 S    
C83   H112  1.112524 S    
O50   C74   1.396214 S    
C6    H14   1.107889 S    
C76   H92   1.113009 S    
O51   C75   1.396176 S    
O20   C24   1.390441 S    
C11   H21   1.109268 S    
C10   C86   1.493183 S    
C88   H120  1.082980 S    
O22   P13   1.735063 S    
C9    C85   1.483592 S    
H4    C32   1.106409 S    
P6    O45   1.631686 S    
O12   Ba4   2.914857 S    
C7    H15   1.109393 S    
C23   C27   1.550282 S    
H3    C31   1.103163 S    
C43   C47   1.413272 A    
C14   H30   1.107924 S    
P1    C49   1.958658 S    
C79   H99   1.097678 S    
C55   C57   1.459575 A    
C41   C59   1.406236 A    
