data_mof_unit_28697.cif
_audit_creation_date              2012-12-11T15:47:06-0500
_audit_creation_method            fapswitch 2.2
_symmetry_space_group_name_H-M    P1
_symmetry_Int_Tables_number       1
_space_group_crystal_system       triclinic
_cell_length_a                    20.195719
_cell_length_b                    7.258764
_cell_length_c                    13.482962
_cell_angle_alpha                 90.0
_cell_angle_beta                  102.921203
_cell_angle_gamma                 89.999845
_cell_volume                      1926.4985999

loop_
_atom_site_label
_atom_site_type_symbol
_atom_type_description
_atom_site_fract_x
_atom_site_fract_y
_atom_site_fract_z
_atom_type_partial_charge
O1    O     O_R   0.449560 0.506810 0.599700 -0.534928
O2    O     O_R   0.550440 0.006810 0.400300 -0.534927
O3    O     O_R   0.587960 0.180060 0.595760 -0.545782
O4    O     O_R   0.412040 0.680060 0.404240 -0.545781
C1    C     C_R   0.614826 0.344214 0.617803 0.681417
C2    C     C_R   0.385173 0.844215 0.382197 0.681420
O5    O     O_R   0.452380 0.177430 0.611700 -0.536972
O6    O     O_R   0.547620 0.677430 0.388300 -0.536971
O7    O     O_R   0.413900 0.001890 0.416350 -0.540416
O8    O     O_R   0.586100 0.501890 0.583650 -0.540416
C3    C     C_R   0.436454 0.345483 0.638123 0.695764
C4    C     C_R   0.563546 0.845483 0.361876 0.695763
O9    O     O_3   0.487530 0.337490 0.435890 -0.378320
O10   O     O_3   0.512470 0.837490 0.564110 -0.378321
V1    V     V_3+5 0.502310 0.064660 0.511890 1.406209
V2    V     V_3+5 0.497690 0.564660 0.488110 1.406210
C5    C     C_R   0.608533 0.842195 0.104889 0.155931
C6    C     C_R   0.391471 0.342170 0.895116 0.155903
H1    H     H_    0.516193 0.821561 0.160138 0.102016
H2    H     H_    0.483811 0.321542 0.839867 0.102026
H3    H     H_    0.696384 0.891621 0.980165 0.136141
H4    H     H_    0.303617 0.391550 0.019833 0.136136
C7    C     C_R   0.603112 0.852039 0.283192 -0.053580
C8    C     C_R   0.396888 0.352034 0.716807 -0.053580
C9    C     C_R   0.930541 0.848262 0.317854 -0.170507
C10   C     C_R   0.069459 0.348294 0.682146 -0.170505
C11   C     C_R   0.894345 0.840324 0.394026 -0.120778
C12   C     C_R   0.105653 0.340365 0.605972 -0.120781
C13   C     C_R   0.823557 0.845199 0.369688 -0.156486
C14   C     C_R   0.176442 0.345221 0.630310 -0.156487
C15   C     C_R   0.786762 0.859708 0.267210 0.088142
C16   C     C_R   0.213237 0.359700 0.732789 0.088145
C17   C     C_R   0.824386 0.868015 0.189726 0.071973
C18   C     C_R   0.175614 0.367994 0.810273 0.071972
C19   C     C_R   0.714080 0.861328 0.239033 0.040618
C20   C     C_R   0.285919 0.361311 0.760966 0.040626
C21   C     C_R   0.680479 0.860830 0.133881 0.119965
C22   C     C_R   0.319522 0.360796 0.866120 0.119940
C23   C     C_R   0.719456 0.879171 0.060260 -0.203518
C24   C     C_R   0.280545 0.379115 0.939740 -0.203503
C25   C     C_R   0.789716 0.882387 0.087486 -0.199544
C26   C     C_R   0.210284 0.382337 0.912513 -0.199544
C27   C     C_R   0.673691 0.862783 0.312113 -0.217747
C28   C     C_R   0.326307 0.362778 0.687885 -0.217746
C29   C     C_R   0.570928 0.837311 0.180705 -0.214733
C30   C     C_R   0.429074 0.337296 0.819298 -0.214718
C31   C     C_R   0.896273 0.861441 0.216005 -0.069840
C32   C     C_R   0.103727 0.361442 0.783995 -0.069840
H5    H     H_    0.695353 0.872365 0.392566 0.101097
H6    H     H_    0.304644 0.372365 0.607429 0.101093
H7    H     H_    0.985552 0.843514 0.338321 0.103926
H8    H     H_    0.014447 0.343565 0.661679 0.103926
H9    H     H_    0.799425 0.833987 0.432988 0.107733
H10   H     H_    0.200572 0.334021 0.567009 0.107732
H11   H     H_    0.921359 0.828871 0.472764 0.120994
H12   H     H_    0.078639 0.328938 0.527234 0.120995
H13   H     H_    0.816706 0.893870 0.026807 0.118206
H14   H     H_    0.183295 0.393806 0.973192 0.118203
C33   C     C_R   0.218132 0.023345 0.221443 -0.155068
C34   C     C_R   0.781868 0.523345 0.778555 -0.155069
H15   H     H_    0.194571 0.156317 0.201629 0.119416
H16   H     H_    0.805429 0.656316 0.798368 0.119417
C35   C     C_R   0.283305 0.018883 0.284807 -0.162584
C36   C     C_R   0.716695 0.518882 0.715192 -0.162579
H17   H     H_    0.307609 0.148042 0.311863 0.119326
H18   H     H_    0.692391 0.648041 0.688134 0.119326
C37   C     C_R   0.316373 0.850214 0.313042 -0.037984
C38   C     C_R   0.683627 0.350213 0.686959 -0.037985
C39   C     C_R   0.282569 0.686159 0.275340 -0.158902
C40   C     C_R   0.717430 0.186159 0.724662 -0.158904
H19   H     H_    0.306278 0.553306 0.294996 0.118625
H20   H     H_    0.693722 0.053307 0.705007 0.118626
C41   C     C_R   0.217402 0.690583 0.211964 -0.158191
C42   C     C_R   0.782597 0.190583 0.788038 -0.158191
H21   H     H_    0.193257 0.561332 0.184717 0.117841
H22   H     H_    0.806742 0.061333 0.815287 0.117841
C43   C     C_R   0.184035 0.859199 0.184451 -0.035195
C44   C     C_R   0.815965 0.359199 0.815549 -0.035196
O11   O     O_R   0.913920 0.203370 0.916260 -0.539757
O12   O     O_R   0.086080 0.703370 0.083740 -0.539756
O13   O     O_R   0.047620 0.535540 0.888290 -0.537659
O14   O     O_R   0.952380 0.035540 0.111710 -0.537659
C45   C     C_R   0.063465 0.368445 0.861802 0.680435
C46   C     C_R   0.936536 0.868445 0.138199 0.680435
O15   O     O_R   0.912040 0.532780 0.904220 -0.545307
O16   O     O_R   0.087960 0.032780 0.095780 -0.545307
O17   O     O_R   0.949550 0.708160 0.099720 -0.533861
O18   O     O_R   0.050450 0.208160 0.900280 -0.533862
C47   C     C_R   0.885336 0.364966 0.883260 0.673444
C48   C     C_R   0.114664 0.864966 0.116740 0.673443
O19   O     O_3   0.012480 0.375300 0.064060 -0.377957
O20   O     O_3   0.987520 0.875300 0.935940 -0.377957
V3    V     V_3+5 0.997690 0.648180 0.988110 1.408391
V4    V     V_3+5 0.002310 0.148180 0.011890 1.408389
C49   C     C_3   0.570332 0.821986 0.994746 -0.360796
C50   C     C_3   0.584134 0.635889 0.950076 -0.757486
H23   H     H_    0.637316 0.624217 0.941721 0.228079
H24   H     H_    0.574244 0.522478 0.999895 0.222690
H25   H     H_    0.550182 0.619328 0.873552 0.215561
H26   H     H_    0.514739 0.830484 0.988786 0.179440
H27   H     H_    0.583027 0.936823 0.947845 0.170514
C51   C     C_3   0.429679 0.321972 0.005267 -0.360724
C52   C     C_3   0.415887 0.135861 0.049945 -0.757434
H28   H     H_    0.362716 0.124230 0.058346 0.228065
H29   H     H_    0.425742 0.022438 0.000104 0.222677
H30   H     H_    0.449870 0.119262 0.126451 0.215538
H31   H     H_    0.485276 0.330485 0.011232 0.179412
H32   H     H_    0.416982 0.436818 0.052165 0.170488

loop_
_geom_bond_atom_site_label_1
_geom_bond_atom_site_label_2
_ccdc_geom_bond_type
C14   C16   A    
C35   H17   S    
C7    C29   A    
C11   C13   A    
C49   C50   S    
O1    C3    A    
C46   O17   A    
O2    C4    A    
C33   C43   A    
C2    O7    A    
C12   H12   S    
C23   C25   A    
O5    C3    A    
C14   H10   S    
C4    C7    S    
C34   C44   A    
C42   H22   S    
O14   V4    S    
C16   C20   A    
C19   C21   A    
C5    C29   A    
C11   H11   S    
C50   H25   S    
C3    C8    S    
C7    C27   A    
C34   H16   S    
C6    C51   S    
C39   H19   S    
O16   V4    S    
O15   V3    S    
C18   C26   A    
C50   H24   S    
C40   C42   A    
C15   C17   A    
C39   C41   A    
C5    C49   S    
C19   C27   A    
C9    C31   A    
C10   C32   A    
C24   C26   A    
C45   O18   A    
O6    V2    S    
O12   C48   A    
C41   H21   S    
C26   H14   S    
C1    C38   S    
C6    C30   A    
O13   C45   A    
O18   V4    S    
C44   C47   S    
C35   C37   A    
C43   C48   S    
C33   H15   S    
O11   V4    S    
O4    C2    A    
O16   C48   A    
O15   C47   A    
C49   H26   S    
C27   H5    S    
O5    V1    S    
C37   C39   A    
C36   H18   S    
O4    V2    S    
C9    H7    S    
C10   H8    S    
O13   V3    S    
H3    C23   S    
O6    C4    A    
H4    C24   S    
C50   H23   S    
C51   H31   S    
C52   H29   S    
O1    V2    S    
C5    C21   A    
C31   C46   S    
C51   H32   S    
O2    V1    S    
C38   C40   A    
C2    C37   S    
O14   C46   A    
C17   C31   A    
C15   C19   A    
C20   C28   A    
C18   C32   A    
C36   C38   A    
O3    V1    S    
C28   H6    S    
C10   C12   A    
O3    C1    A    
H1    C29   S    
C9    C11   A    
C33   C35   A    
C32   C45   S    
C34   C36   A    
C17   C25   A    
C20   C22   A    
O7    V1    S    
C8    C30   A    
C1    O8    A    
C21   C23   A    
O8    V2    S    
O19   V4    S    
C22   C24   A    
C13   H9    S    
C8    C28   A    
O17   V3    S    
C12   C14   A    
O20   V3    S    
C52   H30   S    
C6    C22   A    
C51   C52   S    
O11   C47   A    
C25   H13   S    
C13   C15   A    
C42   C44   A    
O9    V2    S    
C52   H28   S    
C41   C43   A    
O10   V1    S    
C40   H20   S    
O12   V3    S    
H2    C30   S    
C49   H27   S    
C16   C18   A    
