data_mof_unit_44577.cif
_audit_creation_date              2012-12-10T17:24:49-0500
_audit_creation_method            fapswitch 2.2
_symmetry_space_group_name_H-M    P1
_symmetry_Int_Tables_number       1
_space_group_crystal_system       triclinic
_cell_length_a                    10.198443
_cell_length_b                    10.404234
_cell_length_c                    19.206682
_cell_angle_alpha                 91.626842
_cell_angle_beta                  81.589492
_cell_angle_gamma                 94.678303
_cell_volume                      2009.04912643

loop_
_atom_site_label
_atom_site_type_symbol
_atom_type_description
_atom_site_fract_x
_atom_site_fract_y
_atom_site_fract_z
_atom_type_partial_charge
C1    C     C_R   0.554515 0.735451 0.498459 0.903082
C2    C     C_R   0.498588 0.494329 0.365902 0.950699
C3    C     C_R   0.388381 0.521392 0.761067 -0.078102
C4    C     C_R   0.578580 0.396800 0.248440 -0.092561
C5    C     C_R   0.398828 0.522759 0.833224 -0.084717
C6    C     C_R   0.585454 0.399345 0.174817 -0.093366
C7    C     C_R   0.523154 0.505957 0.854594 -0.081109
C8    C     C_R   0.503851 0.480000 0.145003 -0.079006
C9    C     C_R   0.637699 0.490914 0.805220 -0.031971
C10   C     C_R   0.413541 0.555053 0.188055 -0.012216
C11   C     C_R   0.625549 0.491298 0.734057 -0.202733
C12   C     C_R   0.445760 0.264629 0.507139 0.973627
C13   C     C_R   0.413118 0.556105 0.260443 -0.209743
C14   C     C_R   0.503145 0.505290 0.711126 -0.143185
C15   C     C_R   0.496091 0.480592 0.290501 -0.119395
C16   C     C_R   0.514196 0.486505 0.068993 0.383790
C17   C     C_R   0.529831 0.498831 0.928793 0.391203
C18   C     C_2   0.255594 0.529227 0.739576 0.993995
C19   C     C_2   0.655837 0.306109 0.281460 0.999689
C20   C     C_2   0.279125 0.542181 0.886197 0.933777
C21   C     C_2   0.678051 0.318190 0.129236 0.978076
C22   C     C_2   0.771273 0.474277 0.825703 0.946041
C23   C     C_2   0.580731 0.874429 0.509425 -0.290229
C24   C     C_2   0.315930 0.630529 0.159469 0.945816
C25   C     C_2   0.569298 0.151594 0.615313 0.555982
C26   C     C_2   0.434603 0.860870 0.626062 0.581806
C27   C     C_2   0.328603 0.046211 0.482301 0.528956
C28   C     C_2   0.676097 0.948475 0.456351 0.502914
C29   C     C_2   0.123900 0.435643 0.420377 0.507822
C30   C     C_2   0.887641 0.640622 0.541289 0.499444
C31   C     C_2   0.421106 0.126575 0.521872 -0.316559
C32   C     C_2   0.507001 0.933181 0.564403 -0.139480
C33   C     C_2   0.496096 0.073359 0.565147 -0.122291
C34   C     C_2   0.929967 0.526540 0.498592 -0.073607
C35   C     C_2   0.075611 0.505657 0.485688 0.003081
C36   C     C_R   0.500411 0.501678 0.634748 0.790118
H1    H     H_    0.713579 0.480428 0.695963 0.193572
H2    H     H_    0.196315 0.646293 0.085622 0.372629
H3    H     H_    0.545779 0.249178 0.629042 0.048021
H4    H     H_    0.455418 0.762917 0.635023 0.052443
H5    H     H_    0.302495 0.945506 0.494917 0.097770
H6    H     H_    0.700094 0.050969 0.463907 0.085204
H7    H     H_    0.103101 0.468631 0.370315 0.052556
H8    H     H_    0.796344 0.636045 0.577619 0.100085
H9    H     H_    0.347557 0.616645 0.293896 0.185157
H10   H     H_    0.117135 0.594292 0.574806 0.194238
H11   H     H_    0.875649 0.368888 0.443518 0.184911
H12   H     H_    0.126100 0.640158 0.705150 0.350775
H13   H     H_    0.653608 0.167509 0.352996 0.348369
H14   H     H_    0.123240 0.647750 0.918074 0.362506
H15   H     H_    0.739698 0.140699 0.105738 0.374069
H16   H     H_    0.895199 0.497812 0.898839 0.377682
N1    N     N_R   0.506941 0.383297 0.960690 -0.090990
N2    N     N_R   0.538361 0.602020 0.036847 -0.115716
N3    N     N_R   0.499125 0.377209 0.030024 -0.104260
N4    N     N_R   0.544963 0.608243 0.967529 -0.103212
N5    N     N_2   0.842710 0.448880 0.471430 -0.227358
N6    N     N_2   0.157290 0.551120 0.528570 -0.185781
O1    O     O_R   0.431050 0.692470 0.505750 -0.629683
O2    O     O_R   0.219942 0.646419 0.717204 -0.732594
O3    O     O_2   0.775640 0.304015 0.263028 -0.584658
O4    O     O_R   0.590857 0.224071 0.334211 -0.763992
O5    O     O_2   0.247765 0.468184 0.935243 -0.556746
O6    O     O_R   0.201871 0.644822 0.879245 -0.747487
O7    O     O_2   0.759461 0.367739 0.082604 -0.566845
O8    O     O_R   0.671762 0.185312 0.139882 -0.743925
O9    O     O_2   0.856658 0.426810 0.783602 -0.564833
O10   O     O_R   0.801299 0.514382 0.892076 -0.768803
O11   O     O_2   0.279842 0.729422 0.189715 -0.572467
O12   O     O_R   0.568950 0.307530 0.494250 -0.634141
O13   O     O_R   0.261749 0.586770 0.099447 -0.751662
O14   O     O_2   0.655042 0.105895 0.642991 -0.524712
O15   O     O_2   0.352523 0.911829 0.668387 -0.491260
O16   O     O_2   0.280734 0.091846 0.434797 -0.462056
O17   O     O_2   0.729703 0.895066 0.403564 -0.516124
O18   O     O_2   0.177360 0.335578 0.422197 -0.469380
O19   O     O_2   0.956324 0.742632 0.536218 -0.556529
O20   O     O_R   0.651120 0.659650 0.487410 -0.579195
O21   O     O_R   0.348880 0.340350 0.512590 -0.520966
O22   O     O_R   0.389930 0.516430 0.611030 -0.609007
O23   O     O_R   0.610070 0.483570 0.388970 -0.591697
O24   O     O_R   0.610000 0.483610 0.592700 -0.658997
O25   O     O_R   0.390000 0.516390 0.407300 -0.604038
O26   O     O_2   0.177101 0.433567 0.742717 -0.562870
Zn1   Zn    Zn3+2 0.353060 0.521920 0.512240 1.030372
Zn2   Zn    Zn3+2 0.646940 0.478080 0.487760 0.981981

loop_
_geom_bond_atom_site_label_1
_geom_bond_atom_site_label_2
_ccdc_geom_bond_type
C26   C32   S    
C21   O8    S    
H14   O6    S    
C5    C20   S    
C25   H3    S    
C35   N6    D    
C19   O3    D    
C1    O1    A    
C14   C36   S    
C11   C14   A    
C9    C22   S    
C19   O4    S    
C12   O21   A    
C26   O15   D    
N5    Zn2   S    
C3    C18   S    
C34   C35   S    
C11   H1    S    
C30   O19   D    
C36   O24   A    
C7    C17   S    
C34   N5    D    
C18   O26   D    
C31   C33   D    
C27   O16   D    
O23   Zn2   S    
H16   O10   S    
O20   Zn2   S    
C8    C16   S    
H10   N6    S    
C1    O20   A    
C4    C19   S    
C30   H8    S    
C2    O25   A    
C24   O11   D    
H12   O2    S    
N1    N3    A    
N2    N4    A    
C30   C34   S    
C27   C31   S    
C4    C6    A    
C36   O22   A    
C5    C7    A    
C6    C8    A    
C10   C24   S    
O24   Zn2   S    
C6    C21   S    
H15   O8    S    
C20   O6    S    
O1    Zn1   S    
O22   Zn1   S    
H11   N5    S    
C27   H5    S    
C25   O14   D    
C23   C28   S    
C2    C15   S    
C9    C11   A    
C17   N4    A    
C22   O10   S    
C3    C14   A    
C18   O2    S    
O25   Zn1   S    
C1    C23   S    
C13   C15   A    
C12   C31   S    
O12   Zn2   S    
N6    Zn1   S    
C17   N1    A    
O21   Zn1   S    
C7    C9    A    
C12   O12   A    
H2    O13   S    
H13   O4    S    
C21   O7    D    
C3    C5    A    
C10   C13   A    
C29   C35   S    
C32   C33   S    
C4    C15   A    
C16   N3    A    
C23   C32   D    
C13   H9    S    
C26   H4    S    
C20   O5    D    
C28   H6    S    
C16   N2    A    
C22   O9    D    
C29   O18   D    
C8    C10   A    
C2    O23   A    
C28   O17   D    
C29   H7    S    
C24   O13   S    
C25   C33   S    
