data_mof_unit_11825.cif
_audit_creation_date              2013-03-05T15:45:23-0500
_audit_creation_method            fapswitch 2.2
_symmetry_space_group_name_H-M    P1
_symmetry_Int_Tables_number       1
_space_group_crystal_system       triclinic
_cell_length_a                    11.267514
_cell_length_b                    11.252594
_cell_length_c                    19.096492
_cell_angle_alpha                 90.101704
_cell_angle_beta                  89.967867
_cell_angle_gamma                 119.951602
_cell_volume                      2097.85691053

loop_
_atom_site_label
_atom_site_type_symbol
_atom_site_description
_atom_site_fract_x
_atom_site_fract_y
_atom_site_fract_z
_atom_type_partial_charge
O1    O     O_R   0.916700 0.566820 0.669930 -0.451381
O2    O     O_R   0.650120 0.083300 0.830070 -0.488336
O3    O     O_R   0.433180 0.349880 0.669930 -0.475698
O4    O     O_R   0.916700 0.566820 0.830070 -0.480273
O5    O     O_R   0.650120 0.083300 0.669930 -0.465123
O6    O     O_R   0.433180 0.349880 0.830070 -0.486914
O7    O     O_R   0.566820 0.916700 0.169930 -0.479178
O8    O     O_R   0.083300 0.650120 0.330070 -0.507867
O9    O     O_R   0.349880 0.433180 0.169930 -0.480745
O10   O     O_R   0.566820 0.916700 0.330070 -0.499306
O11   O     O_R   0.083300 0.650120 0.169930 -0.479996
O12   O     O_R   0.349880 0.433180 0.330070 -0.442939
O13   O     O_R   0.649840 0.534790 0.674920 -0.462072
O14   O     O_R   0.884950 0.350160 0.825080 -0.487505
O15   O     O_R   0.465210 0.115050 0.674920 -0.462088
O16   O     O_R   0.649840 0.534790 0.825080 -0.488998
O17   O     O_R   0.884950 0.350160 0.674920 -0.463297
O18   O     O_R   0.465210 0.115050 0.825080 -0.485661
O19   O     O_R   0.534790 0.649840 0.174920 -0.482361
O20   O     O_R   0.350160 0.884950 0.325080 -0.504616
O21   O     O_R   0.115050 0.465210 0.174920 -0.482800
O22   O     O_R   0.534790 0.649840 0.325080 -0.513478
O23   O     O_R   0.350160 0.884950 0.174920 -0.480735
O24   O     O_R   0.115050 0.465210 0.325080 -0.472806
C1    C     C_R   0.533051 0.465255 0.645393 0.515077
C2    C     C_R   0.932842 0.470812 0.854562 0.577083
C3    C     C_R   0.532606 0.064682 0.646298 0.529457
C4    C     C_R   0.529342 0.462021 0.854604 0.566160
C5    C     C_R   0.932340 0.466861 0.645343 0.581055
C6    C     C_R   0.538037 0.067303 0.854583 0.568891
C7    C     C_R   0.461996 0.529157 0.145450 0.587679
C8    C     C_R   0.468440 0.926626 0.356453 0.581047
C9    C     C_R   0.067274 0.537956 0.145388 0.589747
C10   C     C_R   0.459779 0.530108 0.355406 0.592966
C11   C     C_R   0.470671 0.932640 0.145406 0.590714
C12   C     C_R   0.071767 0.541844 0.355854 0.590159
Cr1   Cr    Cr6+3 0.776430 0.541680 0.750000 1.170492
Cr2   Cr    Cr6+3 0.765250 0.223570 0.750000 1.168961
Cr3   Cr    Cr6+3 0.458320 0.234750 0.750000 1.160084
Cr4   Cr    Cr6+3 0.541680 0.776430 0.250000 1.127429
Cr5   Cr    Cr6+3 0.223570 0.765250 0.250000 1.124513
Cr6   Cr    Cr6+3 0.234750 0.458320 0.250000 1.159490
O25   O     O_3   0.666667 0.333333 0.750000 -0.370119
O26   O     O_3   0.333333 0.666667 0.250000 -0.369738
C13   C     C_R   0.419744 0.056274 0.530471 -0.092116
C14   C     C_R   0.593964 0.605527 0.963696 -0.127699
C15   C     C_R   0.921713 0.364551 0.526322 -0.086029
C16   C     C_R   0.394381 0.987929 0.963472 -0.128508
C17   C     C_R   0.637096 0.566959 0.527671 -0.036600
C18   C     C_R   0.012048 0.406231 0.963340 -0.128017
C19   C     C_R   0.988275 0.394331 0.036323 -0.129133
C20   C     C_R   0.616850 0.561589 0.454704 -0.066396
C21   C     C_R   0.406118 0.011657 0.036489 -0.128967
C22   C     C_R   0.934657 0.386820 0.453405 -0.065254
C23   C     C_R   0.605741 0.593479 0.036663 -0.128345
C24   C     C_R   0.427016 0.043207 0.457428 -0.070424
C25   C     C_R   0.487504 0.969542 0.430871 -0.033011
C26   C     C_R   0.486594 0.503352 0.072762 0.009744
C27   C     C_R   0.022744 0.519541 0.428891 -0.015820
C28   C     C_R   0.496321 0.982791 0.072692 0.008867
C29   C     C_R   0.483492 0.507947 0.428915 -0.002236
C30   C     C_R   0.017174 0.513523 0.072648 0.009376
C31   C     C_R   0.983156 0.496586 0.927245 0.009207
C32   C     C_R   0.522580 0.511091 0.574423 -0.018325
C33   C     C_R   0.513514 0.017034 0.927280 0.009745
C34   C     C_R   0.988399 0.476689 0.574244 0.021545
C35   C     C_R   0.503730 0.486495 0.927362 0.009673
C36   C     C_R   0.482193 0.003107 0.576526 -0.052885
C37   C     C_R   0.550122 0.918353 0.478006 -0.073658
C38   C     C_R   0.377555 0.398316 0.034121 -0.011258
C39   C     C_R   0.080764 0.632017 0.477229 -0.106335
C40   C     C_R   0.601658 0.979093 0.034150 -0.010836
C41   C     C_R   0.370383 0.451580 0.476252 -0.069155
C42   C     C_R   0.020962 0.622745 0.034229 -0.010979
C43   C     C_R   0.979284 0.601918 0.965880 -0.011299
C44   C     C_R   0.391878 0.467675 0.548596 -0.082786
C45   C     C_R   0.622534 0.020895 0.965831 -0.009317
C46   C     C_R   0.080080 0.607079 0.549100 -0.023754
C47   C     C_R   0.398420 0.377422 0.965781 -0.010504
C48   C     C_R   0.530304 0.919787 0.550272 -0.030165
C49   C     C_2   0.344934 0.124778 0.556574 0.303940
H1    H     H_    0.365181 0.220661 0.533684 0.115791
O27   O     O_2   0.253990 0.070047 0.600097 -0.368731
C50   C     C_2   0.671365 0.737392 0.926790 0.267864
H2    H     H_    0.762215 0.817578 0.950229 0.211212
O28   O     O_2   0.631509 0.758550 0.871234 -0.415082
C51   C     C_2   0.836274 0.222752 0.550293 0.305891
H3    H     H_    0.732994 0.166014 0.531349 0.077603
O29   O     O_2   0.883639 0.166936 0.586329 -0.307688
C52   C     C_2   0.262729 0.933459 0.926386 0.268182
H4    H     H_    0.182484 0.944056 0.949803 0.209923
O30   O     O_2   0.241870 0.872593 0.870702 -0.402522
C53   C     C_2   0.779145 0.624894 0.552384 0.316078
H5    H     H_    0.839593 0.584150 0.531059 0.071435
O31   O     O_2   0.831554 0.723692 0.591649 -0.316358
C54   C     C_2   0.066054 0.328429 0.926155 0.268816
H6    H     H_    0.055248 0.237370 0.949425 0.210442
O32   O     O_2   0.126863 0.368200 0.870548 -0.410539
C55   C     C_2   0.934193 0.262544 0.073285 0.267921
H7    H     H_    0.944982 0.182294 0.049827 0.208786
O33   O     O_2   0.873364 0.241527 0.128905 -0.394294
C56   C     C_2   0.735434 0.610648 0.405631 0.254605
H8    H     H_    0.834487 0.696244 0.419869 0.169391
O34   O     O_2   0.724221 0.553351 0.349635 -0.398109
C57   C     C_2   0.328759 0.066239 0.073541 0.267464
H9    H     H_    0.238022 0.055738 0.050106 0.208657
O35   O     O_2   0.368501 0.127124 0.129220 -0.393831
C58   C     C_2   0.858331 0.271377 0.403127 0.281526
H10   H     H_    0.833333 0.168170 0.416581 0.166279
O36   O     O_2   0.819509 0.290241 0.346701 -0.395450
C59   C     C_2   0.737346 0.670813 0.073818 0.267236
H11   H     H_    0.817551 0.761755 0.050562 0.208474
O37   O     O_2   0.758238 0.630791 0.129385 -0.394170
C60   C     C_2   0.373665 0.109373 0.409011 0.255975
H12   H     H_    0.279990 0.109579 0.421452 0.182122
O38   O     O_2   0.435774 0.166607 0.355685 -0.395982
C61   C     C_2   0.645395 0.873269 0.453685 0.289546
H13   H     H_    0.609392 0.786149 0.420852 0.121858
O39   O     O_2   0.765996 0.935270 0.470543 -0.405582
C62   C     C_2   0.235516 0.332747 0.057800 0.278866
H14   H     H_    0.198997 0.400587 0.071962 0.094148
O40   O     O_2   0.167124 0.210360 0.069039 -0.460910
C63   C     C_2   0.122086 0.773908 0.455572 0.184575
H15   H     H_    0.189541 0.821853 0.412656 0.161099
O41   O     O_2   0.076909 0.838514 0.485922 -0.461513
C64   C     C_2   0.667915 0.903155 0.057949 0.278178
H16   H     H_    0.600695 0.799037 0.072454 0.096023
O42   O     O_2   0.790365 0.957256 0.068689 -0.462017
C65   C     C_2   0.227318 0.377316 0.452798 0.318642
H17   H     H_    0.162715 0.414818 0.470198 0.107210
O43   O     O_2   0.179553 0.268448 0.421401 -0.439020
C66   C     C_2   0.096950 0.764984 0.058154 0.278574
H18   H     H_    0.201014 0.801646 0.072564 0.095876
O44   O     O_2   0.042947 0.833560 0.069126 -0.460935
C67   C     C_2   0.903240 0.668084 0.942129 0.280160
H19   H     H_    0.799195 0.600637 0.927645 0.096984
O45   O     O_2   0.957197 0.790635 0.931322 -0.458049
C68   C     C_2   0.278262 0.434027 0.599109 0.257097
H20   H     H_    0.296079 0.501190 0.643529 0.152649
O46   O     O_2   0.169007 0.327425 0.594603 -0.396756
C69   C     C_2   0.764543 0.097029 0.942052 0.281335
H21   H     H_    0.801232 0.201363 0.927947 0.096225
O47   O     O_2   0.832755 0.042807 0.930685 -0.458147
C70   C     C_2   0.171760 0.718414 0.598314 0.270933
H22   H     H_    0.211719 0.824369 0.584997 0.195422
O48   O     O_2   0.206387 0.692086 0.654097 -0.501187
C71   C     C_2   0.332397 0.235160 0.941914 0.280952
H23   H     H_    0.399778 0.198363 0.927454 0.098223
O49   O     O_2   0.209974 0.166657 0.931109 -0.459194
C72   C     C_2   0.559131 0.836244 0.600517 0.279207
H24   H     H_    0.490069 0.787401 0.644210 0.131316
O50   O     O_2   0.663138 0.829020 0.596938 -0.369958

loop_
_geom_bond_atom_site_label_1
_geom_bond_atom_site_label_2
_geom_bond_distance
_ccdc_geom_bond_type
O16   C4    1.312411 A    
C51   H3    1.072603 S    
C36   C48   1.389168 A    
C53   H5    1.072745 S    
C60   O38   1.221892 D    
C42   C66   1.460501 S    
O24   Cr6   1.995643 S    
C71   H23   1.066474 S    
O18   Cr3   1.996832 S    
C12   C27   1.474912 S    
O19   C7    1.311186 A    
C60   H12   1.082890 S    
C63   H15   1.063863 S    
C58   H10   1.080936 S    
C48   C72   1.489410 S    
C57   O35   1.221496 D    
C20   C56   1.494031 S    
O9    Cr6   2.112704 S    
C64   H16   1.066706 S    
O10   C8    1.271966 A    
C7    C26   1.471864 S    
C39   C63   1.482204 S    
C71   O49   1.215540 D    
C50   O28   1.221511 D    
C9    C30   1.472530 S    
C20   C29   1.399585 A    
C61   O39   1.220640 D    
C43   C67   1.460422 S    
C63   O41   1.221150 D    
O21   C9    1.311453 A    
C28   C40   1.414357 A    
O17   C5    1.276993 A    
C24   C25   1.403945 A    
O10   Cr4   2.110702 S    
O8    C12   1.260061 A    
O12   Cr6   2.114482 S    
C3    C36   1.477380 S    
O5    C3    1.313055 A    
C52   O30   1.221497 D    
O6    C4    1.272421 A    
C59   H11   1.067173 S    
C13   C24   1.408952 A    
C38   C62   1.459965 S    
C66   H18   1.066645 S    
C54   O32   1.221497 D    
C14   C23   1.412956 A    
O7    Cr4   2.114529 S    
O18   C6    1.311979 A    
C16   C33   1.395560 A    
C15   C34   1.429768 A    
O13   Cr1   1.996912 S    
O1    Cr1   2.113853 S    
O16   Cr1   1.995959 S    
C67   H19   1.066795 S    
O3    Cr3   2.114369 S    
C53   O31   1.220202 D    
C17   C32   1.431055 A    
C16   C52   1.472902 S    
O5    Cr2   2.112172 S    
C18   C31   1.395735 A    
O13   C1    1.277870 A    
C19   C30   1.395326 A    
Cr6   O26   2.032212 S    
C8    C25   1.480968 S    
O22   C10   1.315325 A    
C49   O27   1.221001 D    
C21   C28   1.395595 A    
C62   O40   1.215586 D    
O20   Cr5   1.995356 S    
C22   C27   1.398749 A    
C19   C55   1.472938 S    
C16   C21   1.413038 A    
C34   C46   1.392444 A    
C41   C65   1.466905 S    
C33   C45   1.414354 A    
C42   C43   1.367027 A    
O11   C9    1.271086 A    
C4    C35   1.472123 S    
C35   C47   1.414444 A    
O8    Cr5   2.115204 S    
C70   O48   1.221385 D    
C68   H20   1.085101 S    
C26   C38   1.413814 A    
C47   C71   1.460275 S    
C29   C41   1.427344 A    
C10   C29   1.473881 S    
C49   H1    1.078422 S    
Cr2   O25   2.032076 S    
C5    C34   1.478015 S    
C40   C64   1.460416 S    
C11   C28   1.472971 S    
C1    C32   1.476516 S    
C15   C51   1.466477 S    
Cr1   O25   2.032414 S    
C2    C31   1.472156 S    
C40   C45   1.367494 A    
C46   C70   1.491485 S    
O14   Cr2   1.995083 S    
O2    Cr2   2.115172 S    
O15   C3    1.274686 A    
C55   H7    1.067246 S    
O3    C1    1.309249 A    
C17   C20   1.408405 A    
O22   Cr4   1.996876 S    
C54   H6    1.067325 S    
O14   C2    1.310517 A    
C13   C36   1.431593 A    
O1    C5    1.308678 A    
C18   C19   1.412996 A    
C32   C44   1.390066 A    
C59   O37   1.221499 D    
O24   C12   1.320848 A    
C50   H2    1.067311 S    
C56   O34   1.221275 D    
O15   Cr3   1.993334 S    
C68   O46   1.219423 D    
C15   C22   1.409784 A    
C14   C50   1.473045 S    
C55   O33   1.221508 D    
O23   C11   1.312256 A    
C51   O29   1.220464 D    
C41   C44   1.398475 A    
C72   O50   1.216412 D    
O12   C10   1.267772 A    
C62   H14   1.066763 S    
C65   H17   1.060323 S    
O20   C8    1.315612 A    
C67   O45   1.215567 D    
C64   O42   1.215493 D    
C23   C59   1.473112 S    
C38   C47   1.366557 A    
O6    Cr3   2.110809 S    
O7    C11   1.272814 A    
C13   C49   1.483291 S    
C70   H22   1.074153 S    
O4    C2    1.271648 A    
C44   C68   1.492854 S    
C57   H9    1.067333 S    
O23   Cr5   1.997643 S    
C22   C58   1.493297 S    
O2    C6    1.272431 A    
C25   C37   1.431128 A    
C69   O47   1.215602 D    
C14   C35   1.395297 A    
C61   H13   1.058172 S    
C18   C54   1.473176 S    
C52   H4    1.067109 S    
C31   C43   1.414072 A    
C37   C61   1.472365 S    
Cr5   O26   2.032269 S    
C58   O36   1.221278 D    
O11   Cr5   2.113161 S    
O17   Cr2   1.997630 S    
C56   H8    1.083171 S    
C45   C69   1.460204 S    
C6    C33   1.473043 S    
O19   Cr4   1.993306 S    
O9    C7    1.272628 A    
O21   Cr6   1.996929 S    
C21   C57   1.473076 S    
Cr4   O26   2.035005 S    
O4    Cr1   2.114408 S    
Cr3   O25   2.034996 S    
C66   O44   1.215625 D    
C23   C26   1.395695 A    
C24   C60   1.490139 S    
C72   H24   1.085187 S    
C30   C42   1.414708 A    
C37   C48   1.399201 A    
C17   C53   1.472174 S    
C69   H21   1.066850 S    
C39   C46   1.400607 A    
C27   C39   1.432370 A    
C65   O43   1.220370 D    
