data_mof_unit_8327.cif
_audit_creation_date              2012-12-10T20:32:54-0500
_audit_creation_method            fapswitch 2.2
_symmetry_space_group_name_H-M    P1
_symmetry_Int_Tables_number       1
_space_group_crystal_system       triclinic
_cell_length_a                    19.331129
_cell_length_b                    19.284749
_cell_length_c                    19.261851
_cell_angle_alpha                 111.643165
_cell_angle_beta                  111.602238
_cell_angle_gamma                 105.027279
_cell_volume                      5519.30810894

loop_
_atom_site_label
_atom_site_type_symbol
_atom_type_description
_atom_site_fract_x
_atom_site_fract_y
_atom_site_fract_z
_atom_type_partial_charge
C1    C     C_R   0.891234 0.390705 0.000633 0.883305
C2    C     C_R   0.450332 0.268655 0.599646 0.148557
C3    C     C_3   0.531256 0.504683 0.053272 -0.352618
C4    C     C_3   0.508179 0.506693 0.969599 -0.983879
C5    C     C_3   0.903118 0.602170 0.603651 -0.462763
C6    C     C_3   0.924998 0.683712 0.601842 -0.352353
C7    C     C_3   0.006187 0.755229 0.685243 -0.884829
C8    C     C_3   0.134883 0.098032 0.951940 -0.444102
C9    C     C_3   0.160040 0.192389 0.993425 -0.355358
C10   C     C_3   0.088175 0.207991 0.946573 -0.855441
C11   C     C_3   0.512350 0.905019 0.738425 -0.403871
C12   C     C_3   0.604152 0.971700 0.799858 -0.329639
C13   C     C_R   0.433405 0.207797 0.519132 -0.155428
C14   C     C_3   0.618939 0.047729 0.788915 -0.887383
C15   C     C_3   0.394351 0.550844 0.717766 0.101338
C16   C     C_3   0.395129 0.505396 0.768138 -0.355125
C17   C     C_3   0.306684 0.446163 0.737645 -0.980927
C18   C     C_3   0.640885 0.675744 0.915032 0.107176
C19   C     C_3   0.720744 0.687164 0.985602 -0.381464
C20   C     C_3   0.728585 0.605821 0.957957 -0.966655
C21   C     C_3   0.763952 0.662291 0.769356 -0.373358
C22   C     C_3   0.809984 0.696874 0.730245 -0.296187
C23   C     C_3   0.797044 0.770655 0.727090 -0.904917
C24   C     C_R   0.879780 0.499436 0.880013 0.906983
C25   C     C_3   0.719289 0.348692 0.766513 -0.413625
C26   C     C_3   0.690301 0.357561 0.832250 -0.337828
C27   C     C_3   0.644649 0.272410 0.819617 -0.895434
C28   C     C_3   0.385507 0.258389 0.625787 -0.459185
C29   C     C_3   0.413597 0.246262 0.704245 -0.337498
C30   C     C_3   0.348730 0.236832 0.731699 -0.875922
C31   C     C_R   0.494051 0.218212 0.495606 -0.149425
C32   C     C_R   0.572074 0.289072 0.552239 -0.173405
C33   C     C_R   0.589580 0.350401 0.632519 0.135487
C34   C     C_1   0.831408 0.330684 0.001246 -0.128318
C35   C     C_1   0.780554 0.280442 0.001773 0.024227
C36   C     C_1   0.720707 0.221848 0.001875 -0.026398
C37   C     C_1   0.669463 0.171052 0.001438 -0.190231
C38   C     C_R   0.065634 0.790179 0.977619 -0.222767
C39   C     C_R   0.092817 0.624349 0.379505 -0.214998
C40   C     C_R   0.150800 0.605888 0.359790 -0.157709
C41   C     C_R   0.124469 0.529382 0.286610 0.066453
C42   C     C_R   0.110154 0.609309 0.000790 0.917956
C43   C     C_R   0.039425 0.470500 0.234790 -0.200482
C44   C     C_R   0.981129 0.487882 0.255548 0.566111
C45   C     C_R   0.008195 0.566366 0.326990 -0.230604
C46   C     C_R   0.251620 0.510248 0.326524 -0.270020
C47   C     C_R   0.314014 0.498143 0.311604 -0.070844
C48   C     C_R   0.313305 0.487344 0.235057 0.022538
C49   C     C_R   0.759218 0.577397 0.755767 0.029267
C50   C     C_R   0.247646 0.487001 0.172844 -0.258235
C51   C     C_R   0.184709 0.498947 0.187359 -0.080798
C52   C     C_R   0.186839 0.512000 0.265449 0.027442
C53   C     C_R   0.435133 0.532970 0.215611 -0.247045
C54   C     C_R   0.119158 0.499227 0.120550 0.864224
C55   C     C_R   0.495290 0.517574 0.197020 0.559703
C56   C     C_R   0.498512 0.441919 0.181221 -0.209780
C57   C     C_R   0.439562 0.380308 0.179090 -0.225397
C58   C     C_R   0.379664 0.395334 0.197567 -0.166318
C59   C     C_R   0.377429 0.471994 0.216493 0.074079
C60   C     C_R   0.685040 0.501614 0.690955 -0.161014
C61   C     C_1   0.171894 0.669581 0.002382 -0.175230
C62   C     C_1   0.223060 0.720916 0.003261 -0.021152
C63   C     C_1   0.281414 0.780780 0.002930 -0.047938
C64   C     C_1   0.331326 0.831302 0.001733 -0.212274
C65   C     C_R   0.503956 0.379590 0.383551 0.903047
C66   C     C_R   0.007147 0.785400 0.004999 0.549044
C67   C     C_R   0.620195 0.500607 0.621677 0.905230
C68   C     C_R   0.497190 0.620175 0.617736 0.946009
C69   C     C_R   0.379807 0.498582 0.378066 0.895820
C70   C     C_R   0.499537 0.881975 0.877494 0.904459
C71   C     C_R   0.672011 0.426669 0.693031 -0.051966
C72   C     C_R   0.609225 0.110128 0.000731 0.891673
C73   C     C_R   0.500717 0.118438 0.122331 0.859417
C74   C     C_R   0.390890 0.890686 0.000212 0.906627
C75   C     C_R   0.768840 0.529815 0.453954 -0.158835
C76   C     C_R   0.691656 0.460418 0.387008 -0.141569
C77   C     C_R   0.663002 0.389748 0.393439 0.119158
C78   C     C_R   0.929845 0.713271 0.952841 -0.192692
C79   C     C_R   0.713291 0.388007 0.466164 -0.194434
C80   C     C_R   0.790429 0.457246 0.533180 -0.187939
C81   C     C_R   0.819020 0.529228 0.528384 0.184403
C82   C     C_R   0.736137 0.425683 0.756684 0.034214
C83   C     C_R   0.577324 0.250092 0.259463 -0.251120
C84   C     C_R   0.500051 0.182257 0.190100 -0.072557
C85   C     C_R   0.424424 0.178873 0.185216 -0.000123
C86   C     C_R   0.428868 0.243258 0.252854 -0.272468
C87   C     C_R   0.505555 0.312793 0.319713 -0.075085
C88   C     C_R   0.580703 0.317150 0.323447 -0.001921
C89   C     C_R   0.282085 0.136545 0.067802 -0.176278
C90   C     C_R   0.909447 0.648410 0.872774 0.069789
C91   C     C_R   0.200882 0.075898 0.997043 0.162702
C92   C     C_R   0.179586 0.990830 0.967043 -0.196835
C93   C     C_R   0.813316 0.498885 0.814293 -0.130855
C94   C     C_R   0.236989 0.967140 0.008119 -0.146250
C95   C     C_R   0.316275 0.027798 0.080151 -0.096148
C96   C     C_R   0.340072 0.112955 0.109445 0.096476
C97   C     C_R   0.565921 0.801510 0.527837 -0.149792
C98   C     C_R   0.568784 0.801308 0.601361 -0.101889
C99   C     C_R   0.494610 0.759882 0.597127 0.158521
C100  C     C_R   0.417780 0.718915 0.518747 -0.189965
C101  C     C_R   0.415164 0.719721 0.445535 -0.127266
C102  C     C_R   0.968474 0.654167 0.846799 -0.199815
C103  C     C_R   0.489185 0.760711 0.449977 -0.092888
C104  C     C_R   0.825662 0.574192 0.814339 -0.037079
C105  C     C_R   0.500252 0.823995 0.739937 0.047404
C106  C     C_R   0.497578 0.815704 0.809322 -0.164551
C107  C     C_R   0.491196 0.742680 0.812916 -0.084405
C108  C     C_R   0.484071 0.675722 0.745200 0.408882
C109  C     C_R   0.492381 0.685491 0.679742 -0.230799
C110  C     C_R   0.497059 0.757199 0.674144 -0.093621
C111  C     C_R   0.560595 0.736100 0.948114 0.572928
C112  C     C_R   0.557564 0.726149 0.015812 -0.276722
C113  C     C_R   0.484072 0.708133 0.018306 -0.185494
C114  C     C_R   0.045543 0.725634 0.898154 -0.231404
C115  C     C_R   0.528318 0.340278 0.655585 -0.111841
C116  C     C_R   0.413703 0.701544 0.954474 -0.114581
C117  C     C_R   0.417455 0.716591 0.890079 -0.261487
C118  C     C_R   0.490671 0.733878 0.886253 0.096205
C119  C     C_3   0.861989 0.401654 0.240978 0.061596
C120  C     C_3   0.878828 0.328775 0.242908 -0.368442
C121  C     C_3   0.829317 0.286334 0.274176 -0.925561
C122  C     C_3   0.059648 0.928312 0.099849 0.060626
C123  C     C_3   0.150318 0.979605 0.176480 -0.324887
C124  C     C_3   0.187285 0.070046 0.197834 -0.966295
C125  C     C_3   0.522296 0.572589 0.117732 0.058183
H1    H     H_    0.127058 0.842993 0.018374 0.137734
H2    H     H_    0.245855 0.477836 0.113017 0.158283
H3    H     H_    0.795180 0.708663 0.839903 0.182879
H4    H     H_    0.585724 0.232434 0.755004 0.259252
H5    H     H_    0.684562 0.240028 0.823318 0.269925
H6    H     H_    0.628830 0.281136 0.871115 0.257419
H7    H     H_    0.745304 0.399494 0.899593 0.221062
H8    H     H_    0.647474 0.386584 0.825054 0.218872
H9    H     H_    0.671882 0.290496 0.702658 0.212758
H10   H     H_    0.774422 0.336985 0.786559 0.214428
H11   H     H_    0.339877 0.294161 0.751467 0.265324
H12   H     H_    0.287966 0.181692 0.677156 0.260466
H13   H     H_    0.433842 0.592318 0.229905 0.134782
H14   H     H_    0.370556 0.227621 0.788088 0.249398
H15   H     H_    0.423044 0.189136 0.686965 0.224353
H16   H     H_    0.473798 0.301040 0.760676 0.219234
H17   H     H_    0.375124 0.314957 0.642270 0.204276
H18   H     H_    0.324821 0.203400 0.570460 0.199866
H19   H     H_    0.545882 0.430272 0.168925 0.135820
H20   H     H_    0.440710 0.320949 0.162936 0.171622
H21   H     H_    0.334844 0.347336 0.196806 0.118065
H22   H     H_    0.788473 0.583194 0.446628 0.122405
H23   H     H_    0.653750 0.462029 0.330466 0.141547
H24   H     H_    0.692852 0.332980 0.470816 0.129345
H25   H     H_    0.828017 0.454868 0.589298 0.132693
H26   H     H_    0.885218 0.708229 0.974170 0.149541
H27   H     H_    0.373427 0.152299 0.474595 0.123467
H28   H     H_    0.634838 0.252360 0.261699 0.153378
H29   H     H_    0.371520 0.241373 0.250866 0.158522
H30   H     H_    0.301232 0.202404 0.091371 0.118306
H31   H     H_    0.117990 0.942654 0.912112 0.131554
H32   H     H_    0.219766 0.901442 0.983908 0.141247
H33   H     H_    0.359236 0.008523 0.112791 0.102830
H34   H     H_    0.487082 0.760740 0.393055 0.122356
H35   H     H_    0.623223 0.832992 0.531109 0.124633
H36   H     H_    0.628627 0.831997 0.660919 0.115103
H37   H     H_    0.954389 0.603509 0.786479 0.136102
H38   H     H_    0.480629 0.171145 0.433465 0.142180
H39   H     H_    0.360232 0.686287 0.514505 0.112563
H40   H     H_    0.355843 0.688242 0.385214 0.139977
H41   H     H_    0.611614 0.730749 0.065531 0.141464
H42   H     H_    0.481285 0.698615 0.069325 0.140982
H43   H     H_    0.356121 0.684531 0.954895 0.154892
H44   H     H_    0.362570 0.712334 0.841600 0.133337
H45   H     H_    0.090470 0.730249 0.877150 0.167674
H46   H     H_    0.540991 0.388881 0.716523 0.109670
H47   H     H_    0.793275 0.378132 0.202290 0.177855
H48   H     H_    0.883379 0.451073 0.307950 0.119585
H49   H     H_    0.618783 0.296166 0.533847 0.118889
H50   H     H_    0.860855 0.281692 0.176484 0.240810
H51   H     H_    0.946678 0.352611 0.287383 0.206523
H52   H     H_    0.846257 0.332230 0.340633 0.260538
H53   H     H_    0.843815 0.234829 0.276301 0.264673
H54   H     H_    0.761073 0.259320 0.228754 0.264261
H55   H     H_    0.022191 0.958476 0.117657 0.166359
H56   H     H_    0.055724 0.930615 0.041483 0.118100
H57   H     H_    0.152489 0.979675 0.234981 0.229519
H58   H     H_    0.189348 0.950774 0.160726 0.216542
H59   H     H_    0.184956 0.071641 0.140072 0.278804
H60   H     H_    0.963692 0.583093 0.341217 0.131935
H61   H     H_    0.253591 0.104825 0.251914 0.265766
H62   H     H_    0.151911 0.101720 0.218298 0.261154
H63   H     H_    0.559881 0.634067 0.128770 0.172422
H64   H     H_    0.456073 0.562014 0.089208 0.119504
H65   H     H_    0.596831 0.514374 0.084123 0.233938
H66   H     H_    0.489230 0.441684 0.035650 0.211522
H67   H     H_    0.443243 0.498496 0.938626 0.273504
H68   H     H_    0.512232 0.455037 0.923150 0.265245
H69   H     H_    0.552017 0.567140 0.984053 0.264560
H70   H     H_    0.999637 0.767828 0.743035 0.259709
H71   H     H_    0.113343 0.684287 0.434842 0.154256
H72   H     H_    0.058702 0.739175 0.693043 0.263183
H73   H     H_    0.021043 0.813103 0.681895 0.246812
H74   H     H_    0.932857 0.674285 0.545223 0.218291
H75   H     H_    0.873989 0.701963 0.595911 0.222077
H76   H     H_    0.903175 0.615659 0.664803 0.198723
H77   H     H_    0.952619 0.582427 0.605481 0.202617
H78   H     H_    0.069525 0.182261 0.876980 0.254774
H79   H     H_    0.033433 0.178107 0.950556 0.258114
H80   H     H_    0.108421 0.276536 0.977934 0.260599
H81   H     H_    0.177830 0.219971 0.062991 0.221781
H82   H     H_    0.216042 0.652017 0.400476 0.131518
H83   H     H_    0.214151 0.224605 0.989706 0.225700
H84   H     H_    0.118379 0.071594 0.882826 0.203181
H85   H     H_    0.077966 0.066718 0.952222 0.199787
H86   H     H_    0.603212 0.028848 0.721018 0.259894
H87   H     H_    0.579999 0.077035 0.804210 0.272016
H88   H     H_    0.685852 0.094654 0.833799 0.254032
H89   H     H_    0.622267 0.992151 0.868556 0.216284
H90   H     H_    0.645114 0.944945 0.785797 0.219389
H91   H     H_    0.492393 0.893862 0.671846 0.206582
H92   H     H_    0.471448 0.929930 0.754604 0.222252
H93   H     H_    0.018331 0.411292 0.178083 0.118933
H94   H     H_    0.362586 0.503354 0.647410 0.171591
H95   H     H_    0.356461 0.584886 0.725124 0.117085
H96   H     H_    0.430576 0.469060 0.759358 0.222701
H97   H     H_    0.427095 0.552404 0.838619 0.233649
H98   H     H_    0.270307 0.481442 0.746032 0.269233
H99   H     H_    0.309578 0.416035 0.777155 0.264347
H100  H     H_    0.274396 0.396493 0.667946 0.260903
H101  H     H_    0.646032 0.662829 0.856405 0.178086
H102  H     H_    0.586489 0.618862 0.895015 0.145426
H103  H     H_    0.775811 0.737359 0.998030 0.230526
H104  H     H_    0.254316 0.519752 0.386816 0.146840
H105  H     H_    0.720205 0.706500 0.047214 0.225314
H106  H     H_    0.676729 0.556428 0.950654 0.263991
H107  H     H_    0.788907 0.616735 0.008225 0.280927
H108  H     H_    0.726540 0.583476 0.894960 0.270308
H109  H     H_    0.729714 0.750170 0.684081 0.274553
H110  H     H_    0.819663 0.821514 0.793648 0.258164
H111  H     H_    0.832710 0.795642 0.700684 0.242525
H112  H     H_    0.877991 0.718837 0.770417 0.220595
H113  H     H_    0.787452 0.647405 0.663169 0.248487
H114  H     H_    0.700399 0.658097 0.742421 0.203338
O1    O     O_R   0.916810 0.468940 0.051330 -0.595280
O2    O     O_R   0.550070 0.907030 0.957060 -0.604796
O3    O     O_R   0.531060 0.084080 0.949590 -0.619434
O4    O     O_R   0.917640 0.365500 0.948670 -0.632197
O5    O     O_R   0.634490 0.081390 0.050330 -0.618371
O6    O     O_R   0.449930 0.092880 0.042850 -0.611351
O7    O     O_R   0.553360 0.090200 0.143600 -0.626801
O8    O     O_R   0.365510 0.918520 0.949590 -0.616584
O9    O     O_R   0.468940 0.915840 0.050330 -0.602363
O10   O     O_R   0.907960 0.551720 0.959710 -0.621913
O11   O     O_R   0.908790 0.448280 0.857050 -0.637803
O12   O     O_R   0.453980 0.361630 0.409070 -0.625848
O13   O     O_R   0.082360 0.634500 0.051330 -0.602913
O14   O     O_R   0.083190 0.531060 0.948670 -0.622876
O15   O     O_R   0.091210 0.551720 0.142950 -0.610768
O16   O     O_R   0.092040 0.448280 0.040290 -0.630931
O17   O     O_R   0.547440 0.455060 0.409050 -0.610784
O18   O     O_3   0.896990 0.431761 0.198785 -0.654267
O19   O     O_3   0.025771 0.846216 0.085255 -0.657004
O20   O     O_3   0.554647 0.578405 0.199728 -0.661129
O21   O     O_3   0.478101 0.603550 0.747925 -0.663273
O22   O     O_3   0.632524 0.750631 0.943799 -0.654337
O23   O     O_R   0.638350 0.546700 0.591580 -0.622545
O24   O     O_R   0.544890 0.453260 0.591610 -0.614627
O25   O     O_R   0.546020 0.638330 0.590880 -0.632007
O26   O     O_R   0.452560 0.544900 0.590910 -0.614904
O27   O     O_R   0.455110 0.546690 0.408340 -0.600853
O28   O     O_R   0.361650 0.453260 0.408370 -0.639493
O29   O     O_R   0.446640 0.909720 0.856320 -0.639465
Zn1   Zn    Zn3+2 0.999450 0.569070 0.068540 0.988332
Zn2   Zn    Zn3+2 0.000550 0.430930 0.931460 0.931776
Zn3   Zn    Zn3+2 0.562400 0.562360 0.499960 0.965745
Zn4   Zn    Zn3+2 0.437600 0.437590 0.500000 0.945632
Zn5   Zn    Zn3+2 0.430940 0.001750 0.932690 0.946196
Zn6   Zn    Zn3+2 0.569060 0.998160 0.067220 0.969317

loop_
_geom_bond_atom_site_label_1
_geom_bond_atom_site_label_2
_ccdc_geom_bond_type
C8    C9    S    
C6    H75   S    
C55   C56   A    
C75   C76   A    
C20   H107  S    
C57   H20   S    
C95   H33   S    
C27   H6    S    
C54   O16   A    
C4    H67   S    
C16   H97   S    
C19   C20   S    
C41   C52   S    
C12   H89   S    
C105  C110  A    
C103  H34   S    
C67   O23   A    
C49   C104  A    
C21   C49   S    
C97   C98   A    
C53   C59   A    
C123  C124  S    
C121  H54   S    
C85   C86   A    
C108  C109  A    
C122  H55   S    
C26   C27   S    
C62   C63   S    
C49   C60   A    
C14   H86   S    
C125  H63   S    
C102  C114  A    
C113  H42   S    
C36   C37   T    
O26   Zn4   S    
C124  H59   S    
C123  H57   S    
C3    H66   S    
C9    H81   S    
C70   O2    A    
C5    H76   S    
C6    H74   S    
C38   C114  A    
C85   C96   S    
O13   Zn1   S    
C89   H30   S    
C73   O6    A    
C106  C107  A    
C15   C16   S    
C37   C72   S    
C65   O17   A    
C46   C52   A    
C74   O9    A    
C116  C117  A    
O6    Zn5   S    
C34   C35   T    
O28   Zn4   S    
C2    C13   A    
C72   O5    A    
C47   C69   S    
C123  H58   S    
C1    O4    A    
O23   Zn3   S    
C23   H109  S    
C17   H100  S    
C122  O19   S    
C122  H56   S    
C111  O22   S    
C95   C96   A    
C60   C67   S    
C16   C17   S    
O29   Zn5   S    
C11   C105  S    
C47   C48   A    
C107  C108  A    
O8    Zn5   S    
C18   H101  S    
C10   H78   S    
C11   H92   S    
C73   C84   S    
C17   H99   S    
C11   H91   S    
C39   C45   A    
C71   C82   A    
C23   H110  S    
C78   H26   S    
C77   C79   A    
C83   C88   A    
C44   O18   S    
C40   H82   S    
C42   O13   A    
C101  C103  A    
C20   H106  S    
C21   C22   S    
O5    Zn6   S    
C54   O15   A    
C16   H96   S    
C94   C95   A    
C7    H73   S    
C8    H85   S    
C93   C104  A    
C112  C113  A    
C38   H1    S    
C120  H51   S    
C1    C34   S    
C65   C87   S    
C6    C7    S    
C122  C123  S    
C53   C55   A    
C1    O1    A    
C4    H68   S    
C66   C78   A    
O17   Zn3   S    
C31   H38   S    
C33   C115  A    
C68   O25   A    
C125  H64   S    
C53   H13   S    
C97   H35   S    
O10   Zn1   S    
O7    Zn6   S    
C84   C85   A    
C77   C88   S    
C18   O22   S    
C115  H46   S    
C70   C106  S    
C3    H65   S    
C91   C92   A    
C8    C91   S    
C86   C87   A    
C18   C19   S    
C121  H52   S    
C73   O7    A    
C60   C71   A    
C75   H22   S    
C25   C26   S    
C99   C110  S    
C32   H49   S    
C48   C50   A    
C78   C90   A    
C51   C52   A    
C14   H88   S    
C35   C36   S    
C56   H19   S    
O2    Zn6   S    
C7    H72   S    
C4    H69   S    
C19   H103  S    
C100  H39   S    
O9    Zn6   S    
C29   C30   S    
C17   H98   S    
C72   O3    A    
C5    C81   S    
C2    C115  A    
C120  H50   S    
C83   C84   A    
O14   Zn2   S    
C102  H37   S    
C29   H16   S    
C92   C94   A    
C50   C51   A    
C69   O27   A    
C28   H18   S    
C76   C77   A    
C21   H3    S    
C101  H40   S    
C25   H9    S    
C42   C61   S    
C90   C104  S    
C68   O26   A    
C97   C103  A    
C13   H27   S    
C23   H111  S    
C40   C41   A    
C21   H114  S    
C12   C14   S    
C20   H108  S    
C94   H32   S    
C30   H11   S    
C111  C118  A    
C43   C44   A    
O24   Zn4   S    
C25   C82   S    
C27   H4    S    
C46   H104  S    
C79   C80   A    
C108  O21   S    
C43   H93   S    
C89   C91   A    
C56   C57   A    
O11   Zn2   S    
C7    H70   S    
C8    H84   S    
C92   H31   S    
C5    H77   S    
C98   H36   S    
C26   H7    S    
C44   C45   A    
C48   C59   S    
C9    C10   S    
C114  H45   S    
C29   H15   S    
C38   C66   A    
C46   C47   A    
C28   C29   S    
C30   H14   S    
C107  C118  S    
C111  C112  A    
C119  O18   S    
C22   C23   S    
C10   H80   S    
C31   C32   A    
C75   C81   A    
C41   C43   A    
O3    Zn5   S    
C80   C81   A    
C66   O19   S    
C9    H83   S    
O12   Zn4   S    
C69   O28   A    
C124  H62   S    
C67   O24   A    
C119  C120  S    
C58   H21   S    
C113  C116  A    
C70   O29   A    
C121  H53   S    
C83   H28   S    
C14   H87   S    
O25   Zn3   S    
C24   O10   A    
C105  C106  A    
C125  O20   S    
C39   H71   S    
C117  C118  A    
C42   O14   A    
C99   C100  A    
C79   H24   S    
C3    C125  S    
O27   Zn3   S    
C51   C54   S    
C32   C33   A    
C22   H112  S    
O1    Zn1   S    
C65   O12   A    
C86   H29   S    
O4    Zn2   S    
C26   H8    S    
C90   C102  A    
C24   C93   S    
C119  H48   S    
C124  H61   S    
C74   O8    A    
C45   H60   S    
C57   C58   A    
C5    C6    S    
C10   H79   S    
C89   C96   A    
C24   O11   A    
C100  C101  A    
O15   Zn1   S    
C112  H41   S    
C80   H25   S    
C55   O20   S    
C68   C109  S    
C61   C62   T    
C13   C31   A    
C119  H47   S    
C58   C59   A    
C18   H102  S    
C33   C71   S    
C63   C64   T    
C39   C40   A    
C117  H44   S    
C28   H17   S    
C76   H23   S    
C87   C88   A    
C82   C93   A    
C98   C99   A    
C25   H10   S    
C30   H12   S    
C27   H5    S    
C64   C74   S    
C120  C121  S    
C116  H43   S    
C2    C28   S    
C50   H2    S    
C12   H90   S    
C15   H95   S    
C109  C110  A    
C15   H94   S    
C19   H105  S    
C15   O21   S    
C3    C4    S    
C11   C12   S    
C22   H113  S    
O16   Zn2   S    
