data_mof_unit_53264.cif
_audit_creation_date              2012-12-10T18:46:12-0500
_audit_creation_method            fapswitch 2.2
_symmetry_space_group_name_H-M    P1
_symmetry_Int_Tables_number       1
_space_group_crystal_system       triclinic
_cell_length_a                    9.855186
_cell_length_b                    10.636437
_cell_length_c                    13.118347
_cell_angle_alpha                 89.966754
_cell_angle_beta                  71.142787
_cell_angle_gamma                 89.94988
_cell_volume                      1301.31114721

loop_
_atom_site_label
_atom_site_type_symbol
_atom_type_description
_atom_site_fract_x
_atom_site_fract_y
_atom_site_fract_z
_atom_type_partial_charge
C1    C     C_R   0.499882 0.739586 0.500227 0.903461
C2    C     C_R   0.435651 0.431303 0.983263 0.085905
C3    C     C_R   0.472104 0.419260 0.870554 0.078804
C4    C     C_R   0.543652 0.410202 0.030944 0.061722
C5    C     C_R   0.688316 0.398404 0.965223 0.138259
C6    C     C_R   0.718446 0.367617 0.857154 -0.237196
C7    C     C_R   0.608343 0.368479 0.812391 -0.199369
C8    C     C_R   0.513834 0.407385 0.142169 0.130052
C9    C     C_R   0.763918 0.453054 0.117445 -0.252818
C10   C     C_R   0.374984 0.465213 0.819382 -0.117424
C11   C     C_R   0.601712 0.933543 0.416999 -0.189942
C12   C     C_R   0.422089 0.488858 0.703352 0.856683
C13   C     C_R   0.601874 0.063126 0.414648 0.147789
C14   C     C_R   0.500051 0.127337 0.499543 -0.048706
C15   C     C_R   0.397721 0.063655 0.584467 0.154269
C16   C     C_R   0.397698 0.934021 0.582706 -0.195499
C17   C     C_R   0.499800 0.871415 0.500042 -0.103796
C18   C     C_R   0.942239 0.396291 0.467759 -0.084215
C19   C     C_R   0.085673 0.396164 0.468102 -0.100514
C20   C     C_R   0.057425 0.603375 0.533222 -0.076484
C21   C     C_R   0.913691 0.603288 0.533301 -0.064950
C22   C     C_R   0.500187 0.260200 0.499518 0.882327
C23   C     C_R   0.577669 0.488316 0.296947 0.883178
C24   C     C_R   0.798594 0.417234 0.009563 -0.201336
C25   C     C_R   0.620200 0.450981 0.183954 -0.085019
C26   C     C_R   0.236592 0.503145 0.881250 -0.199600
C27   C     C_R   0.198664 0.508857 0.992467 -0.161021
C28   C     C_R   0.298555 0.478526 0.042810 -0.177691
H1    H     H_    0.848547 0.478096 0.149556 0.164210
H2    H     H_    0.320620 0.881378 0.646331 0.141365
H3    H     H_    0.150640 0.312792 0.442679 0.140240
H4    H     H_    0.099824 0.686126 0.560050 0.132849
H5    H     H_    0.826561 0.344154 0.807268 0.151682
H6    H     H_    0.910068 0.411749 0.959709 0.147890
H7    H     H_    0.269169 0.499740 0.127428 0.154638
H8    H     H_    0.634001 0.334892 0.730655 0.181957
H9    H     H_    0.678573 0.880519 0.353505 0.144771
N1    N     N_R   0.142790 0.500030 0.500030 -0.077418
N2    N     N_R   0.857180 0.499940 0.500010 -0.079532
O1    O     O_R   0.385370 0.683250 0.500010 -0.618220
O2    O     O_R   0.614700 0.683220 0.500010 -0.618366
O3    O     O_R   0.328400 0.499990 0.653620 -0.612522
O4    O     O_R   0.557730 0.499960 0.653620 -0.612016
O5    O     O_R   0.385300 0.316780 0.499990 -0.628012
O6    O     O_R   0.614630 0.316750 0.499990 -0.632878
O7    O     O_R   0.442270 0.500040 0.346380 -0.600800
O8    O     O_R   0.671600 0.500010 0.346380 -0.616663
Zn1   Zn    Zn3+2 0.346870 0.500020 0.500000 0.933632
Zn2   Zn    Zn3+2 0.653130 0.499980 0.500000 0.934805
C29   C     C_3   0.707399 0.130153 0.320570 -0.892323
H10   H     H_    0.649714 0.194734 0.282358 0.231975
H11   H     H_    0.784743 0.184500 0.348160 0.246170
H12   H     H_    0.769756 0.063173 0.257923 0.236497
C30   C     C_3   0.291911 0.131571 0.677916 -0.893244
H13   H     H_    0.215229 0.186414 0.649508 0.255768
H14   H     H_    0.228676 0.065062 0.740618 0.233751
H15   H     H_    0.349933 0.195860 0.716202 0.226820
H16   H     H_    0.899695 0.313183 0.441968 0.129388
H17   H     H_    0.847970 0.685964 0.560225 0.138225
C31   C     C_3   0.388679 0.328358 0.210361 -0.888542
H18   H     H_    0.423901 0.266183 0.265018 0.237880
H19   H     H_    0.298963 0.387584 0.259413 0.250941
H20   H     H_    0.347160 0.265954 0.159317 0.234576
H21   H     H_    0.160510 0.536280 0.843357 0.154767
H22   H     H_    0.094496 0.544905 0.039343 0.138872

loop_
_geom_bond_atom_site_label_1
_geom_bond_atom_site_label_2
_ccdc_geom_bond_type
C2    C4    A    
C18   N2    A    
C15   C30   S    
C9    C24   A    
C6    C7    A    
C27   H22   S    
C19   N1    A    
C9    H1    S    
C20   N1    A    
C7    H8    S    
N1    Zn1   S    
C21   N2    A    
C6    H5    S    
O6    Zn2   S    
C4    C8    A    
C19   H3    S    
C10   C26   A    
C2    C3    A    
C9    C25   A    
O8    Zn2   S    
C3    C10   A    
O3    Zn1   S    
C13   C14   A    
C8    C31   S    
C2    C28   A    
C8    C25   A    
C11   C13   A    
C14   C22   S    
C26   C27   A    
C5    C24   A    
C10   C12   S    
C31   H18   S    
C31   H20   S    
O2    Zn2   S    
C24   H6    S    
N2    Zn2   S    
C18   H16   S    
C21   H17   S    
C12   O4    A    
C3    C7    A    
C23   C25   S    
C5    C6    A    
C30   H14   S    
C29   H11   S    
C29   H12   S    
C23   O8    A    
C16   H2    S    
C15   C16   A    
O7    Zn1   S    
O5    Zn1   S    
C4    C5    A    
C22   O6    A    
C20   C21   A    
C31   H19   S    
C18   C19   A    
C20   H4    S    
C1    O2    A    
C27   C28   A    
C23   O7    A    
O1    Zn1   S    
C30   H13   S    
O4    Zn2   S    
C12   O3    A    
C1    O1    A    
C29   H10   S    
C14   C15   A    
C1    C17   S    
C11   H9    S    
C22   O5    A    
C13   C29   S    
C28   H7    S    
C26   H21   S    
C16   C17   A    
C30   H15   S    
C11   C17   A    
