data_mof_unit_50396.cif
_audit_creation_date              2013-03-05T16:02:24-0500
_audit_creation_method            fapswitch 2.2
_symmetry_space_group_name_H-M    P1
_symmetry_Int_Tables_number       1
_space_group_crystal_system       triclinic
_cell_length_a                    15.096601
_cell_length_b                    14.183487
_cell_length_c                    10.873062
_cell_angle_alpha                 90.721986
_cell_angle_beta                  88.744929
_cell_angle_gamma                 90.275667
_cell_volume                      2327.39931979

loop_
_atom_site_label
_atom_site_type_symbol
_atom_site_description
_atom_site_fract_x
_atom_site_fract_y
_atom_site_fract_z
_atom_type_partial_charge
O1    O     O_R   0.367860 0.580280 0.500020 -0.609619
O2    O     O_R   0.367860 0.419720 0.500020 -0.611742
C1    C     C_R   0.326492 0.499674 0.502807 0.889402
O3    O     O_R   0.500000 0.580270 0.314790 -0.623043
O4    O     O_R   0.500000 0.419730 0.314790 -0.614721
C2    C     C_R   0.504672 0.499166 0.257885 0.864095
Zn1   Zn    Zn3+2 0.500020 0.607200 0.499990 0.960606
Zn2   Zn    Zn3+2 0.500020 0.392800 0.499990 0.956874
O5    O     O_R   0.632160 0.580270 0.499960 -0.626239
O6    O     O_R   0.632160 0.419730 0.499960 -0.645402
O7    O     O_R   0.500030 0.580270 0.685200 -0.633088
O8    O     O_R   0.500030 0.419730 0.685200 -0.630176
C3    C     C_R   0.672479 0.500576 0.503833 0.881010
C4    C     C_R   0.503877 0.499518 0.741450 0.876087
C5    C     C_3   0.408376 0.471549 0.072960 -0.052245
C6    C     C_3   0.575673 0.416588 0.070081 -0.039295
C7    C     C_3   0.404196 0.487624 0.928227 0.255180
C8    C     C_3   0.571631 0.411673 0.922300 0.294396
H1    H     H_    0.508371 0.652787 0.885775 0.210492
H2    H     H_    0.610545 0.603385 0.889089 0.181337
C9    C     C_3   0.538476 0.597086 0.067642 -0.002949
C10   C     C_3   0.506826 0.496060 0.120086 -0.184530
C11   C     C_3   0.504822 0.495188 0.877370 0.059421
C12   C     C_3   0.542639 0.591477 0.925795 -0.541006
C13   C     C_R   0.814105 0.440513 0.441096 -0.287189
C14   C     C_R   0.767117 0.502254 0.516150 -0.067542
C15   C     C_R   0.809306 0.562531 0.601177 0.140416
C16   C     C_R   0.903536 0.563868 0.602541 0.027620
C17   C     C_R   0.950683 0.496988 0.526977 -0.025462
C18   C     C_R   0.904970 0.434242 0.447395 0.127228
C19   C     C_R   0.952710 0.625159 0.680563 -0.016850
C20   C     C_R   0.043504 0.611024 0.694542 0.116438
C21   C     C_R   0.091059 0.555659 0.606262 0.054091
C22   C     C_R   0.043833 0.493910 0.528219 0.004195
C23   C     C_R   0.089670 0.427993 0.451990 0.037914
C24   C     C_R   0.042265 0.364449 0.378008 -0.197948
C25   C     C_R   0.950854 0.366749 0.374432 0.202323
C26   C     C_R   0.183737 0.563657 0.588896 -0.064351
C27   C     C_R   0.229476 0.497593 0.512837 -0.155745
C28   C     C_R   0.182252 0.426202 0.450636 -0.048887
H3    H     H_    0.778081 0.397068 0.376870 0.180559
H4    H     H_    0.076227 0.313231 0.319640 0.159699
C29   C     C_R   0.578879 0.799100 0.485947 0.223697
C30   C     C_R   0.577206 0.199915 0.475428 0.257314
N1    N     N_R   0.500070 0.750030 0.500050 -0.131673
N2    N     N_R   0.500070 0.249970 0.500050 -0.129371
C31   C     C_R   0.422628 0.800488 0.495981 0.033874
C32   C     C_R   0.425619 0.200153 0.537081 0.034461
C33   C     C_R   0.422192 0.899681 0.514505 -0.008513
C34   C     C_R   0.423253 0.100135 0.529897 -0.005425
C35   C     C_R   0.502935 0.949537 0.515776 0.047661
C36   C     C_R   0.503092 0.050207 0.516291 0.040765
C37   C     C_R   0.582837 0.899183 0.505867 -0.048496
C38   C     C_R   0.582578 0.101032 0.501204 -0.053684
C39   C     C_R   0.342556 0.950644 0.527124 -0.174194
C40   C     C_R   0.343204 0.048771 0.538210 -0.169406
C41   C     C_R   0.663562 0.050824 0.511197 -0.041430
C42   C     C_R   0.663603 0.950936 0.513966 -0.045839
H5    H     H_    0.279116 0.914663 0.530138 0.156073
H6    H     H_    0.280069 0.084265 0.548075 0.156609
C43   C     C_1   0.340095 0.527224 0.142148 0.169813
N3    N     N_1   0.286440 0.569902 0.195951 -0.177649
C44   C     C_1   0.666211 0.435312 0.115219 0.133221
N4    N     N_1   0.737168 0.448732 0.149902 -0.219809
C45   C     C_3   0.084947 0.646002 0.812853 -0.850849
H7    H     H_    0.037092 0.639627 0.891455 0.242413
H8    H     H_    0.141929 0.601761 0.837594 0.234036
H9    H     H_    0.104900 0.721121 0.804626 0.256776
C46   C     C_1   0.229848 0.644778 0.639733 0.203601
N5    N     N_1   0.265204 0.710306 0.680578 -0.222332
C47   C     C_1   0.227740 0.350027 0.385458 0.203582
N6    N     N_1   0.262558 0.287490 0.335708 -0.179456
C48   C     C_3   0.904488 0.296208 0.291998 -0.897902
H10   H     H_    0.951541 0.246399 0.246034 0.244799
H11   H     H_    0.856633 0.253619 0.347006 0.250851
H12   H     H_    0.869299 0.333577 0.218769 0.256796
C49   C     C_3   0.650998 0.754998 0.407386 -0.752823
H13   H     H_    0.622954 0.698188 0.349941 0.271920
H14   H     H_    0.678926 0.806472 0.340635 0.211703
H15   H     H_    0.705197 0.728224 0.464093 0.248377
C50   C     C_3   0.652047 0.244957 0.404288 -0.796652
H16   H     H_    0.628481 0.304100 0.349463 0.272714
H17   H     H_    0.703768 0.269519 0.467858 0.239692
H18   H     H_    0.681574 0.194204 0.336584 0.213607
C51   C     C_1   0.346850 0.759659 0.436552 0.271898
N7    N     N_1   0.285702 0.729628 0.386650 -0.176730
C52   C     C_1   0.350705 0.246806 0.594489 0.233867
N8    N     N_1   0.289062 0.280626 0.641922 -0.226053
C53   C     C_1   0.746288 0.100191 0.533798 0.172871
N9    N     N_1   0.812542 0.138632 0.552591 -0.200586
C54   C     C_1   0.746827 0.903288 0.534806 0.182196
N10   N     N_1   0.813546 0.866147 0.551260 -0.191086
C55   C     C_1   0.381829 0.373447 0.101245 0.181713
N11   N     N_1   0.360235 0.296403 0.119623 -0.166452
C56   C     C_1   0.559460 0.321783 0.124195 0.187285
N12   N     N_1   0.547017 0.247100 0.163193 -0.186856
C57   C     C_3   0.347873 0.411049 0.858968 -0.814549
H19   H     H_    0.281106 0.403999 0.903330 0.235611
H20   H     H_    0.336618 0.431711 0.762439 0.246360
H21   H     H_    0.376074 0.340340 0.854631 0.240612
C58   C     C_3   0.547450 0.307684 0.878695 -0.800362
H22   H     H_    0.547600 0.293301 0.778892 0.265138
H23   H     H_    0.599512 0.258267 0.908712 0.223080
H24   H     H_    0.486465 0.279603 0.921975 0.221513
C59   C     C_3   0.350550 0.579060 0.897806 -0.847178
H25   H     H_    0.369396 0.643036 0.948616 0.245117
H26   H     H_    0.356819 0.595095 0.799058 0.252536
H27   H     H_    0.278851 0.569534 0.919381 0.238115
C60   C     C_3   0.666226 0.425386 0.861721 -0.869414
H28   H     H_    0.700243 0.489990 0.893428 0.231169
H29   H     H_    0.711067 0.366746 0.885775 0.250277
H30   H     H_    0.663879 0.425880 0.759931 0.244154
C61   C     C_1   0.479890 0.675972 0.107336 0.206197
N13   N     N_1   0.435042 0.738174 0.138774 -0.191391
C62   C     C_1   0.626639 0.628395 0.109629 0.164931
N14   N     N_1   0.695852 0.653940 0.140100 -0.196751
C63   C     C_3   0.753416 0.616122 0.696472 -0.886810
H31   H     H_    0.780327 0.606867 0.789579 0.235779
H32   H     H_    0.750032 0.691759 0.672662 0.260323
H33   H     H_    0.684764 0.589945 0.704813 0.237167
C64   C     C_1   0.915528 0.708103 0.741533 0.207906
N15   N     N_1   0.887151 0.774550 0.790889 -0.181799

loop_
_geom_bond_atom_site_label_1
_geom_bond_atom_site_label_2
_geom_bond_distance
_ccdc_geom_bond_type
C52   N8    1.157214 T    
C55   N11   1.157378 T    
C28   C47   1.451768 S    
C39   H5    1.083102 S    
C48   H10   1.110788 S    
C24   H4    1.082159 S    
C56   N12   1.158901 T    
C8    C60   1.571752 S    
C9    C62   1.480846 S    
C57   H21   1.091483 S    
C57   H19   1.112458 S    
C31   C33   1.418766 A    
C51   N7    1.157734 T    
Zn1   O7    2.054430 S    
C59   H26   1.102267 S    
C14   C15   1.411346 A    
C7    C11   1.608767 S    
C41   C53   1.452946 S    
Zn1   N1    2.025816 S    
C16   C17   1.429235 A    
C60   H29   1.112247 S    
O4    C2    1.293094 A    
Zn2   O6    2.029290 S    
O7    C4    1.307331 A    
C62   N14   1.158141 T    
C2    C10   1.498030 S    
C5    C7    1.595618 S    
C22   C23   1.414741 A    
O5    C3    1.287974 A    
C57   H20   1.110120 S    
C29   C37   1.434406 A    
C5    C10   1.617492 S    
H2    C12   1.104929 S    
C36   C38   1.404456 A    
C33   C35   1.406511 A    
C34   C36   1.404941 A    
C11   C12   1.567125 S    
C6    C44   1.483984 S    
C42   C54   1.452968 S    
C49   H13   1.101929 S    
C32   C34   1.420088 A    
C26   C46   1.451576 S    
C1    C27   1.466466 S    
C58   H23   1.112579 S    
C9    C10   1.615161 S    
C48   H11   1.109293 S    
C46   N5    1.158071 T    
O3    Zn1   2.044870 S    
C50   H17   1.106231 S    
C30   N2    1.386097 A    
C50   H16   1.100158 S    
N1    C31   1.375522 A    
C59   H27   1.110479 S    
N2    C32   1.379982 A    
C8    C11   1.645196 S    
C58   H22   1.101593 S    
C49   H14   1.111093 S    
C19   C64   1.452227 S    
C9    C61   1.483597 S    
C30   C50   1.500067 S    
C60   H30   1.108218 S    
C13   H3    1.079673 S    
C54   N10   1.157329 T    
C45   H8    1.107112 S    
C13   C14   1.377903 A    
C33   C39   1.409013 A    
C17   C22   1.407497 A    
C34   C40   1.409863 A    
C35   C36   1.427779 A    
C18   C25   1.410235 A    
O1    C1    1.300456 A    
C8    C58   1.586903 S    
C4    C11   1.480302 S    
C17   C18   1.420510 A    
C7    C59   1.574748 S    
C19   C20   1.398078 A    
Zn2   O8    2.044972 S    
C45   H9    1.109973 S    
C39   C40   1.395480 A    
C21   C22   1.413228 A    
C5    C43   1.486942 S    
C32   C52   1.439584 S    
C29   N1    1.382078 A    
C64   N15   1.157918 T    
O3    C2    1.300773 A    
O8    C4    1.281243 A    
C58   H24   1.099961 S    
C48   H12   1.108592 S    
C3    C14   1.437952 S    
C63   H33   1.101470 S    
C31   C51   1.441588 S    
C27   C28   1.409930 A    
C50   H18   1.110936 S    
C61   N13   1.158267 T    
C49   H15   1.106737 S    
C13   C18   1.378325 A    
Zn1   O5    2.032898 S    
C25   C48   1.514102 S    
C24   C25   1.381951 A    
C6    C56   1.491535 S    
C6    C10   1.617872 S    
O1    Zn1   2.029563 S    
H1    C12   1.112143 S    
C16   C19   1.424538 A    
O2    Zn2   2.033170 S    
O6    C3    1.296269 A    
C5    C55   1.480303 S    
O4    Zn2   2.054328 S    
C37   C42   1.423973 A    
C29   C49   1.502885 S    
C59   H25   1.096041 S    
C21   C26   1.411917 A    
C20   C21   1.417610 A    
C63   H32   1.108436 S    
C23   C28   1.397774 A    
C47   N6    1.155683 T    
C63   H31   1.108625 S    
C41   C42   1.417461 A    
C26   C27   1.414346 A    
O2    C1    1.296953 A    
C43   N3    1.157488 T    
Zn2   N2    2.025841 S    
C44   N4    1.157521 T    
C30   C38   1.436714 A    
C40   H6    1.082672 S    
C6    C8    1.609947 S    
C45   H7    1.111215 S    
C9    C12   1.543284 S    
C15   C16   1.422992 A    
C23   C24   1.404380 A    
C15   C63   1.520301 S    
C35   C37   1.406190 A    
C53   N9    1.157740 T    
C60   H28   1.103393 S    
C7    C57   1.571071 S    
C20   C45   1.519400 S    
C38   C41   1.424712 A    
