data_mof_unit_51351.cif
_audit_creation_date              2012-12-10T17:01:30-0500
_audit_creation_method            fapswitch 2.2
_symmetry_space_group_name_H-M    P1
_symmetry_Int_Tables_number       1
_space_group_crystal_system       triclinic
_cell_length_a                    12.908495
_cell_length_b                    10.751433
_cell_length_c                    10.003977
_cell_angle_alpha                 91.320052
_cell_angle_beta                  98.436478
_cell_angle_gamma                 89.674121
_cell_volume                      1373.00821543

loop_
_atom_site_label
_atom_site_type_symbol
_atom_type_description
_atom_site_fract_x
_atom_site_fract_y
_atom_site_fract_z
_atom_type_partial_charge
C1    C     C_R   0.494679 0.262697 0.497272 0.863933
C2    C     C_2   0.486910 0.129313 0.487881 0.154739
C3    C     C_2   0.534121 0.592085 0.934091 -0.259590
C4    C     C_R   0.298058 0.505204 0.471952 0.882115
C5    C     C_2   0.555323 0.577853 0.087248 0.624892
C6    C     C_R   0.509622 0.737120 0.503256 0.954034
C7    C     C_R   0.702617 0.497843 0.528187 0.933547
C8    C     C_R   0.816775 0.498535 0.547931 -0.174042
C9    C     C_R   0.185504 0.514649 0.451841 -0.156341
C10   C     C_R   0.018571 0.469054 0.321484 -0.306162
C11   C     C_R   0.124952 0.490088 0.325751 0.475653
C12   C     C_R   0.029941 0.539906 0.555903 -0.049693
C13   C     C_R   0.137478 0.547995 0.563295 -0.308174
C14   C     C_3   0.814358 0.367433 0.328958 -0.851615
C15   C     C_3   0.355883 0.118937 0.626405 0.133420
C16   C     C_3   0.274760 0.030716 0.667058 -0.874525
C17   C     C_3   0.712243 0.687106 0.100801 0.067328
C18   C     C_3   0.805842 0.724857 0.203956 -0.829899
C19   C     C_3   0.396516 0.335656 0.107924 0.239570
C20   C     C_3   0.323769 0.270950 0.994279 -0.935522
C21   C     C_3   0.824857 0.595444 0.787220 -0.844834
C22   C     C_3   0.053869 0.769180 0.738749 0.089355
C23   C     C_R   0.971542 0.486689 0.438682 0.040508
C24   C     C_3   0.001813 0.858393 0.829079 -0.885902
C25   C     C_3   0.131826 0.585343 0.125678 0.082680
C26   C     C_3   0.216114 0.625934 0.044929 -0.668930
C27   C     C_3   0.459937 0.959314 0.183602 0.110082
C28   C     C_3   0.438672 0.895208 0.045290 -0.845472
C29   C     C_3   0.586339 0.912251 0.658300 -0.986011
C30   C     C_3   0.730663 0.060405 0.370969 0.105891
C31   C     C_3   0.745020 0.045236 0.222943 -0.863370
C32   C     C_R   0.867546 0.454399 0.439826 0.096139
C33   C     C_R   0.874727 0.556879 0.664527 0.053494
C34   C     C_R   0.981392 0.579919 0.665951 0.495511
C35   C     C_2   0.543024 0.934629 0.404220 0.438077
C36   C     C_2   0.545009 0.864728 0.515432 -0.044453
C37   C     C_2   0.558953 0.068707 0.426325 0.277891
H1    H     H_    0.551353 0.679791 0.891003 0.150432
H2    H     H_    0.311951 0.940187 0.697160 0.255588
H3    H     H_    0.240580 0.071503 0.753839 0.214546
H4    H     H_    0.211032 0.014685 0.581065 0.258277
H5    H     H_    0.687922 0.768759 0.037450 0.145587
H6    H     H_    0.738172 0.609857 0.037325 0.117436
H7    H     H_    0.841173 0.641729 0.255489 0.253075
H8    H     H_    0.865825 0.770216 0.152629 0.198072
H9    H     H_    0.781185 0.789706 0.281126 0.272466
H10   H     H_    0.357437 0.334076 0.199110 0.216058
H11   H     H_    0.471347 0.282026 0.124251 0.118185
H12   H     H_    0.502938 0.414259 0.892926 0.200902
H13   H     H_    0.358747 0.270542 0.899388 0.244294
H14   H     H_    0.310756 0.173338 0.021564 0.208337
H15   H     H_    0.247026 0.319630 0.977326 0.287837
H16   H     H_    0.881316 0.634585 0.871631 0.261606
H17   H     H_    0.763945 0.667319 0.759702 0.226076
H18   H     H_    0.790342 0.512787 0.828256 0.239951
H19   H     H_    0.024915 0.791252 0.631022 0.127787
H20   H     H_    0.139416 0.787667 0.755583 0.160348
H21   H     H_    0.024348 0.955502 0.811335 0.220868
H22   H     H_    0.915337 0.850379 0.805434 0.251487
H23   H     H_    0.973611 0.441750 0.225455 0.160231
H24   H     H_    0.026811 0.837145 0.937138 0.254102
H25   H     H_    0.110762 0.668970 0.184731 0.113904
H26   H     H_    0.061500 0.555529 0.054561 0.173244
H27   H     H_    0.229431 0.552644 0.969351 0.278182
H28   H     H_    0.289769 0.644657 0.114534 0.269962
H29   H     H_    0.191886 0.712798 0.991334 0.195634
H30   H     H_    0.499105 0.049083 0.170268 0.157973
H31   H     H_    0.383707 0.977442 0.220200 0.150619
H32   H     H_    0.403092 0.802632 0.053479 0.264576
H33   H     H_    0.384136 0.952442 0.975461 0.203956
H34   H     H_    0.184532 0.577129 0.657457 0.213091
H35   H     H_    0.513019 0.883475 0.002959 0.242395
H36   H     H_    0.644801 0.845413 0.707829 0.234341
H37   H     H_    0.627127 0.002987 0.662286 0.236008
H38   H     H_    0.520993 0.919907 0.718860 0.275755
H39   H     H_    0.733394 0.968531 0.420132 0.128098
H40   H     H_    0.799515 0.111379 0.424711 0.158003
H41   H     H_    0.685036 0.981394 0.169078 0.279700
H42   H     H_    0.737717 0.136653 0.172989 0.258685
H43   H     H_    0.823888 0.006399 0.215569 0.210916
H44   H     H_    0.868874 0.291992 0.306777 0.224505
H45   H     H_    0.746840 0.319502 0.359920 0.291071
H46   H     H_    0.788118 0.419477 0.235421 0.241884
H47   H     H_    0.316180 0.208469 0.597104 0.155440
H48   H     H_    0.417518 0.133414 0.715649 0.153247
N1    N     N_2   0.501130 0.501330 0.852280 -0.176514
N2    N     N_2   0.501160 0.501360 0.147950 0.013253
O1    O     O_R   0.499980 0.319060 0.613040 -0.654959
O2    O     O_3   0.629436 0.650401 0.169031 -0.565286
O3    O     O_3   0.412477 0.459193 0.072307 -0.598061
O4    O     O_3   0.037648 0.644393 0.774401 -0.640763
O5    O     O_3   0.169738 0.484572 0.208210 -0.605632
O6    O     O_3   0.524034 0.881840 0.273978 -0.579046
O7    O     O_3   0.640411 0.133576 0.381729 -0.657419
O8    O     O_R   0.500020 0.319100 0.386900 -0.640349
O9    O     O_R   0.346340 0.499960 0.594380 -0.622289
O10   O     O_R   0.346380 0.500000 0.368250 -0.581550
O11   O     O_R   0.499980 0.680900 0.613100 -0.625133
O12   O     O_R   0.500020 0.680940 0.386960 -0.544770
O13   O     O_R   0.653620 0.500000 0.631750 -0.625276
O14   O     O_R   0.653660 0.500040 0.405620 -0.577271
O15   O     O_3   0.398706 0.065361 0.516488 -0.656324
Zn1   Zn    Zn3+2 0.499980 0.499970 0.650990 0.919502
Zn2   Zn    Zn3+2 0.500020 0.500030 0.349010 1.028822

loop_
_geom_bond_atom_site_label_1
_geom_bond_atom_site_label_2
_ccdc_geom_bond_type
C24   H24   S    
C28   H32   S    
C22   H20   S    
C7    C8    S    
C12   C23   A    
C6    O11   A    
C35   C37   S    
C20   H14   S    
C30   C31   S    
C19   H10   S    
C21   C33   S    
C2    O15   S    
O11   Zn1   S    
C9    C13   A    
C1    C2    S    
C25   H26   S    
C26   H27   S    
C17   H5    S    
C20   H13   S    
C27   H31   S    
C4    O9    A    
C30   H40   S    
C11   O5    S    
C19   C20   S    
C3    H1    S    
C22   O4    S    
C34   O4    S    
C15   H48   S    
C1    O1    A    
O12   Zn2   S    
C4    O10   A    
C3    N1    D    
C28   H35   S    
C14   H46   S    
N1    Zn1   S    
C18   H9    S    
C17   C18   S    
C35   O6    S    
C7    O13   A    
C26   H29   S    
C31   H43   S    
C17   O2    S    
C21   H18   S    
C19   H11   S    
C30   O7    S    
C22   H19   S    
C29   H37   S    
C13   H34   S    
C25   C26   S    
O13   Zn1   S    
C35   C36   D    
C8    C32   A    
C10   H23   S    
C17   H6    S    
C18   H7    S    
C30   H39   S    
C29   C36   S    
C1    O8    A    
C33   C34   A    
C9    C11   A    
C16   H3    S    
O14   Zn2   S    
C22   C24   S    
C27   O6    S    
C14   H45   S    
C12   C34   A    
C18   H8    S    
O1    Zn1   S    
O8    Zn2   S    
C31   H41   S    
C25   O5    S    
C26   H28   S    
H12   N1    S    
C28   H33   S    
C14   C32   S    
C3    C5    S    
C31   H42   S    
C15   H47   S    
C29   H38   S    
C10   C23   A    
C25   H25   S    
C6    O12   A    
C20   H15   S    
C19   O3    S    
C23   C32   A    
C21   H16   S    
C2    C37   D    
C21   H17   S    
C24   H22   S    
C6    C36   S    
C37   O7    S    
C8    C33   A    
C15   O15   S    
O10   Zn2   S    
C27   H30   S    
C10   C11   A    
C16   H2    S    
N2    Zn2   S    
C5    N2    D    
C29   H36   S    
C12   C13   A    
C24   H21   S    
C7    O14   A    
N2    O3    S    
C27   C28   S    
C14   H44   S    
C4    C9    S    
O9    Zn1   S    
C16   H4    S    
C5    O2    S    
C15   C16   S    
