data_mof_unit_61883.cif
_audit_creation_date              2012-12-10T18:08:19-0500
_audit_creation_method            fapswitch 2.2
_symmetry_space_group_name_H-M    P1
_symmetry_Int_Tables_number       1
_space_group_crystal_system       triclinic
_cell_length_a                    18.711777
_cell_length_b                    18.721909
_cell_length_c                    18.642
_cell_angle_alpha                 109.309235
_cell_angle_beta                  109.400339
_cell_angle_gamma                 109.336541
_cell_volume                      5049.98400986

loop_
_atom_site_label
_atom_site_type_symbol
_atom_type_description
_atom_site_fract_x
_atom_site_fract_y
_atom_site_fract_z
_atom_type_partial_charge
C1    C     C_R   0.379635 0.499911 0.379797 0.858515
C2    C     C_R   0.313237 0.499841 0.313844 -0.001762
C3    C     C_R   0.311078 0.238681 0.487084 -0.201796
C4    C     C_R   0.620082 0.619764 0.499900 0.880960
C5    C     C_R   0.249265 0.176656 0.490169 -0.214481
C6    C     C_R   0.184817 0.190432 0.503257 -0.050285
C7    C     C_R   0.181127 0.267353 0.514485 0.044409
C8    C     C_R   0.243260 0.329550 0.509363 -0.020064
C9    C     C_R   0.308829 0.314945 0.497154 -0.095779
C10   C     C_R   0.758816 0.502118 0.678710 -0.183724
C11   C     C_R   0.823572 0.503663 0.743499 -0.184703
C12   C     C_R   0.742866 0.817562 0.498626 0.134607
C13   C     C_R   0.813995 0.500591 0.813796 -0.004861
C14   C     C_R   0.741024 0.497410 0.820683 -0.158657
C15   C     C_R   0.677660 0.498687 0.757369 -0.180956
C16   C     C_R   0.620304 0.500087 0.620215 0.860644
C17   C     C_R   0.686540 0.500260 0.686355 -0.007417
C18   C     C_R   0.999772 0.879371 0.379545 0.889397
C19   C     C_R   0.880213 0.879910 0.500085 0.887411
C20   C     C_R   0.000092 0.120355 0.620247 0.846826
C21   C     C_R   0.119806 0.121468 0.501127 0.869797
C22   C     C_R   0.999908 0.619741 0.119933 0.874043
C23   C     C_3   0.698883 0.870867 0.498698 -0.491941
C24   C     C_R   0.120057 0.499888 0.120241 0.849653
C25   C     C_R   0.000119 0.380015 0.879785 0.856945
C26   C     C_R   0.879919 0.500223 0.879853 0.869824
C27   C     C_R   0.957709 0.793504 0.226401 -0.217549
C28   C     C_R   0.377853 0.380067 0.498434 0.875964
C29   C     C_R   0.958022 0.730044 0.162500 -0.027069
C30   C     C_R   0.000290 0.685360 0.186288 -0.074488
C31   C     C_R   0.042930 0.704061 0.273628 0.082866
C32   C     C_R   0.041641 0.767937 0.336688 -0.214571
C33   C     C_R   0.999498 0.812459 0.313181 -0.076452
C34   C     C_3   0.628486 0.800469 0.500322 -0.493192
C35   C     C_R   0.920799 0.177895 0.679455 -0.188337
C36   C     C_R   0.920846 0.241267 0.744007 -0.184024
C37   C     C_R   0.000195 0.314185 0.813246 -0.011077
C38   C     C_R   0.079540 0.323834 0.818915 -0.180698
C39   C     C_R   0.079587 0.259156 0.755731 -0.192238
C40   C     C_R   0.682085 0.756780 0.500818 0.134682
C41   C     C_R   0.000199 0.186733 0.686152 -0.006100
C42   C     C_R   0.686762 0.684531 0.500378 -0.095590
C43   C     C_R   0.758688 0.676294 0.499691 -0.214937
C44   C     C_R   0.823942 0.741553 0.500686 -0.214702
C45   C     C_R   0.242422 0.420464 0.242521 -0.181449
C46   C     C_R   0.815416 0.813192 0.499546 -0.098582
C47   C     C_3   0.115550 0.285579 0.537207 -0.408319
C48   C     C_3   0.037218 0.265841 0.456533 -0.307544
C49   C     C_3   0.969418 0.278503 0.479045 -0.868945
C50   C     C_1   0.238382 0.406753 0.514476 0.159653
C51   C     C_1   0.914539 0.711689 0.073080 0.145574
C52   C     C_3   0.091623 0.659042 0.301926 -0.427419
C53   C     C_3   0.036175 0.587284 0.313582 -0.336347
C54   C     C_3   0.084069 0.540625 0.340635 -0.838550
C55   C     C_R   0.177719 0.420462 0.179239 -0.190579
C56   C     C_R   0.185883 0.499831 0.186625 -0.017558
C57   C     C_R   0.257082 0.579215 0.257579 -0.191709
C58   C     C_R   0.320430 0.579220 0.322200 -0.182397
H1    H     H_    0.764899 0.620776 0.499696 0.155076
H2    H     H_    0.879697 0.735580 0.501065 0.156395
H3    H     H_    0.073830 0.782917 0.404172 0.159615
H4    H     H_    0.859379 0.121481 0.625386 0.137141
H5    H     H_    0.859386 0.234183 0.739486 0.144437
H6    H     H_    0.140985 0.380317 0.872806 0.145878
H7    H     H_    0.140976 0.265969 0.760239 0.140842
H8    H     H_    0.737604 0.935013 0.559827 0.196570
H9    H     H_    0.675243 0.873088 0.436755 0.212256
H10   H     H_    0.626145 0.824083 0.562155 0.212900
H11   H     H_    0.564309 0.761619 0.439086 0.196213
H12   H     H_    0.375579 0.640646 0.377612 0.137490
H13   H     H_    0.236838 0.359063 0.236695 0.144371
H14   H     H_    0.122390 0.359060 0.124001 0.147311
H15   H     H_    0.262765 0.640630 0.263354 0.140404
H16   H     H_    0.944588 0.233631 0.502571 0.275321
H17   H     H_    0.998443 0.346808 0.530568 0.261419
H18   H     H_    0.913758 0.264273 0.419805 0.242798
H19   H     H_    0.058966 0.309642 0.430920 0.218834
H20   H     H_    0.006106 0.197658 0.403789 0.240335
H21   H     H_    0.092401 0.247341 0.567193 0.196959
H22   H     H_    0.148067 0.354799 0.588520 0.199179
H23   H     H_    0.361567 0.227667 0.478059 0.161305
H24   H     H_    0.096952 0.507782 0.288743 0.273063
H25   H     H_    0.146895 0.587687 0.402743 0.264641
H26   H     H_    0.043241 0.490557 0.350629 0.245788
H27   H     H_    0.020510 0.616139 0.364710 0.216753
H28   H     H_    0.973981 0.538819 0.251083 0.239680
H29   H     H_    0.110765 0.630738 0.254047 0.191552
H30   H     H_    0.153509 0.707909 0.364699 0.197802
H31   H     H_    0.251088 0.117201 0.481464 0.151134
H32   H     H_    0.765515 0.503744 0.623629 0.138751
H33   H     H_    0.880075 0.505682 0.738194 0.143741
H34   H     H_    0.734051 0.495433 0.875540 0.147145
H35   H     H_    0.621287 0.496976 0.762797 0.143349
H36   H     H_    0.925511 0.828517 0.208499 0.166897
N1    N     N_1   0.234396 0.468220 0.518409 -0.205264
N2    N     N_1   0.879839 0.697159 0.001617 -0.202494
O1    O     O_R   0.408340 0.551690 0.460080 -0.618929
O2    O     O_R   0.051700 0.643420 0.091650 -0.618747
O3    O     O_R   0.039910 0.448390 0.091720 -0.623069
O4    O     O_R   0.408400 0.448280 0.356690 -0.622941
O5    O     O_R   0.143340 0.551810 0.091690 -0.623238
O6    O     O_R   0.948300 0.356760 0.908530 -0.622199
O7    O     O_R   0.051730 0.460180 0.908500 -0.624112
O8    O     O_R   0.856660 0.448370 0.908490 -0.628095
O9    O     O_R   0.960090 0.551790 0.908450 -0.614939
O10   O     O_R   0.591580 0.643330 0.551700 -0.621555
O11   O     O_R   0.591640 0.539920 0.448310 -0.624034
O12   O     O_R   0.948260 0.908480 0.356680 -0.625321
O13   O     O_R   0.591600 0.551720 0.643310 -0.618181
O14   O     O_R   0.591660 0.448310 0.539920 -0.626551
O15   O     O_R   0.408360 0.460080 0.551690 -0.612882
O16   O     O_R   0.408420 0.356670 0.448300 -0.625501
O17   O     O_R   0.051710 0.908420 0.460050 -0.632677
O18   O     O_R   0.960120 0.908380 0.551680 -0.621861
O19   O     O_R   0.856660 0.908440 0.448310 -0.620909
O20   O     O_R   0.051740 0.091590 0.643330 -0.617169
O21   O     O_R   0.948290 0.091650 0.539960 -0.631056
O22   O     O_R   0.143330 0.091630 0.551690 -0.623413
O23   O     O_R   0.039880 0.091690 0.448320 -0.624159
O24   O     O_R   0.948270 0.540000 0.091680 -0.624298
Zn1   Zn    Zn3+2 0.499960 0.569050 0.569040 0.969237
Zn2   Zn    Zn3+2 0.500040 0.430950 0.430960 0.953110
Zn3   Zn    Zn3+2 0.069080 0.999990 0.569020 0.951437
Zn4   Zn    Zn3+2 0.930920 0.000070 0.430980 0.941079
Zn5   Zn    Zn3+2 0.930940 0.431040 0.000110 0.948916
Zn6   Zn    Zn3+2 0.069060 0.569140 0.000070 0.961543

loop_
_geom_bond_atom_site_label_1
_geom_bond_atom_site_label_2
_ccdc_geom_bond_type
C8    C9    A    
C55   C56   A    
C22   O2    A    
O20   Zn3   S    
C27   C29   A    
C24   O3    A    
C35   C36   A    
C47   H21   S    
C31   C52   S    
O6    Zn5   S    
C54   H26   S    
C20   C41   S    
C19   C46   S    
C16   O14   A    
C7    C8    A    
C39   C41   A    
C53   C54   S    
C27   C33   A    
C22   O24   A    
C12   C23   S    
C37   C38   A    
C4    C42   S    
O9    Zn6   S    
C34   C40   S    
C23   H8    S    
C36   C37   A    
O21   Zn4   S    
C32   H3    S    
C1    C2    S    
C5    C6    A    
C25   O6    A    
C45   H13   S    
C10   C17   A    
C57   H15   S    
C56   C57   A    
C26   O9    A    
C24   O5    A    
C48   H20   S    
O7    Zn6   S    
C20   O21   A    
O1    Zn1   S    
C25   C37   S    
O8    Zn5   S    
C47   C48   S    
C16   C17   S    
C3    H23   S    
C49   H17   S    
C53   H28   S    
C36   H5    S    
C55   H14   S    
C43   H1    S    
C51   N2    T    
C26   O8    A    
C40   C42   A    
C2    C45   A    
C13   C14   A    
C39   H7    S    
C47   H22   S    
O12   Zn4   S    
C1    O4    A    
C54   H25   S    
C44   C46   A    
C16   O13   A    
C38   H6    S    
C28   O15   A    
C38   C39   A    
C4    O11   A    
C52   H30   S    
O3    Zn5   S    
C1    O1    A    
C20   O20   A    
O24   Zn5   S    
C58   H12   S    
C19   O18   A    
O23   Zn4   S    
C6    C21   S    
C4    O10   A    
C28   O16   A    
C7    C47   S    
C48   H19   S    
C12   C40   A    
C43   C44   A    
O16   Zn2   S    
C21   O22   A    
C3    C9    A    
C31   C32   A    
O17   Zn3   S    
C19   O19   A    
C23   C34   S    
O5    Zn6   S    
C49   H18   S    
C34   H11   S    
C14   H34   S    
O15   Zn1   S    
O18   Zn3   S    
C12   C46   A    
C48   C49   S    
C13   C26   S    
C42   C43   A    
C34   H10   S    
C8    C50   S    
C54   H24   S    
C52   C53   S    
C29   C51   S    
C45   C55   A    
C15   C17   A    
O19   Zn4   S    
C22   C30   S    
C49   H16   S    
C52   H29   S    
C25   O7    A    
C3    C5    A    
C15   H35   S    
C2    C58   A    
C6    C7    A    
C24   C56   S    
C32   C33   A    
C21   O23   A    
O14   Zn2   S    
C11   C13   A    
O13   Zn1   S    
C57   C58   A    
C30   C31   A    
C23   H9    S    
C44   H2    S    
O10   Zn1   S    
C35   H4    S    
O4    Zn2   S    
O22   Zn3   S    
C35   C41   A    
C18   C33   S    
C18   O12   A    
C10   C11   A    
C29   C30   A    
C11   H33   S    
O2    Zn6   S    
C10   H32   S    
C18   O17   A    
C14   C15   A    
C27   H36   S    
C53   H27   S    
O11   Zn2   S    
C50   N1    T    
C5    H31   S    
C9    C28   S    
