data_mof_unit_13479.cif
_audit_creation_date              2012-10-26T18:32:58-0400
_audit_creation_method            fapswitch 2.2
_symmetry_space_group_name_H-M    P1
_symmetry_Int_Tables_number       1
_space_group_crystal_system       triclinic
_cell_length_a                    13.840477
_cell_length_b                    13.880203
_cell_length_c                    15.097793
_cell_angle_alpha                 87.9904
_cell_angle_beta                  90.048087
_cell_angle_gamma                 84.497349
_cell_volume                      2885.24915302

loop_
_atom_site_label
_atom_site_type_symbol
_atom_type_description
_atom_site_fract_x
_atom_site_fract_y
_atom_site_fract_z
_atom_type_partial_charge
C1    C     C_R   0.500169 0.500514 0.329156 0.612143
C2    C     C_R   0.568734 0.326684 0.961181 0.166027
C3    C     C_R   0.786747 0.564140 0.444887 0.269887
C4    C     C_R   0.212156 0.438926 0.557310 0.261749
C5    C     C_R   0.799821 0.442584 0.560211 0.352987
C6    C     C_R   0.199728 0.568865 0.450046 0.350390
C7    C     C_R   0.901197 0.451315 0.570325 -0.002109
C8    C     C_R   0.095879 0.578952 0.456415 -0.008687
C9    C     C_R   0.946857 0.512693 0.510751 -0.074773
C10   C     C_R   0.050451 0.512489 0.511156 -0.074135
C11   C     C_R   0.888781 0.575814 0.452329 -0.012481
C12   C     C_R   0.500360 0.496684 0.670688 0.584803
C13   C     C_R   0.108349 0.447612 0.568235 -0.013033
C14   C     C_R   0.958196 0.404721 0.640844 0.183350
C15   C     C_R   0.035225 0.656104 0.414066 0.170844
C16   C     C_R   0.515955 0.317145 0.500446 0.562630
C17   C     C_R   0.484027 0.682800 0.500134 0.574481
C18   C     C_R   0.060682 0.398403 0.637411 0.158449
C19   C     C_R   0.933572 0.651935 0.408112 0.155921
C20   C     C_1   0.474097 0.785902 0.498447 0.046147
C21   C     C_1   0.525789 0.213982 0.502280 0.050764
C22   C     C_2   0.460187 0.976551 0.493510 0.236599
C23   C     C_R   0.496035 0.495088 0.952765 -0.088715
C24   C     C_2   0.539497 0.023235 0.506605 0.247417
C25   C     C_1   0.532880 0.127076 0.504213 0.082739
C26   C     C_1   0.466848 0.872773 0.496305 0.078916
C27   C     C_R   0.527161 0.408858 0.815467 0.084424
C28   C     C_R   0.463750 0.583838 0.184035 0.103899
C29   C     C_R   0.500250 0.495401 0.767016 0.010728
C30   C     C_R   0.501643 0.500790 0.232479 0.019946
C31   C     C_R   0.470747 0.580854 0.809293 0.222090
C32   C     C_R   0.542016 0.418284 0.190507 0.196003
C33   C     C_R   0.459587 0.579155 0.902121 0.014656
C34   C     C_R   0.497347 0.497152 0.046824 -0.087539
C35   C     C_R   0.533356 0.412605 0.097534 0.001952
C36   C     C_3   0.466515 0.269663 0.749215 -0.319585
C37   C     C_3   0.488329 0.727515 0.267182 -0.254242
C38   C     C_3   0.477619 0.829127 0.049750 -0.261452
C39   C     C_3   0.718409 0.251204 0.898516 -0.247016
C40   C     C_3   0.750308 0.575605 0.287448 -0.265410
C41   C     C_3   0.262705 0.267071 0.566236 -0.239715
C42   C     C_3   0.867697 0.454291 0.773723 -0.279168
C43   C     C_3   0.101183 0.804139 0.459672 -0.233502
C44   C     C_3   0.103163 0.257755 0.739459 -0.282311
C45   C     C_R   0.531729 0.409394 0.909246 0.008110
C46   C     C_3   0.893422 0.765544 0.280787 -0.275630
C47   C     C_R   0.463927 0.584224 0.089820 0.009012
C48   C     C_R   0.415959 0.659898 0.945959 0.280515
C49   C     C_R   0.560857 0.326012 0.053178 0.297699
C50   C     C_R   0.428771 0.667229 0.037154 0.151709
Cl1   Cl    Cl    0.654768 0.960549 0.527451 -0.575148
Cl2   Cl    Cl    0.345047 0.038814 0.471570 -0.640708
Cl3   Cl    Cl    0.465459 0.690658 0.744287 -0.506011
Cl4   Cl    Cl    0.612118 0.329311 0.257380 -0.503506
Cl5   Cl    Cl    0.331066 0.747116 0.892611 -0.530427
Cl6   Cl    Cl    0.573349 0.209379 0.106473 -0.473043
Cl7   Cl    Cl    0.748574 0.346092 0.614757 -0.628511
Cl8   Cl    Cl    0.257237 0.636732 0.369135 -0.611105
Cu1   Cu    Cu3+1 0.597420 0.500010 0.499990 1.088548
Cu2   Cu    Cu3+1 0.402580 0.499990 0.500010 1.084319
H1    H     H_    0.594641 0.326858 0.716565 0.307539
H2    H     H_    0.464970 0.893515 0.091301 0.172002
H3    H     H_    0.468117 0.853077 0.979090 0.211837
H4    H     H_    0.553464 0.796667 0.060530 0.145343
H5    H     H_    0.579134 0.199137 0.887763 0.294824
H6    H     H_    0.751684 0.179999 0.876795 0.165745
H7    H     H_    0.760558 0.273046 0.955902 0.164079
H8    H     H_    0.722407 0.305475 0.843255 0.169083
H9    H     H_    0.713233 0.684964 0.379125 0.267019
H10   H     H_    0.697696 0.612673 0.238920 0.123399
H11   H     H_    0.744032 0.496490 0.286660 0.208325
H12   H     H_    0.491936 0.192951 0.737247 0.166946
H13   H     H_    0.824784 0.588379 0.266606 0.144770
H14   H     H_    0.277329 0.365934 0.667763 0.258468
H15   H     H_    0.314565 0.212888 0.601489 0.156940
H16   H     H_    0.279527 0.266518 0.494331 0.208338
H17   H     H_    0.188255 0.245571 0.575209 0.162805
H18   H     H_    0.890191 0.310151 0.728267 0.292043
H19   H     H_    0.853060 0.425933 0.841541 0.135209
H20   H     H_    0.797742 0.482738 0.742327 0.186002
H21   H     H_    0.914989 0.514150 0.779232 0.160960
H22   H     H_    0.104046 0.751691 0.328142 0.296443
H23   H     H_    0.431258 0.301384 0.687946 0.153319
H24   H     H_    0.117571 0.875885 0.431973 0.183697
H25   H     H_    0.167150 0.768530 0.493328 0.195283
H26   H     H_    0.041946 0.815578 0.508913 0.162068
H27   H     H_    0.119807 0.403692 0.763675 0.265762
H28   H     H_    0.175910 0.218776 0.752192 0.154313
H29   H     H_    0.066317 0.219641 0.687458 0.168483
H30   H     H_    0.060448 0.255507 0.801623 0.162745
H31   H     H_    0.858242 0.788701 0.414550 0.288296
H32   H     H_    0.823229 0.779726 0.244889 0.152847
H33   H     H_    0.939894 0.709795 0.245137 0.152281
H34   H     H_    0.413733 0.271638 0.804758 0.163609
H35   H     H_    0.929308 0.833785 0.280277 0.176972
H36   H     H_    0.355123 0.695797 0.211124 0.310604
H37   H     H_    0.533777 0.755874 0.213889 0.151408
H38   H     H_    0.537049 0.688380 0.317332 0.148420
H39   H     H_    0.446878 0.789199 0.299275 0.167919
H40   H     H_    0.338082 0.788669 0.068480 0.293468
N1    N     N_R   0.743820 0.499960 0.499930 -0.207633
N2    N     N_2   0.071005 0.745889 0.388933 -0.504730
N3    N     N_2   0.114497 0.357313 0.712387 -0.529319
N4    N     N_2   0.875114 0.733820 0.371243 -0.517416
N5    N     N_R   0.256180 0.500040 0.500070 -0.210802
N6    N     N_2   0.548897 0.321522 0.769590 -0.525154
N7    N     N_2   0.421702 0.663798 0.232310 -0.454494
N8    N     N_2   0.409426 0.759971 0.074358 -0.519680
N9    N     N_2   0.618673 0.243149 0.923970 -0.451143
N10   N     N_2   0.729374 0.611291 0.375187 -0.456553
N11   N     N_2   0.271497 0.362323 0.600101 -0.473411
N12   N     N_2   0.915727 0.377388 0.722822 -0.502738
O1    O     O_R   0.582280 0.500030 0.370250 -0.478458
O2    O     O_R   0.417720 0.499970 0.629750 -0.486673
O3    O     O_R   0.417740 0.500020 0.370270 -0.429734
O4    O     O_R   0.582260 0.499980 0.629730 -0.472278
O5    O     O_R   0.593900 0.362160 0.500010 -0.417348
O6    O     O_R   0.406100 0.637840 0.499990 -0.440678
O7    O     O_R   0.429360 0.362150 0.500030 -0.504655
O8    O     O_R   0.570640 0.637850 0.499970 -0.498606

loop_
_geom_bond_atom_site_label_1
_geom_bond_atom_site_label_2
_ccdc_geom_bond_type
C48   Cl5   S    
C28   C47   A    
C42   H20   S    
Cu1   O8    S    
C23   C45   A    
C40   H11   S    
C12   C29   S    
C27   C29   A    
C39   H8    S    
C6    Cl8   S    
Cu2   O2    S    
H31   N4    S    
C37   H37   S    
C2    N9    S    
C14   N12   S    
C11   C19   A    
C16   C21   S    
C40   H10   S    
C13   C18   A    
C37   N7    S    
C41   H17   S    
C46   H32   S    
C36   H23   S    
C17   C20   S    
C40   H13   S    
Cu2   O7    S    
C34   C35   A    
C19   N4    S    
C4    C13   A    
C42   N12   S    
C17   O8    A    
C7    C14   A    
C46   H35   S    
Cu1   O4    S    
C23   C33   A    
C35   C49   A    
C31   C33   A    
Cu2   O6    S    
C9    C10   A    
C38   H4    S    
C27   C45   A    
C24   Cl1   S    
C48   C50   A    
Cu1   Cu2   S    
Cu1   O5    S    
C50   N8    S    
C43   H24   S    
C42   H21   S    
C1    O1    A    
C32   Cl4   S    
C37   H38   S    
C44   N3    S    
C47   C50   A    
C12   O2    A    
C2    C45   A    
C5    N1    A    
H40   N8    S    
C36   N6    S    
Cu1   N1    S    
C32   C35   A    
C24   C25   S    
C16   O7    A    
H14   N11   S    
C5    C7    A    
C6    C8    A    
C27   N6    S    
C46   N4    S    
C43   H25   S    
C15   C19   A    
C2    C49   A    
C41   H15   S    
H9    N10   S    
Cu1   O1    S    
C23   C34   A    
H22   N2    S    
C31   Cl3   S    
H1    N6    S    
C9    C11   A    
H5    N9    S    
C17   O6    A    
H27   N3    S    
H36   N7    S    
C8    C15   A    
C22   C26   S    
C39   H6    S    
C22   C24   D    
C37   H39   S    
C44   H30   S    
C22   Cl2   S    
C38   H3    S    
C7    C9    A    
C21   C25   T    
C43   H26   S    
C39   H7    S    
C14   C18   A    
C4    N11   S    
C10   C13   A    
C42   H19   S    
C40   N10   S    
C49   Cl6   S    
C1    O3    A    
C4    N5    A    
C5    Cl7   S    
C28   C30   A    
C43   N2    S    
C29   C31   A    
C16   O5    A    
C41   H16   S    
C30   C32   A    
C3    N1    A    
C46   H33   S    
C20   C26   T    
C1    C30   S    
C6    N5    A    
C18   N3    S    
C15   N2    S    
C38   N8    S    
C3    C11   A    
C44   H29   S    
C3    N10   S    
C36   H34   S    
C39   N9    S    
C8    C10   A    
C41   N11   S    
C33   C48   A    
Cu2   O3    S    
H18   N12   S    
C34   C47   A    
C28   N7    S    
C38   H2    S    
C44   H28   S    
Cu2   N5    S    
C36   H12   S    
C12   O4    A    
