data_mof_unit_49057.cif
_audit_creation_date              2012-12-10T20:50:56-0500
_audit_creation_method            fapswitch 2.2
_symmetry_space_group_name_H-M    P1
_symmetry_Int_Tables_number       1
_space_group_crystal_system       triclinic
_cell_length_a                    18.422629
_cell_length_b                    18.441818
_cell_length_c                    18.44566
_cell_angle_alpha                 120.087315
_cell_angle_beta                  90.001566
_cell_angle_gamma                 119.86661
_cell_volume                      4434.34196439

loop_
_atom_site_label
_atom_site_type_symbol
_atom_type_description
_atom_site_fract_x
_atom_site_fract_y
_atom_site_fract_z
_atom_type_partial_charge
C1    C     C_R   0.359770 0.501711 0.361796 0.813477
C2    C     C_2   0.306576 0.513409 0.696367 0.217810
C3    C     C_R   0.574374 0.816765 0.426642 -0.401011
C4    C     C_R   0.641060 0.501014 0.639439 0.877214
C5    C     C_R   0.482966 0.743334 0.399545 0.496294
C6    C     C_R   0.438483 0.653055 0.312448 -0.164658
C7    C     C_R   0.485248 0.639185 0.251887 0.298822
C8    C     C_R   0.575623 0.716900 0.277961 0.424214
C9    C     C_R   0.620985 0.804445 0.366051 0.311588
C10   C     C_R   0.285320 0.570077 0.228857 -0.222572
C11   C     C_R   0.193213 0.499100 0.198602 -0.048918
C12   C     C_2   0.306721 0.111852 0.294326 0.277654
C13   C     C_R   0.156712 0.431405 0.224716 0.111455
C14   C     C_R   0.212936 0.436465 0.279804 -0.301610
C15   C     C_R   0.304980 0.505634 0.308331 -0.044983
C16   C     C_R   0.641059 0.501436 0.362602 0.847656
C17   C     C_R   0.341828 0.574532 0.283336 0.170060
C18   C     C_R   0.011417 0.362977 0.249990 -0.287977
C19   C     C_R   0.920915 0.287359 0.220618 -0.290618
C20   C     C_R   0.878588 0.197862 0.133696 0.545127
C21   C     C_R   0.927156 0.185007 0.075281 0.358010
C22   C     C_R   0.019703 0.259951 0.105992 0.365757
C23   C     C_2   0.780747 0.562160 0.836976 -0.354478
C24   C     C_R   0.060903 0.350377 0.192829 -0.001523
C25   C     C_R   0.529772 0.821494 0.874497 -0.161454
C26   C     C_R   0.571246 0.866533 0.831231 -0.191927
C27   C     C_R   0.657022 0.893514 0.830495 0.048164
C28   C     C_R   0.361046 0.501351 0.639606 0.826466
C29   C     C_R   0.700072 0.870313 0.870991 0.578640
C30   C     C_R   0.658478 0.826875 0.915978 0.500791
C31   C     C_R   0.573380 0.802935 0.917643 -0.303428
C32   C     C_R   0.747478 0.053215 0.839109 0.519386
C33   C     C_R   0.796889 0.108101 0.804492 -0.292463
C34   C     C_2   0.786489 0.483236 0.807824 0.275607
C35   C     C_R   0.790096 0.053245 0.713714 -0.073605
C36   C     C_R   0.745561 0.946934 0.662768 0.376758
C37   C     C_R   0.697222 0.891666 0.697546 -0.263881
C38   C     C_R   0.700455 0.945990 0.787288 -0.164520
C39   C     C_R   0.771740 0.119098 0.631081 -0.384901
C40   C     C_R   0.640473 0.778256 0.639006 0.839471
C41   C     C_R   0.801558 0.163866 0.584244 0.506784
C42   C     C_R   0.887428 0.198293 0.578988 0.541254
C43   C     C_R   0.939397 0.179813 0.613918 -0.348214
C44   C     C_R   0.908128 0.132752 0.657876 -0.168940
C45   C     C_2   0.715960 0.555319 0.783659 0.528211
C46   C     C_R   0.824691 0.103433 0.667536 0.215348
C47   C     C_R   0.811265 0.478418 0.513993 -0.441235
C48   C     C_R   0.803407 0.511475 0.462116 0.466655
C49   C     C_R   0.761242 0.439880 0.369652 -0.007334
C50   C     C_R   0.727293 0.336752 0.330241 -0.310594
C51   C     C_R   0.735085 0.303488 0.381393 0.489823
C52   C     C_R   0.361112 0.222878 0.360823 0.744518
C53   C     C_R   0.777747 0.374929 0.474451 0.383251
C54   C     C_R   0.811141 0.475314 0.258245 0.385474
C55   C     C_R   0.807352 0.506932 0.203590 -0.101509
C56   C     C_2   0.702522 0.508944 0.695980 -0.262872
C57   C     C_R   0.757302 0.547174 0.210242 0.011283
C58   C     C_R   0.703460 0.543199 0.262149 -0.286891
C59   C     C_R   0.701279 0.505092 0.311480 -0.067672
C60   C     C_R   0.757140 0.473421 0.312296 -0.003568
C61   C     C_R   0.827457 0.707503 0.218433 0.484993
C62   C     C_R   0.839265 0.760530 0.180235 0.317868
C63   C     C_R   0.785519 0.705847 0.091846 0.224709
C64   C     C_2   0.276358 0.943101 0.223607 -0.293408
C65   C     C_R   0.718562 0.601131 0.045674 -0.161297
C66   C     C_R   0.706726 0.547351 0.082480 0.364994
C67   C     C_2   0.280083 0.555690 0.838196 0.395081
C68   C     C_R   0.763380 0.600521 0.168966 -0.143211
C69   C     C_R   0.136408 0.498788 0.863173 0.884639
C70   C     C_R   0.858919 0.501412 0.143096 0.856903
C71   C     C_R   0.854327 0.497095 0.863377 0.765380
C72   C     C_R   0.137730 0.499321 0.141829 0.828329
C73   C     C_R   0.856305 0.221615 0.863491 0.842675
C74   C     C_R   0.136092 0.776853 0.143133 0.726922
C75   C     C_2   0.190109 0.886695 0.212917 0.350636
C76   C     C_2   0.333193 0.054722 0.292988 0.529199
C77   C     C_3   0.423789 0.829967 0.473180 -0.336271
C78   C     C_2   0.191250 0.488526 0.807268 -0.292666
C79   C     C_3   0.456850 0.482113 0.156420 -0.192014
C80   C     C_3   0.612605 0.746588 0.174114 -0.238115
C81   C     C_3   0.769342 0.067998 0.137235 -0.243832
C82   C     C_3   0.098076 0.192621 0.054337 -0.326312
C83   C     C_3   0.420802 0.035101 0.363413 -0.281311
C84   C     C_3   0.686669 0.129681 0.928330 -0.191836
C85   C     C_3   0.662804 0.098530 0.502521 -0.270612
C86   C     C_3   0.998058 0.337127 0.583994 -0.211255
C87   C     C_3   0.851965 0.809653 0.366045 -0.100386
C88   C     C_2   0.331462 0.536380 0.777935 0.262584
H1    H     H_    0.306763 0.907900 0.182363 0.134615
H2    H     H_    0.536328 0.880307 0.798026 0.143629
H3    H     H_    0.707787 0.096907 0.640067 0.150944
H4    H     H_    0.003664 0.200716 0.606299 0.172566
H5    H     H_    0.948861 0.119331 0.684525 0.157197
H6    H     H_    0.844240 0.533521 0.585165 0.138613
H7    H     H_    0.695604 0.281959 0.258832 0.204515
H8    H     H_    0.663066 0.570926 0.264209 0.176636
H9    H     H_    0.676525 0.559994 0.978834 0.196864
H10   H     H_    0.824002 0.633843 0.901927 0.186061
H11   H     H_    0.739639 0.478272 0.664899 0.151558
H12   H     H_    0.157624 0.420828 0.739045 0.127263
H13   H     H_    0.410053 0.553506 0.864283 0.341519
H14   H     H_    0.228435 0.497819 0.610334 0.343839
H15   H     H_    0.732169 0.934114 0.453906 0.359557
H16   H     H_    0.387316 0.807617 0.409455 0.153310
H17   H     H_    0.487482 0.907192 0.507495 0.150430
H18   H     H_    0.382297 0.835054 0.516582 0.202733
H19   H     H_    0.436608 0.462449 0.204368 0.127432
H20   H     H_    0.527650 0.511228 0.164164 0.184712
H21   H     H_    0.416495 0.410301 0.088588 0.185009
H22   H     H_    0.644362 0.830370 0.221592 0.173544
H23   H     H_    0.608680 0.883953 0.494772 0.200129
H24   H     H_    0.541887 0.706468 0.137485 0.173744
H25   H     H_    0.647286 0.735874 0.124546 0.196953
H26   H     H_    0.092402 0.878483 0.258319 0.374280
H27   H     H_    0.786809 0.115951 0.210722 0.176729
H28   H     H_    0.804087 0.029465 0.117881 0.181583
H29   H     H_    0.696992 0.007240 0.108829 0.193840
H30   H     H_    0.921854 0.103983 0.953163 0.357007
H31   H     H_    0.041197 0.114631 0.031807 0.184163
H32   H     H_    0.141821 0.234170 0.122536 0.168421
H33   H     H_    0.137584 0.183261 0.009331 0.204155
H34   H     H_    0.314124 0.623217 0.210342 0.171355
H35   H     H_    0.800468 0.909240 0.827728 0.322358
H36   H     H_    0.665113 0.778539 0.986601 0.329019
H37   H     H_    0.429023 0.983282 0.303847 0.164889
H38   H     H_    0.362588 0.990611 0.377954 0.159620
H39   H     H_    0.480749 0.080757 0.420840 0.196261
H40   H     H_    0.618807 0.061172 0.882008 0.119764
H41   H     H_    0.708355 0.187292 0.913408 0.118997
H42   H     H_    0.683079 0.164194 0.996516 0.204409
H43   H     H_    0.762777 0.849018 0.571491 0.341894
H44   H     H_    0.624672 0.096551 0.548907 0.147418
H45   H     H_    0.183971 0.383260 0.298254 0.178373
H46   H     H_    0.656011 0.024832 0.459961 0.142867
H47   H     H_    0.632756 0.107139 0.457856 0.202874
H48   H     H_    0.052856 0.327325 0.583682 0.172455
H49   H     H_    0.000845 0.385287 0.653301 0.170539
H50   H     H_    0.008507 0.379245 0.553939 0.196083
H51   H     H_    0.819815 0.402182 0.587950 0.351894
H52   H     H_    0.864087 0.652787 0.565014 0.328751
H53   H     H_    0.224322 0.119379 0.236569 0.341720
H54   H     H_    0.713139 0.188219 0.380805 0.386072
H55   H     H_    0.885972 0.458799 0.315728 0.331188
H56   H     H_    0.042873 0.432000 0.317077 0.190171
H57   H     H_    0.780650 0.756658 0.354413 0.170034
H58   H     H_    0.862943 0.875213 0.367178 0.221179
H59   H     H_    0.890183 0.840918 0.432859 0.173911
H60   H     H_    0.885185 0.896603 0.212182 0.344860
H61   H     H_    0.859591 0.810101 0.072412 0.363700
H62   H     H_    0.637647 0.414134 0.064227 0.330032
H63   H     H_    0.736242 0.338023 0.721334 0.365219
H64   H     H_    0.687724 0.624524 0.887077 0.376626
H65   H     H_    0.386760 0.684280 0.933670 0.321218
H66   H     H_    0.883188 0.298758 0.265068 0.194650
H67   H     H_    0.540783 0.769290 0.951982 0.145431
H68   H     H_    0.463756 0.801436 0.875017 0.170236
O1    O     O_3   0.500000 0.500000 0.500000 -0.509398
O2    O     O_R   0.053310 0.439870 0.118130 -0.626723
O3    O     O_R   0.881750 0.270770 0.828220 -0.652512
O4    O     O_R   0.323160 0.439910 0.385120 -0.654542
O5    O     O_R   0.173180 0.729110 0.116590 -0.654692
O6    O     O_R   0.882410 0.270770 0.949030 -0.588909
O7    O     O_R   0.051730 0.729120 0.116590 -0.630694
O8    O     O_R   0.880830 0.560020 0.947500 -0.648792
O9    O     O_R   0.174110 0.560030 0.117490 -0.652163
O10   O     O_R   0.051730 0.439850 0.827330 -0.674676
O11   O     O_R   0.882410 0.439870 0.118130 -0.581557
O12   O     O_R   0.615510 0.439910 0.385120 -0.643114
O13   O     O_R   0.616440 0.439920 0.555110 -0.637906
O14   O     O_R   0.614860 0.560070 0.384480 -0.662030
O15   O     O_R   0.445540 0.560090 0.675280 -0.586130
O16   O     O_R   0.614860 0.729170 0.553580 -0.602939
O17   O     O_R   0.324090 0.270830 0.386020 -0.642922
O18   O     O_R   0.615510 0.729180 0.674390 -0.657604
O19   O     O_R   0.445540 0.270830 0.386020 -0.595105
O20   O     O_3   0.405643 0.542980 0.805780 -0.758621
O21   O     O_3   0.233547 0.509044 0.669099 -0.837875
O22   O     O_3   0.710280 0.877090 0.390439 -0.743270
O23   O     O_R   0.324090 0.439920 0.555110 -0.658069
O24   O     O_3   0.437769 0.756196 0.459645 -0.583162
O25   O     O_3   0.440759 0.552805 0.165176 -0.579264
O26   O     O_3   0.620782 0.705141 0.217795 -0.593154
O27   O     O_3   0.154754 0.931872 0.271538 -0.707892
O28   O     O_3   0.787871 0.126071 0.102758 -0.546623
O29   O     O_3   0.882297 0.098251 0.989273 -0.696367
O30   O     O_3   0.068973 0.248423 0.049829 -0.614452
O31   O     O_3   0.781260 0.886463 0.866817 -0.700034
O32   O     O_3   0.702635 0.808415 0.957596 -0.691378
O33   O     O_3   0.414665 0.103032 0.353333 -0.601908
O34   O     O_R   0.443960 0.560080 0.384480 -0.646029
O35   O     O_3   0.747612 0.103977 0.925614 -0.520684
O36   O     O_3   0.751652 0.899342 0.579053 -0.759166
O37   O     O_3   0.752369 0.183664 0.549403 -0.533278
O38   O     O_3   0.915161 0.241118 0.531917 -0.576080
O39   O     O_3   0.786412 0.342469 0.524975 -0.705239
O40   O     O_3   0.837340 0.612973 0.499789 -0.774878
O41   O     O_3   0.230420 0.065891 0.229351 -0.747811
O42   O     O_3   0.701109 0.201021 0.337645 -0.767499
O43   O     O_3   0.870618 0.450471 0.259479 -0.745462
O44   O     O_3   0.882878 0.759108 0.302810 -0.589552
O45   O     O_R   0.616440 0.560090 0.675280 -0.564826
O46   O     O_3   0.903509 0.864852 0.231087 -0.732515
O47   O     O_3   0.796783 0.751187 0.048022 -0.771328
O48   O     O_3   0.640528 0.443417 0.030874 -0.761139
O49   O     O_3   0.725349 0.388566 0.729115 -0.756107
O50   O     O_3   0.671161 0.598106 0.823652 -0.684231
O51   O     O_3   0.323247 0.640767 0.925570 -0.741988
O52   O     O_3   0.997270 0.499940 0.002610 -0.504142
O53   O     O_R   0.173180 0.560020 0.947500 -0.560861
O54   O     O_R   0.881750 0.560030 0.117490 -0.659050
O55   O     O_R   0.880830 0.439850 0.827330 -0.650031
Zn1   Zn    Zn3+2 0.543620 0.414150 0.457300 1.014512
Zn2   Zn    Zn3+2 0.542680 0.585840 0.456390 0.977676
Zn3   Zn    Zn3+2 0.543620 0.585850 0.629000 1.042646
Zn4   Zn    Zn3+2 0.370090 0.414160 0.457300 0.975865
Zn5   Zn    Zn3+2 0.953650 0.585790 0.045310 0.988087
Zn6   Zn    Zn3+2 0.953650 0.414090 0.873610 0.960692
Zn7   Zn    Zn3+2 0.954590 0.414100 0.046220 1.029908
Zn8   Zn    Zn3+2 0.127180 0.585790 0.045310 1.005313

loop_
_geom_bond_atom_site_label_1
_geom_bond_atom_site_label_2
_ccdc_geom_bond_type
C25   C31   A    
C66   C68   A    
C63   C65   A    
C84   H40   S    
C45   O50   S    
C23   C45   S    
C87   H58   S    
C27   C29   A    
C72   O9    A    
O12   Zn1   S    
C35   C36   A    
C81   O28   S    
C82   H32   S    
C32   O35   S    
C75   O27   S    
O6    Zn7   S    
C4    O45   A    
H60   O46   S    
C7    C8    A    
C39   C41   A    
O14   Zn2   S    
C54   C60   A    
H43   O36   S    
O8    Zn5   S    
O1    Zn3   S    
C37   C38   A    
C49   C60   S    
C87   H59   S    
C82   O30   S    
C18   C24   A    
C33   C73   S    
C87   O44   S    
H64   O50   S    
C36   C37   A    
O17   Zn4   S    
C37   C40   S    
C85   H44   S    
C30   C31   A    
C50   H7    S    
C27   C38   S    
C8    O26   S    
H26   O27   S    
C81   H29   S    
C84   H41   S    
C72   O2    A    
C84   O35   S    
C18   C19   A    
C41   C42   A    
C42   O38   S    
C58   H8    S    
C69   O10   A    
C62   O46   S    
C41   O37   S    
C44   H5    S    
C86   H49   S    
H65   O51   S    
O15   Zn3   S    
C64   C75   D    
C19   C20   A    
C45   C56   D    
H51   O39   S    
C8    C9    A    
O3    Zn6   S    
C12   O41   S    
C2    C88   D    
C1    C15   S    
C2    O21   S    
C80   O26   S    
C29   C30   A    
C87   H57   S    
H61   O47   S    
C82   H33   S    
C85   H46   S    
C47   C53   A    
C66   O48   S    
C1    O34   A    
O52   Zn8   S    
C59   C60   A    
O52   Zn5   S    
C13   C14   A    
C4    C56   S    
C25   H68   S    
H54   O42   S    
C53   O39   S    
C80   H24   S    
C69   C78   S    
C67   C78   D    
H53   O41   S    
C82   H31   S    
C83   H37   S    
C61   O44   S    
C39   H3    S    
C12   C52   S    
H30   O29   S    
C44   C46   A    
C34   O49   S    
O52   Zn7   S    
O55   Zn6   S    
O1    Zn4   S    
C77   O24   S    
C4    O13   A    
C7    O25   S    
C67   C88   S    
O53   Zn8   S    
C71   O8    A    
C3    H23   S    
H36   O32   S    
C79   H21   S    
C11   C72   S    
C19   H66   S    
C80   H25   S    
C3    C5    A    
C25   C26   A    
O4    Zn4   S    
C54   O43   S    
C29   O31   S    
C13   C24   S    
O18   Zn3   S    
C16   C59   S    
C30   O32   S    
C22   O30   S    
C43   C44   A    
C5    O24   S    
C62   C63   A    
C3    C9    A    
C51   O42   S    
C16   O14   A    
O7    Zn5   S    
C28   O15   A    
C47   C48   A    
O10   Zn6   S    
O2    Zn7   S    
C23   C34   D    
C81   H27   S    
C10   C17   A    
C50   C51   A    
C64   C76   S    
C79   H19   S    
O19   Zn1   S    
H63   O49   S    
H52   O40   S    
C52   O19   A    
C63   O47   S    
C85   H47   S    
C39   C46   A    
C86   H48   S    
C48   C49   A    
C49   C50   A    
C32   C38   A    
C10   C11   A    
O5    Zn8   S    
C12   C76   D    
C26   C27   A    
C70   O54   A    
C22   C24   A    
C58   C59   A    
C69   O53   A    
C42   C43   A    
C57   C68   S    
C80   H22   S    
O16   Zn2   S    
C40   O16   A    
C67   O51   S    
C77   H16   S    
C64   H1    S    
O52   Zn6   S    
C15   C17   A    
C6    C17   S    
C54   C55   A    
C77   H18   S    
O11   Zn7   S    
C20   C21   A    
C36   O36   S    
C18   H56   S    
C83   O33   S    
C1    O4    A    
C83   H39   S    
C77   H17   S    
C10   H34   S    
C74   O5    A    
C31   H67   S    
C21   O29   S    
C6    C7    A    
O13   Zn1   S    
C14   H45   S    
C26   H2    S    
H55   O43   S    
C73   O3    A    
O1    Zn2   S    
C43   H4    S    
C88   O20   S    
C20   O28   S    
H62   O48   S    
H15   O22   S    
C32   C33   A    
C73   O6    A    
C55   C57   A    
C76   O33   S    
C65   H9    S    
C74   O7    A    
C70   O11   A    
C86   O38   S    
C78   H12   S    
C11   C13   A    
C61   C68   A    
C85   O37   S    
C57   C58   A    
C5    C6    A    
C16   O12   A    
O54   Zn5   S    
C52   O17   A    
C81   H28   S    
C84   H42   S    
C33   C35   A    
C47   H6    S    
C79   H20   S    
C71   O55   A    
H35   O31   S    
C61   C62   A    
C28   O23   A    
O45   Zn3   S    
C55   C70   S    
O34   Zn2   S    
C86   H50   S    
C79   O25   S    
C23   H10   S    
C74   C75   S    
C40   O18   A    
O1    Zn1   S    
C65   C66   A    
O9    Zn8   S    
O23   Zn4   S    
H14   O21   S    
C14   C15   A    
H13   O20   S    
C2    C28   S    
C83   H38   S    
C56   H11   S    
C51   C53   A    
C21   C22   A    
C35   C46   S    
C34   C71   S    
C48   O40   S    
C9    O22   S    
