data_mof_unit_14259.cif
_audit_creation_date              2013-03-05T15:52:26-0500
_audit_creation_method            fapswitch 2.2
_symmetry_space_group_name_H-M    P1
_symmetry_Int_Tables_number       1
_space_group_crystal_system       triclinic
_cell_length_a                    27.776162
_cell_length_b                    10.832671
_cell_length_c                    9.570529
_cell_angle_alpha                 92.148099
_cell_angle_beta                  89.630437
_cell_angle_gamma                 93.287423
_cell_volume                      2872.89102204

loop_
_atom_site_label
_atom_site_type_symbol
_atom_site_description
_atom_site_fract_x
_atom_site_fract_y
_atom_site_fract_z
_atom_type_partial_charge
O1    O     O_R   0.500000 0.319640 0.618810 -0.585691
O2    O     O_R   0.500000 0.319660 0.381240 -0.579571
C1    C     C_R   0.502880 0.262984 0.497676 0.806440
O3    O     O_R   0.430260 0.500010 0.618770 -0.577710
O4    O     O_R   0.430270 0.500030 0.381200 -0.579685
C2    C     C_R   0.407625 0.499997 0.500332 0.817947
Cu1   Cu    Cu3+1 0.500000 0.499990 0.640660 0.943835
Cu2   Cu    Cu3+1 0.500000 0.500010 0.359340 0.925702
O5    O     O_R   0.500000 0.680340 0.618760 -0.544912
O6    O     O_R   0.500000 0.680360 0.381190 -0.608408
O7    O     O_R   0.569730 0.499970 0.618800 -0.615011
O8    O     O_R   0.569740 0.499990 0.381230 -0.586182
C3    C     C_R   0.497538 0.737997 0.504069 0.785459
C4    C     C_R   0.592282 0.498416 0.499542 0.849741
C5    C     C_R   0.176903 0.461785 0.615566 0.594793
O9    O     O_2   0.200412 0.412914 0.721478 -0.517875
N1    N     N_R   0.202255 0.506825 0.503423 -0.457217
C6    C     C_R   0.179136 0.553210 0.392621 0.508185
C7    C     C_R   0.281383 0.575690 0.604960 0.499296
C8    C     C_R   0.331540 0.570009 0.606060 -0.305579
C9    C     C_R   0.327818 0.437573 0.396013 -0.228137
C10   C     C_R   0.277648 0.438240 0.397989 -0.163969
C11   C     C_R   0.254052 0.506522 0.502489 0.245993
C12   C     C_R   0.101936 0.511356 0.507168 -0.046624
C13   C     C_R   0.126470 0.465402 0.620687 -0.043221
C14   C     C_R   0.100254 0.423197 0.736207 -0.151820
C15   C     C_R   0.128632 0.554736 0.391597 -0.016239
C16   C     C_R   0.354951 0.502116 0.501083 -0.094394
H1    H     H_    0.345397 0.384603 0.314209 0.156354
H2    H     H_    0.257007 0.385475 0.318267 0.171972
H3    H     H_    0.118219 0.386225 0.824332 0.186289
C17   C     C_R   0.644997 0.500490 0.499414 -0.164090
C18   C     C_R   0.973671 0.482374 0.633167 0.041849
C19   C     C_R   0.975254 0.548503 0.388831 0.042384
C20   C     C_R   0.949175 0.515509 0.511431 0.071072
C21   C     C_R   0.946145 0.458160 0.755158 -0.208271
C22   C     C_R   0.896156 0.459943 0.755166 -0.150724
C23   C     C_R   0.871596 0.486404 0.633967 -0.044079
C24   C     C_R   0.897978 0.515028 0.512052 -0.047016
C25   C     C_R   0.873032 0.542389 0.390449 -0.021054
C26   C     C_R   0.822478 0.539829 0.392647 0.513850
N2    N     N_R   0.797569 0.511589 0.512176 -0.439704
C27   C     C_R   0.820999 0.484909 0.631699 0.604166
C28   C     C_R   0.720520 0.415159 0.430226 -0.284965
C29   C     C_R   0.670043 0.414150 0.417322 0.427360
C30   C     C_R   0.670292 0.589864 0.584419 -0.419113
C31   C     C_R   0.720796 0.598054 0.585343 0.529081
C32   C     C_R   0.745820 0.507853 0.510490 0.217335
O10   O     O_2   0.795395 0.455659 0.747363 -0.525039
C33   C     C_R   0.024593 0.474827 0.629203 0.040299
C34   C     C_R   0.050805 0.513539 0.508996 0.069878
C35   C     C_R   0.026486 0.554058 0.390396 0.040955
C36   C     C_R   0.050391 0.428075 0.740863 -0.208585
H4    H     H_    0.740659 0.343080 0.380175 0.158735
H5    H     H_    0.876790 0.440093 0.851136 0.184946
H6    H     H_    0.962178 0.439649 0.853822 0.135911
H7    H     H_    0.033028 0.391255 0.832518 0.139979
O11   O     O_2   0.204978 0.598867 0.284307 -0.548952
C37   C     C_R   0.104519 0.599818 0.278261 -0.149169
H8    H     H_    0.352229 0.621478 0.686498 0.164329
H9    H     H_    0.124240 0.635436 0.188923 0.187254
C38   C     C_R   0.948940 0.573317 0.267854 -0.213356
C39   C     C_R   0.898895 0.570403 0.269002 -0.150182
O12   O     O_2   0.798343 0.565789 0.276315 -0.555886
C40   C     C_R   0.054508 0.599404 0.277284 -0.213567
H10   H     H_    0.965851 0.592393 0.168805 0.137213
H11   H     H_    0.650701 0.654434 0.648757 0.156006
H12   H     H_    0.880517 0.589887 0.173437 0.188969
H13   H     H_    0.038987 0.638067 0.187042 0.140404
H14   H     H_    0.471592 0.100980 0.294403 0.154136
C41   C     C_R   0.552878 0.137999 0.713510 -0.203181
H15   H     H_    0.571102 0.226228 0.691369 0.181311
C42   C     C_R   0.556495 0.095435 0.847111 -0.232253
H16   H     H_    0.575745 0.154306 0.924116 0.173293
C43   C     C_R   0.531760 0.985127 0.883300 0.117975
C44   C     C_R   0.507662 0.910445 0.777321 0.381060
C45   C     C_R   0.508984 0.947868 0.635152 -0.042750
C46   C     C_R   0.523836 0.071952 0.613007 0.038167
C47   C     C_R   0.506675 0.129353 0.494827 -0.060684
C48   C     C_R   0.485267 0.058062 0.385345 -0.214052
H17   H     H_    0.467838 0.876684 0.301639 0.163937
C49   C     C_R   0.481492 0.930547 0.392060 -0.220255
C50   C     C_R   0.494171 0.873019 0.514368 -0.091626
H18   H     H_    0.442615 0.365869 0.124844 0.133042
C51   C     C_R   0.568405 0.655072 0.148840 -0.182391
H19   H     H_    0.569755 0.669221 0.259116 0.202921
C52   C     C_R   0.604298 0.722315 0.078090 -0.210735
H20   H     H_    0.631630 0.777803 0.135956 0.158879
C53   C     C_R   0.603398 0.724650 0.934188 -0.196700
H21   H     H_    0.629747 0.782807 0.879574 0.149873
C54   C     C_R   0.567325 0.656981 0.860452 -0.111999
H22   H     H_    0.567123 0.672682 0.751595 0.189076
C55   C     C_R   0.533234 0.576987 0.927572 0.239657
C56   C     C_R   0.533394 0.576715 0.077235 0.183085
N3    N     N_R   0.500460 0.501210 0.147910 -0.199734
C57   C     C_R   0.468423 0.426304 0.071453 -0.075212
H23   H     H_    0.442656 0.365847 0.865802 0.142752
C58   C     C_R   0.468464 0.426266 0.923353 -0.068155
N4    N     N_R   0.500480 0.501290 0.852040 -0.191971
O13   O     O_3   0.259014 0.645136 0.707656 -0.583221
C59   C     C_3   0.252839 0.763925 0.656970 0.015627
H24   H     H_    0.231999 0.757950 0.557508 0.161317
H25   H     H_    0.288577 0.813031 0.638745 0.131382
C60   C     C_3   0.224869 0.838581 0.765464 -0.311383
H26   H     H_    0.189146 0.790157 0.784078 0.232023
H27   H     H_    0.244966 0.845584 0.865772 0.232854
C61   C     C_3   0.217332 0.968597 0.716618 -0.888599
H28   H     H_    0.252630 0.019294 0.698928 0.258690
H29   H     H_    0.197120 0.020516 0.797838 0.265712
H30   H     H_    0.196260 0.963798 0.618082 0.259140
O14   O     O_3   0.746178 0.685999 0.669216 -0.581244
C62   C     C_3   0.739881 0.806661 0.622865 0.030047
H31   H     H_    0.750197 0.872788 0.710556 0.181951
H32   H     H_    0.701744 0.823091 0.597711 0.120934
C63   C     C_3   0.772754 0.835494 0.497471 -0.348243
H33   H     H_    0.810593 0.817649 0.523797 0.234862
H34   H     H_    0.761447 0.774400 0.406350 0.237752
C64   C     C_3   0.770280 0.969932 0.457073 -0.893248
H35   H     H_    0.732807 0.989165 0.428500 0.255118
H36   H     H_    0.794172 0.987631 0.365677 0.262682
H37   H     H_    0.782436 0.033496 0.545265 0.260732
C65   C     C_3   0.525718 0.954008 0.035982 -0.348270
C66   C     C_3   0.568000 0.001011 0.129538 -0.845100
H38   H     H_    0.603034 0.986136 0.076873 0.246189
H39   H     H_    0.565496 0.101076 0.156410 0.255094
H40   H     H_    0.566917 0.950652 0.228455 0.257613
H41   H     H_    0.492249 0.994245 0.076030 0.177985
H42   H     H_    0.520602 0.852536 0.045541 0.241468
O15   O     O_3   0.478648 0.810398 0.818652 -0.600375
C67   C     C_3   0.430864 0.845623 0.838211 0.042254
H43   H     H_    0.411990 0.840460 0.735773 0.147106
H44   H     H_    0.429131 0.941247 0.885189 0.121594
C68   C     C_3   0.405264 0.755640 0.937269 -0.331100
H45   H     H_    0.405282 0.660095 0.890740 0.236927
H46   H     H_    0.425150 0.757755 0.037901 0.215050
C69   C     C_3   0.353445 0.788972 0.966095 -0.896538
H47   H     H_    0.352865 0.881899 0.019032 0.247503
H48   H     H_    0.335524 0.719851 0.034972 0.280115
H49   H     H_    0.333081 0.789026 0.866844 0.265023
O16   O     O_3   0.644115 0.319271 0.343769 -0.610998
C70   C     C_3   0.659747 0.306915 0.202652 0.048842
H50   H     H_    0.649303 0.211105 0.164544 0.157144
H51   H     H_    0.699425 0.317962 0.188289 0.149986
C71   C     C_3   0.634862 0.396705 0.111162 -0.343782
H52   H     H_    0.595274 0.375336 0.114301 0.231458
H53   H     H_    0.642773 0.492630 0.152808 0.237830
C72   C     C_3   0.652460 0.387853 0.959789 -0.862904
H54   H     H_    0.691353 0.417419 0.953646 0.291053
H55   H     H_    0.631933 0.449298 0.894987 0.270008
H56   H     H_    0.647122 0.291601 0.916510 0.238491

loop_
_geom_bond_atom_site_label_1
_geom_bond_atom_site_label_2
_geom_bond_distance
_ccdc_geom_bond_type
C28   C32   1.400146 A    
C52   H20   1.082799 S    
C55   C56   1.432505 A    
C43   C65   1.517999 S    
C61   H29   1.110630 S    
C26   N2    1.368446 A    
C67   H44   1.117135 S    
C7    C8    1.398166 A    
C12   C15   1.408006 A    
C1    C47   1.456664 S    
C60   H27   1.111550 S    
H23   C58   1.081611 S    
C66   H38   1.110205 S    
C45   C46   1.406594 A    
Cu1   O7    1.946768 S    
C59   H24   1.115166 S    
C25   C39   1.396350 A    
Cu1   N4    2.022665 S    
C21   C22   1.389746 A    
C72   H55   1.109867 S    
C70   H51   1.109941 S    
H18   C57   1.081716 S    
C23   C24   1.408737 A    
O7    C4    1.298430 A    
C31   O14   1.386337 S    
C66   H39   1.110620 S    
C45   C50   1.435471 A    
C5    O9    1.350004 S    
C19   C38   1.415550 A    
C18   C21   1.415937 A    
N1    C6    1.369348 A    
C19   C20   1.421265 A    
C17   C29   1.410142 A    
C65   H41   1.109271 S    
O5    C3    1.287196 A    
C64   H35   1.111048 S    
C62   H31   1.110894 S    
C72   H54   1.110838 S    
C39   H12   1.083727 S    
C6    O11   1.350019 S    
C2    C16   1.464536 S    
O14   C62   1.416526 S    
C63   H34   1.110657 S    
C57   C58   1.417374 A    
C68   C69   1.524853 S    
C61   H28   1.111138 S    
C53   C54   1.387577 A    
C55   N4    1.378827 A    
C41   C46   1.407143 A    
C12   C34   1.421778 A    
C14   H3    1.083697 S    
C59   H25   1.114863 S    
C9    C10   1.393971 A    
C42   C43   1.397730 A    
Cu2   N3    2.023979 S    
C71   C72   1.527333 S    
C62   H32   1.113489 S    
C60   H26   1.111979 S    
H17   C49   1.083594 S    
C51   C52   1.388538 A    
C42   H16   1.080029 S    
O16   C70   1.419866 S    
C37   H9    1.083714 S    
C33   C36   1.415640 A    
C44   O15   1.381437 S    
C38   H10   1.076928 S    
H14   C48   1.082964 S    
C34   C35   1.420750 A    
Cu1   Cu2   2.692389 S    
C72   H56   1.109677 S    
C12   C13   1.407671 A    
C71   H53   1.109434 S    
C70   C71   1.529484 S    
C54   H22   1.061988 S    
C41   C42   1.381576 A    
C36   H7    1.076965 S    
C46   C47   1.409529 A    
C27   O10   1.349762 S    
C66   H40   1.109588 S    
N2    C32   1.435806 S    
C8    C16   1.401501 A    
O3    Cu1   1.949764 S    
C18   C33   1.421638 A    
C51   H19   1.061364 S    
C9    H1    1.083578 S    
C29   O16   1.392099 S    
C30   H11   1.082392 S    
O1    C1    1.295445 A    
C64   H37   1.110852 S    
C69   H49   1.108711 S    
C20   C24   1.421744 A    
C43   C44   1.419997 A    
C22   C23   1.396613 A    
C21   H6    1.077059 S    
C28   H4    1.081964 S    
C54   C55   1.414201 A    
C51   C56   1.416388 A    
C31   C32   1.403611 A    
Cu2   O8    1.949759 S    
C63   C64   1.526139 S    
C38   C39   1.388601 A    
C33   C34   1.421184 A    
N1    C11   1.438875 S    
C44   C45   1.433882 A    
O3    C2    1.299735 A    
C25   C26   1.402911 A    
C9    C16   1.401658 A    
O8    C4    1.298561 A    
C58   N4    1.366739 A    
C59   C60   1.527889 S    
C52   C53   1.378814 A    
C68   H45   1.111324 S    
C61   H30   1.111109 S    
C67   C68   1.528283 S    
C8    H8    1.081915 S    
N2    C27   1.368038 A    
C14   C36   1.389406 A    
C24   C25   1.407920 A    
C28   C29   1.407664 A    
C7    C11   1.410245 A    
C69   H48   1.110398 S    
O15   C67   1.411292 S    
C5    N1    1.369640 A    
C30   C31   1.400562 A    
C10   H2    1.083014 S    
O1    Cu1   1.957023 S    
C17   C30   1.401132 A    
O2    Cu2   1.972679 S    
C6    C15   1.403965 A    
C4    C17   1.463092 S    
C69   H47   1.110766 S    
O6    C3    1.313900 A    
O4    Cu2   1.946770 S    
C7    O13   1.381413 S    
C65   C66   1.533309 S    
C3    C50   1.470570 S    
C19   C35   1.421017 A    
C71   H52   1.111087 S    
O2    C1    1.297376 A    
C13   C14   1.396749 A    
C23   C27   1.404862 A    
C15   C37   1.396490 A    
C70   H50   1.110322 S    
C37   C40   1.388960 A    
O4    C2    1.298585 A    
C40   H13   1.076945 S    
O13   C59   1.412009 S    
C18   C20   1.420837 A    
C48   C49   1.383160 A    
C67   H43   1.112788 S    
C60   C61   1.526592 S    
C65   H42   1.107377 S    
C56   N3    1.382387 A    
C64   H36   1.110288 S    
C5    C13   1.404119 A    
C47   C48   1.393777 A    
C22   H5    1.083687 S    
Cu1   O5    1.972679 S    
C41   H15   1.083006 S    
Cu2   O6    1.957023 S    
C49   C50   1.402759 A    
N3    C57   1.366305 A    
C68   H46   1.112172 S    
C10   C11   1.403075 A    
C26   O12   1.350100 S    
C53   H21   1.082872 S    
C62   C63   1.533858 S    
C35   C40   1.415673 A    
C63   H33   1.111700 S    
