data_mof_unit_32682.cif
_audit_creation_date              2013-03-05T15:41:32-0500
_audit_creation_method            fapswitch 2.2
_symmetry_space_group_name_H-M    P1
_symmetry_Int_Tables_number       1
_space_group_crystal_system       triclinic
_cell_length_a                    15.850135
_cell_length_b                    8.687882
_cell_length_c                    7.452634
_cell_angle_alpha                 103.046058
_cell_angle_beta                  94.0918
_cell_angle_gamma                 92.147905
_cell_volume                      995.703523016

loop_
_atom_site_label
_atom_site_type_symbol
_atom_site_description
_atom_site_fract_x
_atom_site_fract_y
_atom_site_fract_z
_atom_type_partial_charge
O1    O     O_R   0.506070 0.286130 0.619780 -0.585102
O2    O     O_R   0.493930 0.713870 0.380220 -0.585103
O3    O     O_R   0.490300 0.256770 0.308360 -0.583699
O4    O     O_R   0.509700 0.743230 0.691640 -0.583701
C1    C     C_R   0.497486 0.199722 0.453245 0.885223
C2    C     C_R   0.502514 0.800278 0.546755 0.885220
O5    O     O_R   0.386960 0.514660 0.655680 -0.584680
O6    O     O_R   0.613040 0.485340 0.344320 -0.584681
O7    O     O_R   0.371190 0.485310 0.344260 -0.565096
O8    O     O_R   0.628810 0.514690 0.655740 -0.565089
C3    C     C_R   0.340026 0.499914 0.502485 0.820393
C4    C     C_R   0.659973 0.500089 0.497517 0.820391
Cu1   Cu    Cu3+1 0.509330 0.517380 0.684380 0.984982
Cu2   Cu    Cu3+1 0.490670 0.482620 0.315620 0.984978
C5    C     C_2   0.496262 0.031795 0.426992 -0.341839
C6    C     C_2   0.503738 0.968204 0.573008 -0.341836
C7    C     C_3   0.972274 0.382740 0.568112 0.402128
C8    C     C_3   0.027731 0.617307 0.431954 0.402117
C9    C     C_3   0.023434 0.361401 0.397151 -0.222541
C10   C     C_3   0.976567 0.638641 0.602918 -0.222521
H1    H     H_    0.042959 0.246773 0.315583 0.213939
H2    H     H_    0.957044 0.753270 0.684483 0.213933
H3    H     H_    0.939721 0.467156 0.178537 0.196267
H4    H     H_    0.060285 0.532889 0.821531 0.196244
C11   C     C_1   0.250667 0.500681 0.507517 -0.114792
C12   C     C_1   0.749332 0.499336 0.492496 -0.114791
C13   C     C_3   0.033096 0.519529 0.677000 -0.259349
C14   C     C_3   0.966907 0.480512 0.323069 -0.259389
C15   C     C_3   0.083536 0.501150 0.504304 0.007311
C16   C     C_3   0.916467 0.498891 0.495764 0.007331
N1    N     N_2   0.476600 0.456420 0.038510 -0.211118
N2    N     N_2   0.523400 0.543580 0.961490 -0.211117
H5    H     H_    0.489189 0.960078 0.286262 0.181455
H6    H     H_    0.510811 0.039922 0.713738 0.181455
C17   C     C_1   0.175191 0.501103 0.507736 0.078938
C18   C     C_1   0.824813 0.498927 0.492303 0.078954
H7    H     H_    0.434470 0.377549 0.948705 0.231269
H8    H     H_    0.565530 0.622451 0.051295 0.231269
N3    N     N_R   0.943034 0.251464 0.644131 0.139344
O9    O     O_R   0.997720 0.160914 0.699689 -0.320902
O10   O     O_R   0.862756 0.223936 0.656895 -0.352108
N4    N     N_R   0.056969 0.748552 0.355961 0.139235
O11   O     O_R   0.002264 0.839037 0.300137 -0.320880
O12   O     O_R   0.137261 0.776250 0.343400 -0.352044

loop_
_geom_bond_atom_site_label_1
_geom_bond_atom_site_label_2
_geom_bond_distance
_ccdc_geom_bond_type
O7    Cu2   1.921257 S    
C7    C16   1.528381 S    
C10   C13   1.560561 S    
N2    H8    1.028719 S    
C13   C15   1.544267 S    
C15   C17   1.451160 S    
Cu1   N2    2.021097 S    
N1    N2    1.291520 D    
H4    C13   1.110388 S    
C16   C18   1.451127 S    
Cu2   N1    2.021096 S    
O6    C4    1.295733 A    
C6    H6    1.088002 S    
C14   C16   1.544274 S    
N3    O10   1.300020 A    
C8    C15   1.528404 S    
C10   C16   1.544767 S    
Cu1   Cu2   2.689624 S    
O5    C3    1.295729 A    
C9    C14   1.560532 S    
O7    C3    1.292613 A    
O2    C2    1.292308 A    
O3    Cu2   1.950432 S    
N4    O12   1.300199 A    
C11   C17   1.196566 T    
O1    C1    1.292307 A    
O8    C4    1.292605 A    
C12   C18   1.196624 T    
C9    H1    1.110726 S    
C10   H2    1.110718 S    
C8    C10   1.538668 S    
C8    N4    1.457757 S    
O2    Cu2   1.955203 S    
C1    C5    1.426741 S    
O1    Cu1   1.955203 S    
N4    O11   1.300064 A    
C3    C11   1.419756 S    
N3    O9    1.299450 A    
C2    C6    1.426741 S    
C5    C6    1.327169 D    
C7    C13   1.538609 S    
O5    Cu1   1.934778 S    
C8    C14   1.538639 S    
O4    C2    1.285622 A    
C7    N3    1.458106 S    
O4    Cu1   1.950433 S    
O6    Cu2   1.934778 S    
C7    C9    1.538615 S    
H3    C14   1.110395 S    
C5    H5    1.088001 S    
N1    H7    1.028718 S    
C4    C12   1.419724 S    
O3    C1    1.285623 A    
O8    Cu1   1.921257 S    
C9    C15   1.544760 S    
