data_mof_unit_64725.cif
_audit_creation_date              2013-03-05T16:32:49-0500
_audit_creation_method            fapswitch 2.2
_symmetry_space_group_name_H-M    P1
_symmetry_Int_Tables_number       1
_space_group_crystal_system       triclinic
_cell_length_a                    15.900666
_cell_length_b                    15.900515
_cell_length_c                    43.095721
_cell_angle_alpha                 89.999978
_cell_angle_beta                  89.999978
_cell_angle_gamma                 89.99949
_cell_volume                      10895.8384875

loop_
_atom_site_label
_atom_site_type_symbol
_atom_site_description
_atom_site_fract_x
_atom_site_fract_y
_atom_site_fract_z
_atom_type_partial_charge
Zn1   Zn    Zn3+2 0.401050 0.000000 0.224090 0.974957
Zn2   Zn    Zn3+2 0.598950 0.000000 0.775910 0.974952
Zn3   Zn    Zn3+2 0.000000 0.401050 0.224090 0.974889
Zn4   Zn    Zn3+2 1.000000 0.598950 0.775910 0.974880
Zn5   Zn    Zn3+2 0.598950 0.000000 0.224090 0.974957
Zn6   Zn    Zn3+2 0.401050 0.000000 0.775910 0.974952
Zn7   Zn    Zn3+2 1.000000 0.598950 0.224090 0.974888
Zn8   Zn    Zn3+2 1.000000 0.401050 0.775910 0.974880
Zn9   Zn    Zn3+2 0.901050 0.500000 0.724090 0.970815
Zn10  Zn    Zn3+2 0.098950 0.500000 0.275910 0.970816
Zn11  Zn    Zn3+2 0.500000 0.901050 0.724090 0.970808
Zn12  Zn    Zn3+2 0.500000 0.098950 0.275910 0.970810
Zn13  Zn    Zn3+2 0.098950 0.500000 0.724090 0.970815
Zn14  Zn    Zn3+2 0.901050 0.500000 0.275910 0.970816
Zn15  Zn    Zn3+2 0.500000 0.098950 0.724090 0.970808
Zn16  Zn    Zn3+2 0.500000 0.901050 0.275910 0.970811
C1    C     C_R   0.500000 1.000000 0.131437 -0.023394
C2    C     C_R   0.500000 0.000000 0.868563 -0.023398
C3    C     C_R   0.000000 0.500000 0.131433 -0.023727
C4    C     C_R   1.000000 0.500000 0.868568 -0.023751
C5    C     C_R   1.000000 0.500000 0.631085 -0.040204
C6    C     C_R   1.000000 0.500000 0.368915 -0.040203
C7    C     C_R   0.500000 0.000000 0.631085 -0.040203
C8    C     C_R   0.500000 1.000000 0.368915 -0.040203
N1    N     N_R   0.546580 0.056733 0.015441 -0.176312
N2    N     N_R   0.453420 0.943267 0.984559 -0.176313
N3    N     N_R   0.944348 0.547870 0.015440 -0.176287
N4    N     N_R   0.055652 0.452129 0.984561 -0.176288
N5    N     N_R   0.453420 0.943267 0.015441 -0.176312
N6    N     N_R   0.546580 0.056733 0.984559 -0.176313
N7    N     N_R   0.055652 0.452130 0.015440 -0.176287
N8    N     N_R   0.944348 0.547870 0.984561 -0.176288
N9    N     N_R   0.073524 0.499763 0.515439 -0.172065
N10   N     N_R   0.926476 0.499765 0.484561 -0.172065
N11   N     N_R   0.500237 0.073524 0.515439 -0.172065
N12   N     N_R   0.500235 0.926476 0.484561 -0.172065
N13   N     N_R   0.926476 0.500237 0.515439 -0.172065
N14   N     N_R   0.073523 0.500235 0.484561 -0.172065
N15   N     N_R   0.499762 0.926476 0.515439 -0.172066
N16   N     N_R   0.499765 0.073524 0.484561 -0.172065
O1    O     O_3   0.500000 0.000000 0.250000 -0.484027
O2    O     O_3   0.500000 0.000000 0.750000 -0.484025
O3    O     O_3   0.000000 0.500000 0.250000 -0.484004
O4    O     O_3   1.000000 0.500000 0.750000 -0.484001
O5    O     O_R   0.500000 0.930740 0.319380 -0.639685
O6    O     O_R   0.500000 0.069260 0.680620 -0.639687
O7    O     O_R   0.069260 0.500000 0.319380 -0.639684
O8    O     O_R   0.930740 0.500000 0.680620 -0.639684
O9    O     O_R   0.500000 0.069260 0.319380 -0.639685
O10   O     O_R   0.500000 0.930740 0.680620 -0.639687
O11   O     O_R   0.930740 0.500000 0.319380 -0.639684
O12   O     O_R   0.069260 0.500000 0.680620 -0.639685
O13   O     O_R   1.000000 0.430740 0.819380 -0.638609
O14   O     O_R   0.000000 0.569260 0.180620 -0.638606
O15   O     O_R   0.569260 1.000000 0.819380 -0.638587
O16   O     O_R   0.430740 0.000000 0.180620 -0.638585
O17   O     O_R   1.000000 0.569260 0.819380 -0.638609
O18   O     O_R   0.000000 0.430740 0.180620 -0.638606
O19   O     O_R   0.430740 1.000000 0.819380 -0.638587
O20   O     O_R   0.569260 0.000000 0.180620 -0.638586
O21   O     O_R   0.402540 0.166630 0.268230 -0.637629
O22   O     O_R   0.597460 0.833370 0.731770 -0.635973
O23   O     O_R   0.833370 0.402540 0.268230 -0.637626
O24   O     O_R   0.166630 0.597460 0.731770 -0.635969
O25   O     O_R   0.597460 0.833370 0.268230 -0.637629
O26   O     O_R   0.402540 0.166630 0.731770 -0.635973
O27   O     O_R   0.166630 0.597460 0.268230 -0.637626
O28   O     O_R   0.833370 0.402540 0.731770 -0.635969
O29   O     O_R   0.402540 0.833370 0.731770 -0.637295
O30   O     O_R   0.597460 0.166630 0.268230 -0.635638
O31   O     O_R   0.833370 0.597460 0.731770 -0.637291
O32   O     O_R   0.166630 0.402540 0.268230 -0.635634
O33   O     O_R   0.597460 0.166630 0.731770 -0.637295
O34   O     O_R   0.402540 0.833370 0.268230 -0.635638
O35   O     O_R   0.166630 0.402540 0.731770 -0.637291
O36   O     O_R   0.833370 0.597460 0.268230 -0.635634
O37   O     O_R   0.902540 0.666630 0.768230 -0.636354
O38   O     O_R   0.097460 0.333370 0.231770 -0.636710
O39   O     O_R   0.333370 0.902540 0.768230 -0.636348
O40   O     O_R   0.666630 0.097460 0.231770 -0.636705
O41   O     O_R   0.097460 0.333370 0.768230 -0.636354
O42   O     O_R   0.902540 0.666630 0.231770 -0.636710
O43   O     O_R   0.666630 0.097460 0.768230 -0.636348
O44   O     O_R   0.333370 0.902540 0.231770 -0.636705
O45   O     O_R   0.902540 0.333370 0.231770 -0.634268
O46   O     O_R   0.097460 0.666630 0.768230 -0.634628
O47   O     O_R   0.333370 0.097460 0.231770 -0.634259
O48   O     O_R   0.666630 0.902540 0.768230 -0.634618
O49   O     O_R   0.097460 0.666630 0.231770 -0.634268
O50   O     O_R   0.902540 0.333370 0.768230 -0.634628
O51   O     O_R   0.666630 0.902540 0.231770 -0.634259
O52   O     O_R   0.333370 0.097460 0.768230 -0.634618
C9    C     C_R   0.500000 1.000000 0.334427 0.807301
C10   C     C_R   0.500000 0.000000 0.665573 0.807298
C11   C     C_R   1.000000 0.500000 0.334427 0.807295
C12   C     C_R   1.000000 0.500000 0.665573 0.807294
C13   C     C_R   1.000000 0.500000 0.834296 0.812259
C14   C     C_R   0.000000 0.500000 0.165704 0.812274
C15   C     C_R   0.500000 0.000000 0.834294 0.812374
C16   C     C_R   0.500000 0.000000 0.165706 0.812381
C17   C     C_R   0.339903 0.160089 0.250003 0.839954
C18   C     C_R   0.660092 0.839905 0.750001 0.841117
C19   C     C_R   0.839911 0.339903 0.250003 0.839970
C20   C     C_R   0.160096 0.660092 0.750001 0.841133
C21   C     C_R   0.660097 0.839911 0.250003 0.839955
C22   C     C_R   0.339908 0.160095 0.750001 0.841118
C23   C     C_R   0.160089 0.660097 0.250003 0.839969
C24   C     C_R   0.839904 0.339908 0.750001 0.841133
C25   C     C_R   0.339911 0.839905 0.750001 0.839597
C26   C     C_R   0.660084 0.160102 0.249995 0.840759
C27   C     C_R   0.839905 0.660089 0.750001 0.839588
C28   C     C_R   0.160101 0.339916 0.249995 0.840751
C29   C     C_R   0.660089 0.160095 0.750001 0.839597
C30   C     C_R   0.339916 0.839898 0.249995 0.840759
C31   C     C_R   0.160095 0.339911 0.750001 0.839588
C32   C     C_R   0.839899 0.660084 0.249995 0.840751
C33   C     C_1   0.276653 0.776641 0.249996 -0.152386
C34   C     C_1   0.723347 0.223356 0.750002 -0.152692
C35   C     C_1   0.223359 0.276653 0.249996 -0.152392
C36   C     C_1   0.776645 0.723347 0.750002 -0.152698
C37   C     C_1   0.723347 0.223359 0.249996 -0.152386
C38   C     C_1   0.276653 0.776644 0.750002 -0.152692
C39   C     C_1   0.776641 0.723347 0.249996 -0.152392
C40   C     C_1   0.223355 0.276653 0.750002 -0.152698
C41   C     C_1   0.276649 0.223359 0.750001 -0.152036
C42   C     C_1   0.723351 0.776645 0.250000 -0.152338
C43   C     C_1   0.223359 0.723351 0.750002 -0.152041
C44   C     C_1   0.776645 0.276649 0.250000 -0.152343
C45   C     C_1   0.723351 0.776641 0.750001 -0.152036
C46   C     C_1   0.276649 0.223355 0.250000 -0.152338
C47   C     C_1   0.776641 0.276648 0.750002 -0.152041
C48   C     C_1   0.223355 0.723351 0.250000 -0.152343
C49   C     C_R   0.451164 0.940442 0.114882 0.140230
C50   C     C_R   0.548837 0.059557 0.885118 0.140216
C51   C     C_R   0.059221 0.450749 0.114875 0.140115
C52   C     C_R   0.940798 0.549273 0.885125 0.140097
C53   C     C_R   0.548836 0.059558 0.114882 0.140230
C54   C     C_R   0.451163 0.940443 0.885118 0.140216
C55   C     C_R   0.940779 0.549251 0.114875 0.140115
C56   C     C_R   0.059202 0.450727 0.885125 0.140096
C57   C     C_R   0.935751 0.542773 0.614321 0.138125
C58   C     C_R   0.064249 0.542771 0.385679 0.138131
C59   C     C_R   0.457227 0.935751 0.614321 0.138125
C60   C     C_R   0.457229 0.064251 0.385679 0.138128
C61   C     C_R   0.064249 0.457227 0.614321 0.138125
C62   C     C_R   0.935750 0.457229 0.385679 0.138131
C63   C     C_R   0.542773 0.064249 0.614321 0.138125
C64   C     C_R   0.542771 0.935749 0.385679 0.138128
C65   C     C_R   0.451863 0.941159 0.082362 -0.158484
C66   C     C_R   0.548138 0.058840 0.917637 -0.158486
C67   C     C_R   0.058488 0.451439 0.082357 -0.158551
C68   C     C_R   0.941530 0.548583 0.917643 -0.158555
C69   C     C_R   0.548137 0.058841 0.082362 -0.158483
C70   C     C_R   0.451862 0.941160 0.917637 -0.158485
C71   C     C_R   0.941512 0.548561 0.082357 -0.158551
C72   C     C_R   0.058470 0.451417 0.917643 -0.158555
C73   C     C_R   0.936179 0.541105 0.581817 -0.162105
C74   C     C_R   0.063821 0.541103 0.418183 -0.162108
C75   C     C_R   0.458896 0.936179 0.581817 -0.162107
C76   C     C_R   0.458898 0.063823 0.418183 -0.162104
C77   C     C_R   0.063821 0.458895 0.581817 -0.162104
C78   C     C_R   0.936179 0.458897 0.418183 -0.162108
C79   C     C_R   0.541104 0.063821 0.581817 -0.162108
C80   C     C_R   0.541102 0.936177 0.418183 -0.162104
C81   C     C_R   0.500000 1.000000 0.065890 -0.014666
C82   C     C_R   0.500000 0.000000 0.934110 -0.014663
C83   C     C_R   0.000000 0.500000 0.065887 -0.014581
C84   C     C_R   1.000000 0.500000 0.934114 -0.014574
C85   C     C_R   0.000000 0.500000 0.565539 -0.006868
C86   C     C_R   1.000000 0.500000 0.434461 -0.006868
C87   C     C_R   0.500000 1.000000 0.565539 -0.006867
C88   C     C_R   0.500000 1.000000 0.434461 -0.006870
C89   C     C_R   1.000000 0.500000 0.468566 0.304069
C90   C     C_R   0.000000 0.500000 0.531434 0.304067
C91   C     C_R   0.500000 1.000000 0.468566 0.304068
C92   C     C_R   0.500000 0.000000 0.531434 0.304068
C93   C     C_R   0.500000 0.000000 0.968460 0.316225
C94   C     C_R   0.500000 1.000000 0.031540 0.316227
C95   C     C_R   1.000000 0.500000 0.968460 0.316144
C96   C     C_R   1.000000 0.500000 0.031540 0.316147
C97   C     C_3   0.399850 0.874250 0.131368 -0.871865
H1    H     H_    0.371633 0.828618 0.114858 0.234237
H2    H     H_    0.440421 0.838467 0.147666 0.226565
H3    H     H_    0.347660 0.904294 0.144375 0.266704
C98   C     C_3   0.600152 0.125748 0.868632 -0.871839
H4    H     H_    0.628369 0.171380 0.885142 0.234232
H5    H     H_    0.652341 0.095703 0.855625 0.266707
H6    H     H_    0.559581 0.161532 0.852334 0.226570
C99   C     C_3   0.125094 0.398997 0.131350 -0.871091
H7    H     H_    0.094734 0.346941 0.144331 0.266785
H8    H     H_    0.170578 0.370556 0.114837 0.234054
H9    H     H_    0.161108 0.439307 0.147668 0.226590
C100  C     C_3   0.874943 0.601051 0.868651 -0.871016
H10   H     H_    0.838915 0.560756 0.852332 0.226596
H11   H     H_    0.829468 0.629505 0.885165 0.234036
H12   H     H_    0.905321 0.653099 0.855672 0.266791
C101  C     C_3   0.600150 0.125749 0.131368 -0.871865
H13   H     H_    0.559579 0.161533 0.147666 0.226565
H14   H     H_    0.652340 0.095705 0.144375 0.266703
H15   H     H_    0.628367 0.171382 0.114858 0.234237
C102  C     C_3   0.399848 0.874252 0.868632 -0.871841
H16   H     H_    0.440418 0.838468 0.852334 0.226570
H17   H     H_    0.371631 0.828620 0.885142 0.234232
H18   H     H_    0.347658 0.904297 0.855625 0.266708
C103  C     C_3   0.874906 0.601003 0.131350 -0.871090
H19   H     H_    0.838892 0.560693 0.147668 0.226590
H20   H     H_    0.905266 0.653059 0.144331 0.266785
H21   H     H_    0.829422 0.629444 0.114837 0.234054
C104  C     C_3   0.125057 0.398948 0.868651 -0.871015
H22   H     H_    0.161085 0.439243 0.852332 0.226596
H23   H     H_    0.170532 0.370495 0.885165 0.234036
H24   H     H_    0.094678 0.346901 0.855672 0.266790
C105  C     C_3   0.867512 0.592773 0.630254 -0.845160
H25   H     H_    0.829427 0.629629 0.613456 0.226860
H26   H     H_    0.823944 0.549792 0.642624 0.266433
H27   H     H_    0.895835 0.638049 0.646861 0.232856
C106  C     C_3   0.132488 0.592769 0.369746 -0.845153
H28   H     H_    0.170574 0.629623 0.386545 0.226860
H29   H     H_    0.176057 0.549786 0.357376 0.266429
H30   H     H_    0.104167 0.638046 0.353139 0.232847
C107  C     C_3   0.407228 0.867514 0.630254 -0.845147
H31   H     H_    0.450210 0.823943 0.642624 0.266428
H32   H     H_    0.361951 0.895836 0.646861 0.232852
H33   H     H_    0.370373 0.829428 0.613456 0.226859
C108  C     C_3   0.407232 0.132492 0.369746 -0.845169
H34   H     H_    0.450215 0.176059 0.357376 0.266435
H35   H     H_    0.361955 0.104171 0.353140 0.232850
H36   H     H_    0.370378 0.170578 0.386545 0.226862
C109  C     C_3   0.132488 0.407227 0.630254 -0.845161
H37   H     H_    0.104165 0.361951 0.646861 0.232856
H38   H     H_    0.170573 0.370371 0.613456 0.226860
H39   H     H_    0.176056 0.450208 0.642624 0.266433
C110  C     C_3   0.867511 0.407231 0.369746 -0.845153
H40   H     H_    0.895833 0.361953 0.353139 0.232847
H41   H     H_    0.829425 0.370378 0.386545 0.226861
H42   H     H_    0.823942 0.450215 0.357376 0.266428
C111  C     C_3   0.592772 0.132487 0.630254 -0.845149
H43   H     H_    0.638049 0.104164 0.646861 0.232853
H44   H     H_    0.629626 0.170572 0.613456 0.226859
H45   H     H_    0.549790 0.176057 0.642624 0.266429
C112  C     C_3   0.592768 0.867508 0.369746 -0.845170
H46   H     H_    0.638045 0.895829 0.353140 0.232850
H47   H     H_    0.629621 0.829422 0.386545 0.226863
H48   H     H_    0.549785 0.823941 0.357376 0.266435
H49   H     H_    0.414599 0.895302 0.069853 0.161637
H50   H     H_    0.585403 0.104696 0.930147 0.161637
H51   H     H_    0.104095 0.413864 0.069845 0.161632
H52   H     H_    0.895938 0.586176 0.930156 0.161631
H53   H     H_    0.585401 0.104698 0.069853 0.161637
H54   H     H_    0.414597 0.895304 0.930147 0.161637
H55   H     H_    0.895905 0.586135 0.069845 0.161632
H56   H     H_    0.104062 0.413824 0.930156 0.161631
H57   H     H_    0.887277 0.573574 0.569025 0.157565
H58   H     H_    0.112723 0.573569 0.430975 0.157566
H59   H     H_    0.426427 0.887278 0.569025 0.157566
H60   H     H_    0.426431 0.112726 0.430975 0.157565
H61   H     H_    0.112723 0.426426 0.569025 0.157565
H62   H     H_    0.887277 0.426430 0.430975 0.157566
H63   H     H_    0.573572 0.112722 0.569025 0.157566
H64   H     H_    0.573569 0.887274 0.430975 0.157565

loop_
_geom_bond_atom_site_label_1
_geom_bond_atom_site_label_2
_geom_bond_distance
_ccdc_geom_bond_type
Zn1   O47   1.915487 S    
O32   C28   1.272740 A    
C32   C39   1.422514 S    
C101  H15   1.110845 S    
N10   N13   1.330688 A    
O19   C15   1.275116 A    
C102  H16   1.110500 S    
O51   C21   1.272748 A    
O18   C14   1.275153 A    
C18   C45   1.422542 S    
C75   H59   1.084008 S    
Zn11  O22   1.915493 S    
O46   C20   1.272743 A    
C104  H24   1.109545 S    
Zn12  O9    1.931942 S    
Zn6   O39   1.915504 S    
O38   C28   1.272715 A    
O41   C31   1.272723 A    
C103  H19   1.110525 S    
C23   C48   1.422531 S    
Zn1   O44   1.915504 S    
Zn1   O1    1.929330 S    
C62   C78   1.401042 A    
C22   C41   1.422542 S    
Zn3   O3    1.929318 S    
C107  H31   1.109615 S    
C75   C87   1.396100 A    
C21   C42   1.422515 S    
Zn16  O34   1.915510 S    
N11   C92   1.357186 A    
C29   C34   1.422505 S    
Zn1   O16   1.931943 S    
C58   C74   1.401042 A    
C107  H33   1.110960 S    
Zn2   O15   1.931943 S    
C26   C37   1.422530 S    
C67   H51   1.083316 S    
C54   C102  1.509374 S    
Zn6   O52   1.915487 S    
C25   C38   1.422505 S    
N2    C93   1.357839 A    
Zn4   O46   1.915508 S    
C72   C84   1.401752 A    
C3    C51   1.417426 A    
Zn7   O49   1.915508 S    
C79   H63   1.084007 S    
C35   C46   1.198413 T    
O33   C29   1.272716 A    
Zn11  O2    1.929318 S    
C99   H8    1.110866 S    
C112  H46   1.110525 S    
C6    C11   1.486272 S    
C38   C43   1.198407 T    
O37   C27   1.272723 A    
C33   C48   1.198408 T    
O43   C29   1.272720 A    
C51   C99   1.509420 S    
C24   C47   1.422557 S    
Zn12  O30   1.915508 S    
C34   C47   1.198407 T    
O30   C26   1.272743 A    
C73   C85   1.396110 A    
N13   C90   1.357188 A    
O47   C17   1.272748 A    
O29   C25   1.272716 A    
C4    C13   1.476946 S    
C6    C62   1.424131 A    
C71   C83   1.401755 A    
C100  H11   1.110871 S    
O31   C27   1.272712 A    
Zn4   O17   1.931942 S    
O44   C30   1.272713 A    
C85   C90   1.469767 S    
Zn5   O1    1.929330 S    
N8    C95   1.357882 A    
Zn2   O48   1.915488 S    
Zn15  O6    1.931942 S    
Zn7   O3    1.929317 S    
C60   C76   1.401038 A    
Zn9   O31   1.915487 S    
C55   C103  1.509420 S    
C110  H40   1.110534 S    
C67   C83   1.401755 A    
O45   C19   1.272752 A    
C88   C91   1.469767 S    
Zn14  O3    1.929327 S    
C77   C85   1.396111 A    
C17   C46   1.422515 S    
C54   C70   1.401563 A    
C105  H26   1.109581 S    
C83   C96   1.480200 S    
N3    N8    1.330766 A    
C62   C110  1.510236 S    
O5    C9    1.278010 A    
C1    C16   1.476852 S    
C111  H43   1.110532 S    
C81   C94   1.480342 S    
C102  H17   1.110842 S    
C50   C98   1.509372 S    
C7    C59   1.424130 A    
Zn2   O43   1.915502 S    
C99   H7    1.109538 S    
O26   C22   1.272734 A    
Zn14  O36   1.915487 S    
O25   C21   1.272708 A    
C68   C84   1.401752 A    
C3    C14   1.476942 S    
C56   C104  1.509420 S    
C108  H34   1.109580 S    
C63   C111  1.510239 S    
C108  H35   1.110525 S    
O39   C25   1.272721 A    
C53   C69   1.401568 A    
C36   C45   1.198413 T    
C64   C80   1.401038 A    
C105  H25   1.110962 S    
Zn13  O35   1.915488 S    
C65   C81   1.401833 A    
N3    C96   1.357882 A    
C37   C44   1.198407 T    
O23   C19   1.272706 A    
C8    C64   1.424131 A    
C97   H2    1.110502 S    
C57   C105  1.510247 S    
C71   H55   1.083316 S    
N1    C94   1.357839 A    
O10   C10   1.278011 A    
C98   H6    1.110502 S    
C101  H14   1.109545 S    
C70   H54   1.083228 S    
O13   C13   1.275157 A    
C106  H28   1.110962 S    
Zn10  O27   1.915502 S    
Zn15  O26   1.915494 S    
C69   H53   1.083231 S    
N12   N15   1.330692 A    
O20   C16   1.275116 A    
Zn8   O41   1.915493 S    
O14   C14   1.275152 A    
C27   C36   1.422488 S    
C112  H47   1.110959 S    
C5    C61   1.424135 A    
C97   H1    1.110845 S    
C99   H9    1.110525 S    
O21   C17   1.272708 A    
C74   H58   1.084009 S    
C58   C106  1.510238 S    
Zn12  O1    1.929316 S    
C19   C44   1.422532 S    
C73   H57   1.084020 S    
Zn2   O2    1.929328 S    
N16   C91   1.357188 A    
Zn13  O12   1.931943 S    
Zn14  O11   1.931943 S    
O6    C10   1.278010 A    
C55   C71   1.401495 A    
C76   H60   1.084019 S    
O8    C12   1.278017 A    
C100  H12   1.109542 S    
O17   C13   1.275157 A    
O49   C23   1.272752 A    
C72   H56   1.083325 S    
C104  H22   1.110532 S    
C76   C88   1.396109 A    
C77   H61   1.084020 S    
C49   C65   1.401563 A    
C82   C93   1.480342 S    
C4    C52   1.417439 A    
Zn5   O40   1.915502 S    
O34   C30   1.272744 A    
N9    C90   1.357186 A    
C110  H41   1.110959 S    
Zn5   O51   1.915488 S    
C56   C72   1.401491 A    
O52   C22   1.272739 A    
Zn15  O33   1.915508 S    
C53   C101  1.509371 S    
O50   C24   1.272744 A    
N5    C94   1.357839 A    
C111  H44   1.110961 S    
C1    C49   1.417316 A    
C64   C112  1.510246 S    
C102  H18   1.109541 S    
Zn3   O45   1.915510 S    
C80   C88   1.396108 A    
Zn10  O32   1.915488 S    
O35   C31   1.272712 A    
C2    C15   1.476852 S    
O16   C16   1.275117 A    
O15   C15   1.275117 A    
C108  H36   1.110961 S    
Zn9   O8    1.931943 S    
C106  H30   1.110534 S    
C79   C87   1.396100 A    
C103  H21   1.110867 S    
C57   C73   1.401038 A    
N1    N6    1.330852 A    
C66   H50   1.083227 S    
C61   C109  1.510247 S    
C104  H23   1.110871 S    
Zn9   O4    1.929330 S    
C65   H49   1.083230 S    
C31   C40   1.422488 S    
C97   H3    1.109543 S    
Zn5   O20   1.931943 S    
C69   C81   1.401831 A    
Zn10  O3    1.929328 S    
C50   C66   1.401563 A    
Zn6   O19   1.931943 S    
N4    N7    1.330766 A    
O24   C20   1.272733 A    
Zn8   O4    1.929315 S    
Zn15  O2    1.929317 S    
N15   C92   1.357186 A    
C39   C42   1.198413 T    
Zn8   O13   1.931942 S    
C59   C107  1.510236 S    
C28   C35   1.422514 S    
O48   C18   1.272740 A    
C6    C58   1.424130 A    
Zn11  O29   1.915510 S    
C59   C75   1.401042 A    
C105  H27   1.110526 S    
C49   C97   1.509372 S    
C5    C12   1.486268 S    
C106  H29   1.109613 S    
C84   C95   1.480196 S    
Zn4   O4    1.929316 S    
C87   C92   1.469771 S    
N7    C96   1.357881 A    
N9    N14   1.330688 A    
C109  H37   1.110525 S    
C7    C10   1.486268 S    
Zn13  O24   1.915502 S    
N4    C95   1.357882 A    
C61   C77   1.401038 A    
C112  H48   1.109581 S    
C4    C56   1.417440 A    
C80   H64   1.084019 S    
N11   N16   1.330688 A    
Zn9   O28   1.915504 S    
C5    C57   1.424134 A    
C78   C86   1.396102 A    
C109  H38   1.110961 S    
N10   C89   1.357186 A    
C63   C79   1.401038 A    
C8    C9    1.486272 S    
N14   C89   1.357188 A    
C74   C86   1.396100 A    
Zn12  O21   1.915494 S    
Zn3   O38   1.915493 S    
O27   C23   1.272705 A    
C98   H4    1.110841 S    
C20   C43   1.422557 S    
C7    C63   1.424131 A    
C8    C60   1.424131 A    
C51   C67   1.401495 A    
Zn14  O23   1.915504 S    
O36   C32   1.272739 A    
N6    C93   1.357839 A    
O12   C12   1.278016 A    
C2    C50   1.417315 A    
Zn13  O4    1.929330 S    
C2    C54   1.417314 A    
C101  H13   1.110502 S    
C60   C108  1.510244 S    
C110  H42   1.109616 S    
C68   H52   1.083325 S    
C30   C33   1.422529 S    
C98   H5    1.109544 S    
Zn16  O5    1.931942 S    
O42   C32   1.272714 A    
C109  H39   1.109581 S    
Zn3   O18   1.931942 S    
Zn4   O37   1.915494 S    
N12   C91   1.357186 A    
C52   C100  1.509420 S    
Zn7   O42   1.915494 S    
Zn8   O50   1.915510 S    
C78   H62   1.084009 S    
N2    N5    1.330852 A    
C107  H32   1.110535 S    
C100  H10   1.110532 S    
Zn6   O2    1.929327 S    
C111  H45   1.109612 S    
O40   C26   1.272712 A    
Zn10  O7    1.931943 S    
Zn11  O10   1.931942 S    
O7    C11   1.278020 A    
C70   C82   1.401835 A    
C1    C53   1.417315 A    
Zn16  O25   1.915493 S    
O28   C24   1.272733 A    
Zn7   O14   1.931942 S    
O9    C9    1.278011 A    
C52   C68   1.401491 A    
C103  H20   1.109538 S    
Zn16  O1    1.929315 S    
C3    C55   1.417426 A    
O11   C11   1.278019 A    
C40   C41   1.198413 T    
O22   C18   1.272735 A    
C86   C89   1.469771 S    
C66   C82   1.401834 A    
