data_mof_unit_51725.cif
_audit_creation_date              2012-12-11T15:23:35-0500
_audit_creation_method            fapswitch 2.2
_symmetry_space_group_name_H-M    P1
_symmetry_Int_Tables_number       1
_space_group_crystal_system       triclinic
_cell_length_a                    17.337501
_cell_length_b                    24.488091
_cell_length_c                    14.981027
_cell_angle_alpha                 89.38364
_cell_angle_beta                  125.734929
_cell_angle_gamma                 90.971818
_cell_volume                      5162.1501702

loop_
_atom_site_label
_atom_site_type_symbol
_atom_type_description
_atom_site_fract_x
_atom_site_fract_y
_atom_site_fract_z
_atom_type_partial_charge
C1    C     C_R   0.310180 0.375397 0.908770 -0.275467
C2    C     C_R   0.652033 0.349477 0.091228 -0.235568
C3    C     C_R   0.811652 0.873237 0.907871 -0.270272
C4    C     C_R   0.153421 0.849853 0.090486 -0.244907
C5    C     C_R   0.313060 0.638293 0.995291 0.087197
C6    C     C_R   0.619128 0.683020 0.000505 0.097426
C7    C     C_R   0.817835 0.144053 0.994238 0.098381
C8    C     C_R   0.122437 0.182193 0.999459 0.092048
C9    C     C_R   0.566824 0.499968 0.367684 0.091723
C10   C     C_R   0.550820 0.500133 0.725372 0.125706
C11   C     C_R   0.967991 0.999085 0.295245 0.121274
C12   C     C_R   0.932118 0.999176 0.632694 0.102137
C13   C     C_R   0.190837 0.499280 0.640300 0.145739
C14   C     C_R   0.823251 0.500031 0.268747 0.127347
C15   C     C_R   0.691504 0.999376 0.639672 0.140838
C16   C     C_R   0.323333 0.000023 0.268924 0.130750
C17   C     C_2   0.977301 0.456784 0.359450 -0.104013
C18   C     C_2   0.075518 0.459588 0.458443 -0.107914
C19   C     C_2   0.477516 0.956841 0.359250 -0.106544
C20   C     C_2   0.576032 0.959656 0.457775 -0.099671
C21   C     C_2   0.924402 0.501738 0.316660 -0.186189
C22   C     C_2   0.104614 0.501135 0.529400 -0.188238
C23   C     C_2   0.424473 0.001764 0.316625 -0.190386
C24   C     C_2   0.605701 0.001390 0.528430 -0.172964
C25   C     C_R   0.217643 0.718004 0.907461 -0.197059
C26   C     C_R   0.708808 0.767176 0.099106 -0.177378
C27   C     C_R   0.727609 0.225126 0.912293 -0.197067
C28   C     C_R   0.208269 0.267674 0.097237 -0.192655
C29   C     C_R   0.683114 0.268885 0.916790 -0.191358
C30   C     C_R   0.250029 0.316151 0.096622 -0.167358
C31   C     C_R   0.175857 0.763386 0.911463 -0.197425
C32   C     C_R   0.754782 0.813455 0.097809 -0.146045
C33   C     C_R   0.664767 0.270621 0.995822 0.087878
C34   C     C_R   0.232296 0.335415 0.997813 -0.037417
C35   C     C_R   0.163570 0.769150 0.994799 0.082816
C36   C     C_R   0.736427 0.831368 0.998005 -0.044496
C37   C     C_R   0.689225 0.227804 0.070512 0.525784
C38   C     C_R   0.149358 0.316426 0.897988 0.527765
C39   C     C_R   0.190510 0.727918 0.073727 0.535106
C40   C     C_R   0.650311 0.814847 0.899048 0.524089
C41   C     C_R   0.235943 0.682038 0.070859 -0.362231
C42   C     C_R   0.605781 0.767607 0.900245 -0.212341
C43   C     C_R   0.736663 0.183539 0.066786 -0.367609
C44   C     C_R   0.109156 0.267005 0.898536 -0.220459
C45   C     C_R   0.401421 0.625096 0.089433 -0.138121
C46   C     C_R   0.558411 0.651007 0.909336 -0.115689
C47   C     C_R   0.905582 0.131094 0.088106 -0.117861
C48   C     C_R   0.060812 0.150077 0.908517 -0.136442
C49   C     C_R   0.250751 0.678169 0.988973 0.119835
C50   C     C_R   0.641928 0.740501 0.000012 0.043969
C51   C     C_R   0.756434 0.183369 0.988809 0.108521
C52   C     C_R   0.145152 0.239862 0.998314 0.051326
C53   C     C_R   0.623709 0.546238 0.639085 0.353438
C54   C     C_R   0.630028 0.545434 0.548824 0.352306
C55   C     C_R   0.874258 0.044618 0.453959 0.355927
C56   C     C_R   0.889541 0.045825 0.371067 0.353461
C57   C     C_R   0.597682 0.498509 0.481858 0.032683
C58   C     C_R   0.592322 0.498541 0.663377 0.031564
C59   C     C_R   0.921868 0.997892 0.351507 0.032519
C60   C     C_R   0.898953 0.997157 0.518228 0.033829
C61   C     C_R   0.584910 0.449549 0.520499 -0.251941
C62   C     C_R   0.584842 0.449306 0.611899 -0.254348
C63   C     C_R   0.916740 0.948077 0.394272 -0.256314
C64   C     C_R   0.906735 0.947755 0.478335 -0.255260
C65   C     C_R   0.552883 0.454727 0.305392 -0.084628
C66   C     C_R   0.521313 0.454350 0.753942 -0.189828
C67   C     C_R   0.994389 0.953877 0.264572 -0.213006
C68   C     C_R   0.949264 0.953944 0.696975 -0.146782
C69   C     C_R   0.241426 0.544754 0.700363 -0.156210
C70   C     C_R   0.767878 0.545492 0.245240 -0.122065
C71   C     C_R   0.741639 0.044826 0.700303 -0.137277
C72   C     C_R   0.267922 0.045479 0.245336 -0.143489
C73   C     C_R   0.547320 0.545190 0.302141 -0.108375
C74   C     C_R   0.519288 0.545695 0.750241 -0.081583
C75   C     C_R   0.996503 0.044702 0.266017 -0.069232
C76   C     C_R   0.951946 0.044913 0.697071 -0.091092
C77   C     C_R   0.241689 0.453810 0.700066 -0.128789
C78   C     C_R   0.766867 0.454040 0.245739 -0.106535
C79   C     C_R   0.742208 0.953857 0.699541 -0.129911
C80   C     C_R   0.266931 0.954039 0.245922 -0.106314
C81   C     C_R   0.309767 0.622865 0.905061 -0.141456
C82   C     C_R   0.648817 0.651352 0.091933 -0.139318
C83   C     C_R   0.812158 0.126388 0.904058 -0.148571
C84   C     C_R   0.150269 0.151094 0.091350 -0.142747
C85   C     C_R   0.402457 0.373479 0.091446 0.618100
C86   C     C_R   0.558185 0.348644 0.909038 0.541076
C87   C     C_R   0.907073 0.866115 0.089980 0.575234
C88   C     C_R   0.061633 0.850404 0.907747 0.574507
C89   C     C_R   0.309795 0.362920 0.999705 -0.065514
C90   C     C_R   0.625010 0.319861 0.999896 -0.024058
C91   C     C_R   0.813803 0.857417 0.998655 -0.028910
C92   C     C_R   0.127949 0.820716 0.998694 -0.054480
H1    H     H_    0.253931 0.368958 0.823371 0.180234
H2    H     H_    0.695627 0.335913 0.175820 0.167950
H3    H     H_    0.754988 0.867870 0.822257 0.177116
H4    H     H_    0.196406 0.835955 0.174823 0.173931
H5    H     H_    0.957578 0.541910 0.333786 0.132955
H6    H     H_    0.061739 0.537063 0.509851 0.133864
H7    H     H_    0.457502 0.041955 0.333333 0.134315
H8    H     H_    0.563288 0.037546 0.508642 0.128985
H9    H     H_    0.231079 0.716897 0.845444 0.128723
H10   H     H_    0.732551 0.750092 0.177963 0.124938
H11   H     H_    0.745363 0.226008 0.853897 0.130479
H12   H     H_    0.231472 0.250535 0.175860 0.125537
H13   H     H_    0.667193 0.302714 0.861443 0.159991
H14   H     H_    0.301845 0.335075 0.174725 0.197114
H15   H     H_    0.158441 0.795556 0.852488 0.172511
H16   H     H_    0.810701 0.831286 0.175656 0.178088
H17   H     H_    0.261983 0.650573 0.133245 0.131548
H18   H     H_    0.546243 0.751405 0.822699 0.139896
H19   H     H_    0.759850 0.150278 0.125044 0.185455
H20   H     H_    0.052348 0.249618 0.820604 0.142122
H21   H     H_    0.565585 0.411779 0.475003 0.159778
H22   H     H_    0.566898 0.410920 0.631853 0.155350
H23   H     H_    0.930863 0.909429 0.372951 0.155998
H24   H     H_    0.916259 0.909106 0.518691 0.155400
H25   H     H_    0.428964 0.633853 0.173747 0.102724
H26   H     H_    0.512150 0.664290 0.824821 0.085145
H27   H     H_    0.936176 0.146311 0.169678 0.113768
H28   H     H_    0.015833 0.162809 0.823527 0.094279
H29   H     H_    0.578539 0.414343 0.337291 0.134895
H30   H     H_    0.534471 0.412398 0.748034 0.156834
H31   H     H_    0.994653 0.912556 0.287712 0.169924
H32   H     H_    0.928863 0.912290 0.669829 0.147620
H33   H     H_    0.228677 0.586286 0.670052 0.094858
H34   H     H_    0.790124 0.587702 0.253388 0.103871
H35   H     H_    0.728987 0.086406 0.670293 0.101284
H36   H     H_    0.290223 0.087677 0.253564 0.103830
H37   H     H_    0.560221 0.587508 0.326791 0.162160
H38   H     H_    0.526480 0.588152 0.736376 0.152101
H39   H     H_    0.002135 0.085974 0.292822 0.137049
H40   H     H_    0.938905 0.087117 0.671466 0.160134
H41   H     H_    0.227859 0.412196 0.670751 0.084991
H42   H     H_    0.787608 0.412029 0.254867 0.094009
H43   H     H_    0.729099 0.912317 0.669939 0.086389
H44   H     H_    0.287740 0.912034 0.255262 0.094350
H45   H     H_    0.252628 0.628858 0.819536 0.101128
H46   H     H_    0.685650 0.665138 0.175863 0.092655
H47   H     H_    0.755834 0.133185 0.818424 0.102076
H48   H     H_    0.187177 0.165269 0.175032 0.088886
H49   H     H_    0.944920 0.416392 0.336030 0.122817
H50   H     H_    0.118517 0.423379 0.481054 0.122000
H51   H     H_    0.445128 0.916445 0.336126 0.123302
H52   H     H_    0.618645 0.923264 0.480630 0.121174
N1    N     N_R   0.395440 0.396300 0.944370 -0.077891
N2    N     N_R   0.604560 0.396300 0.055630 -0.074149
N3    N     N_R   0.895440 0.896300 0.944370 -0.075265
N4    N     N_R   0.104560 0.896300 0.055630 -0.075771
N5    N     N_R   0.449890 0.602500 0.055780 -0.042500
N6    N     N_R   0.550110 0.602500 0.944220 -0.042534
N7    N     N_R   0.949890 0.102500 0.055780 -0.046331
N8    N     N_R   0.050110 0.102500 0.944220 -0.041136
N9    N     N_R   0.525090 0.470990 0.205640 -0.051773
N10   N     N_R   0.474910 0.470990 0.794360 -0.045699
N11   N     N_R   0.025090 0.970990 0.205640 -0.048047
N12   N     N_R   0.974910 0.970990 0.794360 -0.044191
N13   N     N_R   0.320240 0.527820 0.794510 -0.038460
N14   N     N_R   0.679760 0.527820 0.205490 -0.041397
N15   N     N_R   0.820240 0.027820 0.794510 -0.039604
N16   N     N_R   0.179760 0.027820 0.205490 -0.043314
N17   N     N_R   0.524580 0.527810 0.205160 -0.058103
N18   N     N_R   0.475420 0.527810 0.794840 -0.055280
N19   N     N_R   0.024580 0.027810 0.205160 -0.053692
N20   N     N_R   0.975420 0.027810 0.794840 -0.054943
N21   N     N_R   0.320750 0.470990 0.794990 -0.042320
N22   N     N_R   0.679250 0.470990 0.205010 -0.046752
N23   N     N_R   0.820750 0.970990 0.794990 -0.041532
N24   N     N_R   0.179250 0.970990 0.205010 -0.045466
N25   N     N_R   0.393580 0.602500 0.942610 -0.042169
N26   N     N_R   0.606420 0.602500 0.057390 -0.040829
N27   N     N_R   0.893580 0.102500 0.942610 -0.041258
N28   N     N_R   0.106420 0.102500 0.057390 -0.040261
N29   N     N_R   0.451750 0.396300 0.057540 -0.099759
N30   N     N_R   0.548250 0.396300 0.942460 -0.097404
N31   N     N_R   0.951750 0.896300 0.057540 -0.100264
N32   N     N_R   0.048250 0.896300 0.942460 -0.093748
Ni1   Ni    Ni4+2 0.435420 0.434250 0.870220 0.200455
Ni2   Ni    Ni4+2 0.564580 0.434250 0.129780 0.208011
Ni3   Ni    Ni4+2 0.935420 0.934250 0.870220 0.206612
Ni4   Ni    Ni4+2 0.064580 0.934250 0.129780 0.199614
Ni5   Ni    Ni4+2 0.563400 0.564580 0.128670 0.221047
Ni6   Ni    Ni4+2 0.436600 0.564580 0.871330 0.210130
Ni7   Ni    Ni4+2 0.063400 0.064580 0.128670 0.210810
Ni8   Ni    Ni4+2 0.936600 0.064580 0.871330 0.217648
O1    O     O_3   0.667094 0.230340 0.145222 -0.786022
H53   H     H_    0.690086 0.196839 0.191164 0.317578
O2    O     O_3   0.107623 0.343773 0.799556 -0.772793
H54   H     H_    0.122799 0.383190 0.816513 0.313655
O3    O     O_3   0.173030 0.733474 0.152016 -0.800672
H55   H     H_    0.196588 0.700746 0.200134 0.314622
O4    O     O_3   0.609629 0.842291 0.800939 -0.773178
H56   H     H_    0.626109 0.881553 0.818569 0.311258
O5    O     O_3   0.644414 0.592604 0.701279 -0.777100
H57   H     H_    0.631649 0.625150 0.654957 0.320301
O6    O     O_3   0.666830 0.588862 0.524812 -0.787934
H58   H     H_    0.713683 0.608762 0.593689 0.330195
O7    O     O_3   0.836795 0.088121 0.473980 -0.790303
H59   H     H_    0.794756 0.108695 0.404666 0.325296
O8    O     O_3   0.876161 0.092562 0.311579 -0.809972
H60   H     H_    0.887753 0.124872 0.357265 0.316034
O9    O     O_3   0.442244 0.355997 0.197560 -0.666025
C93   C     C_3   0.512436 0.317209 0.225913 -0.278502
H61   H     H_    0.573127 0.336064 0.229705 0.149584
H62   H     H_    0.482169 0.282087 0.167740 0.170019
H63   H     H_    0.540592 0.300959 0.308933 0.172814
O10   O     O_3   0.501480 0.327461 0.803383 -0.647217
C94   C     C_3   0.404926 0.331189 0.760990 -0.240408
H64   H     H_    0.380505 0.373801 0.738304 0.144664
H65   H     H_    0.390391 0.313809 0.818811 0.148922
H66   H     H_    0.362813 0.306702 0.684431 0.169247
O11   O     O_3   0.951270 0.834879 0.185309 -0.667987
C95   C     C_3   0.043661 0.820552 0.221127 -0.230344
H67   H     H_    0.091278 0.857028 0.248230 0.133753
H68   H     H_    0.041894 0.797975 0.155889 0.192007
H69   H     H_    0.073915 0.792909 0.293023 0.176786
O12   O     O_3   0.003389 0.830658 0.801474 -0.648668
C96   C     C_3   0.913531 0.817461 0.776949 -0.257857
H70   H     H_    0.873150 0.855021 0.763222 0.138294
H71   H     H_    0.918820 0.791528 0.841899 0.153569
H72   H     H_    0.872667 0.793795 0.699251 0.174244

loop_
_geom_bond_atom_site_label_1
_geom_bond_atom_site_label_2
_ccdc_geom_bond_type
C25   C31   A    
C23   H7    S    
C55   C56   A    
C82   N26   A    
C3    N3    A    
C6    C82   A    
C3    C91   A    
C87   C91   A    
C27   C29   A    
C53   O5    S    
O9    C93   S    
C20   H52   S    
C7    C83   A    
C19   C20   S    
C16   C72   A    
C5    C49   S    
C86   O10   S    
C83   H47   S    
C39   C41   A    
C55   O7    S    
C53   C54   A    
C96   H72   S    
C26   C32   A    
C12   C68   A    
N2    Ni2   S    
C70   H34   S    
N4    N32   A    
C9    C73   A    
C72   H36   S    
C22   H6    S    
C32   C36   A    
C14   C21   S    
C17   H49   S    
C10   C58   S    
C62   H22   S    
C26   C50   A    
N8    N28   A    
N12   Ni3   S    
N3    N31   A    
C77   N21   A    
C38   O2    S    
C4    N4    A    
C29   C33   A    
N7    N27   A    
C94   H65   S    
C46   H26   S    
C75   N19   A    
C31   H15   S    
C27   H11   S    
C87   N31   A    
C2    C90   A    
C56   C59   A    
C65   N9    A    
C5    C81   A    
C4    H4    S    
C58   C62   A    
C1    N1    A    
N32   Ni3   S    
C37   O1    S    
C88   C92   A    
C11   C67   A    
C93   H63   S    
C83   N27   A    
C13   C22   S    
C94   H66   S    
C85   N29   A    
C66   H30   S    
N22   Ni2   S    
C81   N25   A    
N15   Ni8   S    
N8    Ni8   S    
C6    C46   A    
C8    C52   S    
N16   Ni7   S    
C45   N5    A    
C85   O9    S    
C56   O8    S    
C63   H23   S    
C35   C92   S    
C44   C52   A    
C47   H27   S    
C69   H33   S    
O8    H60   S    
N4    Ni4   S    
C24   H8    S    
C55   C60   A    
C30   H14   S    
N5    Ni5   S    
C14   C70   A    
C29   H13   S    
C61   C62   A    
C77   H41   S    
C79   H43   S    
C11   C59   S    
C41   C49   A    
C75   H39   S    
C9    C65   A    
C10   C66   A    
C15   C79   A    
C78   N22   A    
C93   H61   S    
C30   C34   A    
N19   Ni7   S    
C94   H64   S    
C20   C24   D    
N27   Ni8   S    
C2    H2    S    
O12   C96   S    
C48   H28   S    
C86   C90   A    
N13   N21   A    
C12   C60   S    
C66   N10   A    
C85   C89   A    
O10   C94   S    
C34   C38   A    
O6    H58   S    
C71   H35   S    
C8    C84   A    
C96   H70   S    
N24   Ni4   S    
C5    C45   A    
C64   H24   S    
C33   C37   A    
O4    H56   S    
N9    N17   A    
C16   C80   A    
C7    C47   A    
C37   C43   A    
C35   C39   A    
C8    C48   A    
C38   C44   A    
N20   Ni8   S    
C21   H5    S    
C28   H12   S    
C73   N17   A    
O11   C95   S    
C95   H69   S    
C36   C40   A    
N21   Ni1   S    
C68   H32   S    
C17   C18   S    
C6    C50   S    
C57   C61   A    
C78   H42   S    
N30   Ni1   S    
C84   H48   S    
C93   H62   S    
C69   N13   A    
C42   C50   A    
C44   H20   S    
C36   C91   S    
C15   C24   S    
C46   N6    A    
C47   N7    A    
N23   Ni3   S    
C16   C23   S    
C65   H29   S    
C48   N8    A    
N26   Ni5   S    
C61   H21   S    
N5    N25   A    
C76   N20   A    
C96   H71   S    
N13   Ni6   S    
C79   N23   A    
C12   C76   A    
N6    Ni6   S    
C71   N15   A    
N11   Ni4   S    
C19   C23   D    
C74   N18   A    
C45   H25   S    
O3    H55   S    
N9    Ni2   S    
C18   H50   S    
C1    C89   A    
C54   O6    S    
C88   O12   S    
C18   C22   D    
C87   O11   S    
N10   N18   A    
N16   N24   A    
N1    N29   A    
C84   N28   A    
C67   H31   S    
C3    H3    S    
C53   C58   A    
C10   C74   A    
N7    Ni7   S    
N31   Ni4   S    
C67   N11   A    
C2    N2    A    
C15   C71   A    
C59   C63   A    
C72   N16   A    
N18   Ni6   S    
C60   C64   A    
N11   N19   A    
C19   H51   S    
C74   H38   S    
C42   H18   S    
C34   C89   S    
C7    C51   S    
C28   C30   A    
C82   H46   S    
C11   C75   A    
C33   C90   S    
C26   H10   S    
C13   C77   A    
C28   C52   A    
N28   Ni7   S    
C25   H9    S    
O1    H53   S    
N6    N26   A    
C40   O4    S    
C13   C69   A    
N29   Ni2   S    
C43   C51   A    
C73   H37   S    
C39   O3    S    
N2    N30   A    
C31   C35   A    
C40   C42   A    
C27   C51   A    
N15   N23   A    
C76   H40   S    
C9    C57   S    
C14   C78   A    
N17   Ni5   S    
O7    H59   S    
N14   Ni5   S    
C25   C49   A    
N25   Ni6   S    
C80   H44   S    
C95   H68   S    
C63   C64   A    
C43   H19   S    
N14   N22   A    
N3    Ni3   S    
C88   N32   A    
O2    H54   S    
C95   H67   S    
N12   N20   A    
C1    H1    S    
O5    H57   S    
C32   H16   S    
N10   Ni1   S    
N1    Ni1   S    
C81   H45   S    
C41   H17   S    
C86   N30   A    
C68   N12   A    
C80   N24   A    
C70   N14   A    
C4    C92   A    
C54   C57   A    
C17   C21   D    
