data_mof_unit_48967.cif
_audit_creation_date              2012-12-11T15:14:45-0500
_audit_creation_method            fapswitch 2.2
_symmetry_space_group_name_H-M    P1
_symmetry_Int_Tables_number       1
_space_group_crystal_system       triclinic
_cell_length_a                    22.279223
_cell_length_b                    7.228169
_cell_length_c                    19.173819
_cell_angle_alpha                 90.011211
_cell_angle_beta                  99.375202
_cell_angle_gamma                 89.981666
_cell_volume                      3046.46973179

loop_
_atom_site_label
_atom_site_type_symbol
_atom_type_description
_atom_site_fract_x
_atom_site_fract_y
_atom_site_fract_z
_atom_type_partial_charge
O1    O     O_R   0.448470 0.506130 0.415700 -0.529722
O2    O     O_R   0.551530 0.006130 0.584300 -0.529650
O3    O     O_R   0.436320 0.174490 0.555800 -0.533473
O4    O     O_R   0.563680 0.674490 0.444200 -0.533829
C1    C     C_R   0.420928 0.344553 0.574798 0.701788
C2    C     C_R   0.579061 0.844501 0.425185 0.701856
O5    O     O_R   0.441350 0.176340 0.414480 -0.533125
O6    O     O_R   0.558650 0.676340 0.585520 -0.532971
O7    O     O_R   0.556600 0.007100 0.441970 -0.530646
O8    O     O_R   0.443400 0.507100 0.558030 -0.530807
C3    C     C_R   0.427228 0.345204 0.388781 0.682890
C4    C     C_R   0.572798 0.845183 0.611202 0.682971
O9    O     O_3   0.537810 0.339550 0.509190 -0.367996
O10   O     O_3   0.462190 0.839550 0.490810 -0.368066
V1    V     V_3+5 0.492990 0.064280 0.498300 1.509243
V2    V     V_3+5 0.507010 0.564280 0.501700 1.508774
C5    C     C_R   0.870477 0.893738 0.693402 0.480412
C6    C     C_R   0.129605 0.392270 0.306447 0.423891
H1    H     H_    0.957703 0.907062 0.760993 0.181117
H2    H     H_    0.042388 0.404575 0.238932 0.182216
C7    C     C_R   0.885207 0.939011 0.820496 -0.138978
C8    C     C_R   0.114824 0.438893 0.179474 -0.127641
C9    C     C_R   0.590168 0.859251 0.740988 -0.199844
C10   C     C_R   0.409902 0.360012 0.259009 -0.200207
C11   C     C_R   0.624481 0.916401 0.804364 -0.131204
C12   C     C_R   0.375601 0.417669 0.195696 -0.131147
C13   C     C_R   0.685540 0.968360 0.808314 0.376546
C14   C     C_R   0.314528 0.469557 0.191785 0.377148
C15   C     C_R   0.716149 0.930926 0.749602 0.006275
C16   C     C_R   0.283903 0.431553 0.250423 0.003146
C17   C     C_R   0.678838 0.891497 0.683118 -0.035033
C18   C     C_R   0.321204 0.391668 0.316873 -0.034105
C19   C     C_R   0.781256 0.932053 0.753003 0.011040
C20   C     C_R   0.218792 0.432402 0.246981 0.012699
C21   C     C_R   0.806486 0.921845 0.688973 -0.140262
C22   C     C_R   0.193553 0.421230 0.310977 -0.131034
C23   C     C_R   0.766396 0.933832 0.623543 0.489357
C24   C     C_R   0.233591 0.432900 0.376454 0.474206
C25   C     C_R   0.704600 0.900227 0.621319 -0.206216
C26   C     C_R   0.295422 0.399866 0.378671 -0.210502
C27   C     C_R   0.822139 0.928572 0.818059 -0.064071
C28   C     C_R   0.177916 0.429394 0.181905 -0.065339
C29   C     C_R   0.908869 0.919576 0.758110 -0.192090
C30   C     C_R   0.091189 0.418095 0.241810 -0.247903
C31   C     C_R   0.615403 0.858253 0.679095 -0.050897
C32   C     C_R   0.384641 0.358440 0.320883 -0.050630
H3    H     H_    0.806159 0.911422 0.867524 0.181610
H4    H     H_    0.193913 0.413118 0.132410 0.180751
H5    H     H_    0.542057 0.832468 0.739039 0.138206
H6    H     H_    0.458024 0.333333 0.260950 0.138163
H7    H     H_    0.601491 0.936022 0.849434 0.173413
H8    H     H_    0.398606 0.437745 0.150670 0.173351
H9    H     H_    0.675810 0.894133 0.570089 0.137206
H10   H     H_    0.324192 0.393483 0.429907 0.137596
C33   C     C_3   0.771142 0.777965 0.303823 -0.201670
C34   C     C_3   0.228849 0.277319 0.696068 -0.196627
C35   C     C_3   0.802632 0.959780 0.287206 0.500998
C36   C     C_3   0.197098 0.458886 0.712549 0.497080
H11   H     H_    0.788234 0.679712 0.347029 0.198694
H12   H     H_    0.211903 0.178692 0.652936 0.207131
H13   H     H_    0.734748 0.203092 0.302496 0.158235
H14   H     H_    0.264665 0.702811 0.697086 0.159497
C37   C     C_1   0.875355 0.940632 0.121028 -0.083957
C38   C     C_1   0.124564 0.440384 0.878891 -0.079716
C39   C     C_1   0.625625 0.854816 0.380457 -0.109549
C40   C     C_1   0.374321 0.354966 0.619469 -0.109044
C41   C     C_3   0.759787 0.733640 0.223541 -0.103843
C42   C     C_3   0.240249 0.233439 0.776378 -0.104918
C43   C     C_3   0.791841 0.913909 0.207901 -0.040046
C44   C     C_3   0.207957 0.413458 0.791884 -0.040672
C45   C     C_3   0.698456 0.836996 0.214802 -0.041706
C46   C     C_3   0.301442 0.337422 0.785048 -0.040695
C47   C     C_3   0.709730 0.883163 0.294361 -0.000921
C48   C     C_3   0.290118 0.383156 0.705458 -0.002993
C49   C     C_3   0.730443 0.018576 0.198693 -0.223471
C50   C     C_3   0.269214 0.518769 0.801010 -0.224519
C51   C     C_3   0.741594 0.065675 0.279119 -0.186059
C52   C     C_3   0.257997 0.565420 0.720552 -0.187955
C53   C     C_1   0.837546 0.929833 0.159896 0.096856
C54   C     C_1   0.162310 0.429417 0.839951 0.097200
C55   C     C_1   0.663945 0.866858 0.342250 0.091574
C56   C     C_1   0.335953 0.366984 0.657621 0.092445
H15   H     H_    0.713149 0.113826 0.154676 0.217479
H16   H     H_    0.286369 0.614375 0.844959 0.217178
O11   O     O_R   0.056650 0.288730 0.942060 -0.535411
O12   O     O_R   0.943350 0.788730 0.057940 -0.535951
O13   O     O_R   0.058660 0.616870 0.085540 -0.524042
O14   O     O_R   0.941340 0.116870 0.914460 -0.521055
C57   C     C_R   0.072798 0.448380 0.111335 0.721132
C58   C     C_R   0.927215 0.948399 0.888652 0.727962
O15   O     O_R   0.063700 0.618520 0.944220 -0.530648
O16   O     O_R   0.936300 0.118520 0.055780 -0.531391
O17   O     O_R   0.948460 0.787610 0.915680 -0.535243
O18   O     O_R   0.051540 0.287610 0.084320 -0.539782
C59   C     C_R   0.078853 0.450012 0.924694 0.724541
C60   C     C_R   0.921131 0.950073 0.075294 0.714439
O19   O     O_3   0.962230 0.453430 0.990860 -0.372073
O20   O     O_3   0.037770 0.953430 0.009140 -0.374929
V3    V     V_3+5 0.007010 0.728750 0.001700 1.553474
V4    V     V_3+5 0.992990 0.228750 0.998300 1.554681
C61   C     C_2   0.639785 0.771966 0.172123 0.858999
O21   O     O_2   0.636028 0.752700 0.108234 -0.513320
O22   O     O_R   0.589761 0.734444 0.205291 -0.670296
H17   H     H_    0.552961 0.691647 0.170841 0.310812
C62   C     C_2   0.360187 0.273136 0.827795 0.859054
O23   O     O_2   0.363953 0.254209 0.891697 -0.513309
O24   O     O_R   0.410270 0.235917 0.794674 -0.670274
H18   H     H_    0.447118 0.193624 0.829168 0.310922
C63   C     C_2   0.771792 0.549526 0.192714 0.811294
O25   O     O_2   0.730787 0.466984 0.155350 -0.543147
O26   O     O_R   0.830304 0.474685 0.206137 -0.621708
H19   H     H_    0.833099 0.351870 0.181334 0.318652
C64   C     C_2   0.228440 0.049235 0.807214 0.811023
O27   O     O_2   0.269413 0.967710 0.845043 -0.542939
O28   O     O_R   0.170144 0.973063 0.793200 -0.620478
H20   H     H_    0.167467 0.850103 0.817919 0.318211
S1    S     S_3+6 0.786513 0.039876 0.547140 0.088964
O29   O     O_2   0.840000 0.166594 0.567196 -0.268590
O30   O     O_2   0.800927 0.895531 0.495953 -0.275923
O31   O     O_3   0.727194 0.165851 0.507188 -0.516040
H21   H     H_    0.738810 0.205914 0.461803 0.370441
S2    S     S_3+6 0.213241 0.537062 0.453122 0.109569
O32   O     O_2   0.159391 0.662700 0.433434 -0.249301
O33   O     O_2   0.199291 0.391349 0.504016 -0.259008
O34   O     O_3   0.272258 0.663870 0.493267 -0.515395
H22   H     H_    0.260815 0.701555 0.539022 0.372732
S3    S     S_3+6 0.902565 0.768681 0.628575 0.157681
O35   O     O_2   0.925856 0.899070 0.578141 -0.212291
O36   O     O_2   0.954997 0.654047 0.664410 -0.271132
O37   O     O_3   0.850406 0.625043 0.584269 -0.459736
H23   H     H_    0.871502 0.562794 0.549089 0.416748
S4    S     S_3+6 0.097451 0.265903 0.370805 0.181016
O38   O     O_2   0.143926 0.139409 0.411745 -0.265397
O39   O     O_2   0.072922 0.395270 0.420643 -0.186368
O40   O     O_3   0.039381 0.135971 0.330401 -0.425546
H24   H     H_    0.058367 0.043886 0.302501 0.346228
S5    S     S_3+6 0.712696 0.124926 0.878148 0.019000
O41   O     O_2   0.760954 0.250070 0.857992 -0.304022
O42   O     O_2   0.660976 0.243287 0.893792 -0.299313
O43   O     O_3   0.740906 0.007203 0.951943 -0.502208
H25   H     H_    0.706445 0.932011 0.962851 0.355697
S6    S     S_3+6 0.287365 0.626724 0.122170 0.017432
O44   O     O_2   0.239049 0.751524 0.142471 -0.307188
O45   O     O_2   0.339064 0.745386 0.106746 -0.299277
O46   O     O_3   0.259233 0.509634 0.048189 -0.502422
H26   H     H_    0.293722 0.434597 0.037215 0.355619
S7    S     S_3+6 0.872330 0.042963 0.336157 0.122657
O47   O     O_2   0.913283 0.881785 0.359657 -0.248553
O48   O     O_2   0.902895 0.168905 0.290439 -0.301689
O49   O     O_3   0.857838 0.160780 0.407106 -0.445953
H27   H     H_    0.898334 0.196196 0.433074 0.430159
S8    S     S_3+6 0.127236 0.540783 0.663497 0.135545
O50   O     O_2   0.086824 0.378764 0.639583 -0.239006
O51   O     O_2   0.096096 0.665195 0.709233 -0.297912
O52   O     O_3   0.141605 0.659916 0.592821 -0.437428
H28   H     H_    0.101085 0.696302 0.567179 0.436521

loop_
_geom_bond_atom_site_label_1
_geom_bond_atom_site_label_2
_ccdc_geom_bond_type
C16   C18   A    
C61   O21   D    
C9    C31   A    
C33   H11   S    
C13   C15   A    
C6    S4    S    
O26   H19   S    
O1    C3    A    
C46   C50   S    
O2    C4    A    
C50   H16   S    
C2    O7    A    
C5    C29   A    
O46   H26   S    
O40   H24   S    
C37   C53   T    
O5    C3    A    
S5    O42   D    
C13   S5    S    
C50   C52   S    
C21   C23   A    
C10   C12   A    
C6    C30   A    
S1    O30   D    
C9    H5    S    
O28   H20   S    
C15   C19   A    
O16   C60   A    
S6    O44   D    
C57   O18   A    
C25   H9    S    
C63   O26   S    
C7    C29   A    
C41   C63   S    
C2    C39   S    
C8    C30   A    
S7    O47   D    
H13   C51   S    
S4    O38   D    
H1    C29   S    
O24   H18   S    
O17   V3    S    
C20   C22   A    
C42   C46   S    
C42   C64   S    
C42   C44   S    
O5    V1    S    
C45   C61   S    
O6    V2    S    
C45   C49   S    
C15   C17   A    
C38   C54   T    
S6    O46   S    
C48   C56   S    
C47   C55   S    
H2    C30   S    
C36   S8    S    
O13   V3    S    
C7    C58   S    
C10   H6    S    
S5    O43   S    
C20   C28   A    
S2    O32   D    
C34   C48   S    
C16   C20   A    
C44   C54   S    
C35   C51   S    
S7    O49   S    
O43   H25   S    
C46   C48   S    
S1    O31   S    
C45   C47   S    
C5    S3    S    
C34   C42   S    
C37   C60   S    
C34   H12   S    
C41   C43   S    
O4    V2    S    
S3    O36   D    
O2    V1    S    
C12   H8    S    
C40   C56   T    
C62   O24   S    
C39   C55   T    
S8    O52   S    
O18   V4    S    
O6    C4    A    
C27   H3    S    
O1    V2    S    
C28   H4    S    
C46   C62   S    
O12   V3    S    
C49   C51   S    
C24   S2    S    
O12   C60   A    
C7    C27   A    
S4    O39   D    
S8    O51   D    
C26   H10   S    
C35   S7    S    
C44   C50   S    
O34   H22   S    
S6    O45   D    
C43   C53   S    
O4    C2    A    
C14   S6    S    
S2    O33   D    
S3    O35   D    
O14   V4    S    
O52   H28   S    
O19   V4    S    
O3    V1    S    
O31   H21   S    
O16   V4    S    
C58   O17   A    
C64   O27   D    
S5    O41   D    
S7    O48   D    
O49   H27   S    
C18   C32   A    
H14   C52   S    
C36   C44   S    
C38   C59   S    
O14   C58   A    
C1    C40   S    
O3    C1    A    
C33   C41   S    
C17   C31   A    
C4    C31   S    
C11   C13   A    
C62   O23   D    
C12   C14   A    
C11   H7    S    
C19   C27   A    
S2    O34   S    
C33   C35   S    
O37   H23   S    
O7    V1    S    
S3    O37   S    
C10   C32   A    
C1    O8    A    
C23   C25   A    
O11   V4    S    
O8    V2    S    
C63   O25   D    
C22   C24   A    
C24   C26   A    
O11   C59   A    
C49   H15   S    
C8    C28   A    
S4    O40   S    
C14   C16   A    
C19   C21   A    
C8    C57   S    
C34   C36   S    
C43   C49   S    
C41   C45   S    
C18   C26   A    
C36   C52   S    
O15   C59   A    
C33   C47   S    
C9    C11   A    
C23   S1    S    
S8    O50   D    
C61   O22   S    
O20   V3    S    
C48   C52   S    
O9    V2    S    
O22   H17   S    
C17   C25   A    
O13   C57   A    
C47   C51   S    
O10   V1    S    
C3    C32   S    
C5    C21   A    
C35   C43   S    
O15   V3    S    
S1    O29   D    
C6    C22   A    
C64   O28   S    
