data_mof_unit_25461.cif
_audit_creation_date              2012-10-26T20:06:13-0400
_audit_creation_method            fapswitch 2.2
_symmetry_space_group_name_H-M    P1
_symmetry_Int_Tables_number       1
_space_group_crystal_system       triclinic
_cell_length_a                    9.506793
_cell_length_b                    10.834302
_cell_length_c                    13.452203
_cell_angle_alpha                 90.182206
_cell_angle_beta                  71.917125
_cell_angle_gamma                 89.991478
_cell_volume                      1317.12682789

loop_
_atom_site_label
_atom_site_type_symbol
_atom_type_description
_atom_site_fract_x
_atom_site_fract_y
_atom_site_fract_z
_atom_type_partial_charge
C1    C     C_R   0.499936 0.737966 0.500210 0.545134
C2    C     C_R   0.367016 0.507775 0.817807 -0.041514
C3    C     C_R   0.627266 0.936137 0.501297 -0.138885
C4    C     C_R   0.419418 0.505443 0.701092 0.531538
C5    C     C_R   0.627322 0.063835 0.501152 -0.134598
C6    C     C_R   0.499890 0.128198 0.500240 0.021913
C7    C     C_R   0.372357 0.063844 0.499576 -0.132923
C8    C     C_R   0.372311 0.936149 0.499701 -0.136491
C9    C     C_R   0.499817 0.871789 0.500443 0.019383
C10   C     C_R   0.900150 0.583986 0.558284 0.024896
C11   C     C_R   0.048776 0.583557 0.558704 0.012385
C12   C     C_R   0.436860 0.501122 0.979400 0.035244
C13   C     C_R   0.100353 0.416744 0.440856 0.017362
C14   C     C_R   0.951381 0.416685 0.440982 0.012140
C15   C     C_R   0.499953 0.262033 0.500048 0.558296
C16   C     C_R   0.579609 0.500592 0.299697 0.546193
C17   C     C_R   0.788878 0.600140 0.026579 -0.105270
C18   C     C_R   0.626360 0.512668 0.185776 -0.002031
C19   C     C_R   0.222502 0.465390 0.874948 0.003954
C20   C     C_R   0.190672 0.436883 0.980618 -0.111408
C21   C     C_R   0.296245 0.450577 0.031175 -0.145988
C22   C     C_2   0.099341 0.453569 0.829484 0.238200
C23   C     C_R   0.467752 0.538003 0.873597 0.020855
C24   C     C_R   0.546254 0.519647 0.030313 0.040942
C25   C     C_R   0.680853 0.580169 0.976916 0.071947
C26   C     C_R   0.703308 0.625289 0.876441 -0.121549
C27   C     C_R   0.596654 0.607853 0.827008 -0.110389
C28   C     C_R   0.524537 0.482844 0.133933 -0.123040
C29   C     C_R   0.761253 0.567443 0.130983 -0.133989
Cu1   Cu    Cu3+1 0.359340 0.499980 0.500000 0.941954
Cu2   Cu    Cu3+1 0.640660 0.500020 0.500000 0.943708
H1    H     H_    0.726995 0.111865 0.501741 0.130428
H2    H     H_    0.260444 0.425344 0.112452 0.098791
H3    H     H_    0.081806 0.403829 0.025294 0.157756
H4    H     H_    0.614053 0.654213 0.753311 0.126491
H5    H     H_    0.726882 0.888095 0.502031 0.125446
H6    H     H_    0.841826 0.590394 0.170012 0.125770
H7    H     H_    0.892069 0.645810 0.985965 0.104044
H8    H     H_    0.086156 0.519690 0.772807 0.118827
H9    H     H_    0.272721 0.111880 0.498883 0.130946
H10   H     H_    0.272635 0.888117 0.499119 0.127141
H11   H     H_    0.824253 0.652020 0.604210 0.094034
H12   H     H_    0.084317 0.650501 0.605722 0.091415
H13   H     H_    0.177299 0.350154 0.393399 0.103314
H14   H     H_    0.915944 0.350086 0.393639 0.104736
H15   H     H_    0.802353 0.676977 0.836675 0.089649
H16   H     H_    0.426979 0.433845 0.178171 0.112342
N1    N     N_R   0.147940 0.499970 0.499970 -0.221289
N2    N     N_R   0.852060 0.500060 0.499990 -0.221284
O1    O     O_R   0.381250 0.680340 0.500010 -0.510681
O2    O     O_R   0.618820 0.680370 0.500010 -0.516831
O3    O     O_R   0.323240 0.499950 0.650980 -0.511551
O4    O     O_R   0.560810 0.499980 0.650980 -0.489508
O5    O     O_R   0.381180 0.319630 0.499990 -0.503877
O6    O     O_R   0.618750 0.319660 0.499990 -0.504366
O7    O     O_R   0.439190 0.500020 0.349020 -0.504613
O8    O     O_R   0.676760 0.500050 0.349020 -0.502731
O9    O     O_2   0.007063 0.372008 0.858326 -0.502367

loop_
_geom_bond_atom_site_label_1
_geom_bond_atom_site_label_2
_ccdc_geom_bond_type
C22   O9    D    
C13   N1    A    
C2    C4    S    
C7    H9    S    
C16   O7    A    
C28   H16   S    
C11   H12   S    
C6    C7    A    
C3    C9    A    
C23   C27   A    
C4    O4    A    
C10   H11   S    
Cu1   O5    S    
C1    O1    A    
C12   C24   A    
C19   C20   A    
C16   O8    A    
C5    H1    S    
C20   H3    S    
C20   C21   A    
Cu2   O8    S    
Cu1   O1    S    
C24   C25   A    
C1    C9    S    
C7    C8    A    
C18   C29   A    
C13   C14   A    
Cu2   O4    S    
C1    O2    A    
C12   C23   A    
C11   N1    A    
C5    C6    A    
C3    H5    S    
Cu2   N2    S    
C22   H8    S    
Cu1   N1    S    
C25   C26   A    
C4    O3    A    
C14   H14   S    
C17   H7    S    
C26   C27   A    
Cu1   Cu2   S    
C14   N2    A    
C21   H2    S    
C10   C11   A    
C26   H15   S    
C15   O5    A    
C17   C29   A    
C19   C22   S    
C18   C28   A    
C8    H10   S    
C16   C18   S    
C29   H6    S    
C2    C23   A    
Cu1   O3    S    
C8    C9    A    
C27   H4    S    
Cu2   O6    S    
C6    C15   S    
C2    C19   A    
C10   N2    A    
Cu1   O7    S    
C12   C21   A    
C13   H13   S    
C24   C28   A    
Cu2   O2    S    
C17   C25   A    
C3    C5    A    
C15   O6    A    
