data_mof_unit_44196.cif
_audit_creation_date              2012-12-10T17:05:47-0500
_audit_creation_method            fapswitch 2.2
_symmetry_space_group_name_H-M    P1
_symmetry_Int_Tables_number       1
_space_group_crystal_system       triclinic
_cell_length_a                    21.766387
_cell_length_b                    21.796199
_cell_length_c                    39.123864
_cell_angle_alpha                 90.000259
_cell_angle_beta                  90.000144
_cell_angle_gamma                 90.475004
_cell_volume                      18560.6818559

loop_
_atom_site_label
_atom_site_type_symbol
_atom_type_description
_atom_site_fract_x
_atom_site_fract_y
_atom_site_fract_z
_atom_type_partial_charge
C1    C     C_R   0.500626 0.119140 0.500063 0.797103
C2    C     C_R   0.716252 0.371072 0.439242 -0.120574
C3    C     C_R   1.000000 0.500000 0.566436 0.771316
C4    C     C_R   1.000000 0.499999 0.933555 0.772796
C5    C     C_R   0.499999 1.000000 0.933569 0.772324
C6    C     C_R   0.000000 0.500000 0.066438 0.773468
C7    C     C_R   0.500000 0.000000 0.066433 0.771717
C8    C     C_R   0.446104 0.016671 0.376039 0.129112
C9    C     C_R   0.987336 0.444808 0.375978 0.125655
C10   C     C_R   0.553896 0.983328 0.376040 0.129114
C11   C     C_R   0.012664 0.555191 0.375978 0.125654
C12   C     C_R   0.453162 0.968431 0.623557 0.132516
C13   C     C_R   0.644067 0.718105 0.451459 -0.118565
C14   C     C_R   0.988780 0.555319 0.624046 0.124993
C15   C     C_R   0.546836 0.031547 0.623562 0.132546
C16   C     C_R   0.011220 0.444683 0.624046 0.124993
C17   C     C_R   0.944894 0.512440 0.875960 0.125884
C18   C     C_R   0.487317 0.944831 0.875980 0.125631
C19   C     C_R   0.055105 0.487558 0.875960 0.125889
C20   C     C_R   0.512670 0.055166 0.875979 0.125638
C21   C     C_R   0.945015 0.486193 0.124008 0.126367
C22   C     C_R   0.488109 0.055162 0.124033 0.125512
C23   C     C_R   0.054985 0.513809 0.124008 0.126375
C24   C     C_R   0.283747 0.628926 0.439241 -0.120573
C25   C     C_R   0.511895 0.944840 0.124033 0.125521
C26   C     C_R   0.447580 0.016669 0.340203 -0.189724
C27   C     C_R   0.986988 0.446380 0.340140 -0.191128
C28   C     C_R   0.552420 0.983332 0.340203 -0.189723
C29   C     C_R   0.013013 0.553618 0.340140 -0.191127
C30   C     C_R   0.453985 0.969112 0.659381 -0.184148
C31   C     C_R   0.988313 0.553718 0.659883 -0.191448
C32   C     C_R   0.546001 0.030865 0.659386 -0.184199
C33   C     C_R   0.011686 0.446284 0.659883 -0.191447
C34   C     C_R   0.946482 0.512830 0.840123 -0.191104
C35   C     C_R   0.348803 0.709770 0.542050 -0.117614
C36   C     C_R   0.487348 0.946299 0.840139 -0.191273
C37   C     C_R   0.053517 0.487171 0.840123 -0.191104
C38   C     C_R   0.512626 0.053698 0.840138 -0.191268
C39   C     C_R   0.946572 0.485917 0.159846 -0.190823
C40   C     C_R   0.487785 0.053595 0.159868 -0.191398
C41   C     C_R   0.053429 0.514083 0.159846 -0.190823
C42   C     C_R   0.512216 0.946407 0.159868 -0.191398
C43   C     C_R   0.500000 0.000001 0.322288 -0.010528
C44   C     C_R   0.000001 0.499999 0.322240 -0.007871
C45   C     C_R   0.499990 0.999990 0.677408 -0.018507
C46   C     C_R   0.718745 0.627730 0.561153 -0.122563
C47   C     C_R   0.999999 0.500001 0.677772 -0.007106
C48   C     C_R   1.000000 0.500001 0.822231 -0.007647
C49   C     C_R   0.499983 0.999998 0.822167 -0.011161
C50   C     C_R   0.000001 0.499999 0.177749 -0.008379
C51   C     C_R   0.500000 0.000001 0.177774 -0.008296
C52   C     C_R   0.500000 0.999999 0.395053 -0.109688
C53   C     C_R   1.000000 0.499999 0.395016 -0.107581
C54   C     C_R   0.500000 0.999992 0.604719 -0.105345
C55   C     C_R   0.000000 0.500000 0.605000 -0.107712
C56   C     C_R   0.999999 0.499999 0.894999 -0.107991
C57   C     C_R   0.651188 0.290224 0.542060 -0.117620
C58   C     C_R   0.499996 0.999999 0.895014 -0.107800
C59   C     C_R   1.000000 0.500001 0.104981 -0.107924
C60   C     C_R   0.500001 0.000001 0.104991 -0.107768
C61   C     C_R   0.500000 0.000001 0.215389 0.425871
C62   C     C_R   0.000001 0.499999 0.215356 0.425245
C63   C     C_R   0.499981 0.999998 0.784463 0.429364
C64   C     C_R   1.000000 0.500002 0.784636 0.424743
C65   C     C_R   0.999999 0.500001 0.715368 0.424700
C66   C     C_R   0.499984 0.999993 0.715104 0.430503
C67   C     C_R   0.000001 0.499998 0.284633 0.425196
C68   C     C_R   0.281256 0.372269 0.561153 -0.122565
C69   C     C_R   0.500000 0.000001 0.284673 0.426239
C70   C     C_R   0.413718 0.188903 0.458575 -0.212197
C71   C     C_R   0.811271 0.423167 0.452788 -0.221224
C72   C     C_R   0.586285 0.811096 0.458577 -0.212192
C73   C     C_R   0.188728 0.576832 0.452788 -0.221225
C74   C     C_R   0.400131 0.806945 0.533914 -0.233830
C75   C     C_R   0.812592 0.574879 0.547854 -0.219090
C76   C     C_R   0.599854 0.193053 0.533925 -0.233806
C77   C     C_R   0.187408 0.425122 0.547854 -0.219090
C78   C     C_R   0.922860 0.687862 0.953139 -0.218458
C79   C     C_R   0.869167 0.781622 0.940843 -0.123251
C80   C     C_R   0.310950 0.921958 0.953404 -0.220026
C81   C     C_R   0.077146 0.312137 0.953142 -0.218460
C82   C     C_R   0.689050 0.078048 0.953407 -0.220025
C83   C     C_R   0.921064 0.310698 0.046198 -0.220050
C84   C     C_R   0.312294 0.076406 0.047178 -0.218449
C85   C     C_R   0.078941 0.689303 0.046196 -0.220051
C86   C     C_R   0.687707 0.923582 0.047172 -0.218448
C87   C     C_R   0.363392 0.219465 0.444292 0.205223
C88   C     C_R   0.779357 0.378849 0.433615 0.210968
C89   C     C_R   0.636613 0.780535 0.444297 0.205220
C90   C     C_R   0.215970 0.868977 0.940759 -0.122567
C91   C     C_R   0.220642 0.621150 0.433615 0.210968
C92   C     C_R   0.349811 0.773283 0.546550 0.202948
C93   C     C_R   0.781529 0.619163 0.567109 0.211631
C94   C     C_R   0.650174 0.226712 0.546562 0.202951
C95   C     C_R   0.218472 0.380837 0.567108 0.211632
C96   C     C_R   0.877529 0.718961 0.934636 0.211367
C97   C     C_R   0.278967 0.876960 0.934752 0.211447
C98   C     C_R   0.122484 0.281038 0.934644 0.211363
C99   C     C_R   0.721033 0.123050 0.934759 0.211444
C100  C     C_R   0.875693 0.278699 0.064595 0.211264
C101  C     C_R   0.130843 0.218376 0.940851 -0.123251
C102  C     C_R   0.281165 0.121430 0.065871 0.211530
C103  C     C_R   0.124317 0.721301 0.064589 0.211264
C104  C     C_R   0.718836 0.878550 0.065859 0.211529
C105  C     C_3   0.385347 0.035176 0.391854 -0.390936
C106  C     C_3   0.344552 0.979200 0.398886 -0.772197
C107  C     C_3   0.974243 0.382371 0.391742 -0.392414
C108  C     C_3   0.033743 0.348477 0.399717 -0.765877
C109  C     C_3   0.614651 0.964819 0.391855 -0.390934
C110  C     C_3   0.655450 0.020792 0.398887 -0.772195
C111  C     C_3   0.025755 0.617628 0.391742 -0.392415
C112  C     C_R   0.881283 0.499775 0.500016 0.797714
C113  C     C_R   0.784030 0.131031 0.940766 -0.122565
C114  C     C_3   0.966255 0.651522 0.399717 -0.765879
C115  C     C_3   0.402246 0.931423 0.607114 -0.401932
C116  C     C_3   0.344013 0.969463 0.603340 -0.790937
C117  C     C_3   0.977557 0.617954 0.608309 -0.391709
C118  C     C_3   0.038065 0.650797 0.600005 -0.765457
C119  C     C_3   0.597766 0.068547 0.607126 -0.401937
C120  C     C_3   0.655995 0.030499 0.603359 -0.791017
C121  C     C_3   0.022444 0.382047 0.608309 -0.391710
C122  C     C_3   0.961937 0.349203 0.600006 -0.765463
C123  C     C_3   0.882527 0.525222 0.891720 -0.392041
C124  C     C_R   0.867878 0.215784 0.058551 -0.122339
C125  C     C_3   0.847922 0.465646 0.899754 -0.766669
C126  C     C_3   0.473579 0.882536 0.891757 -0.391949
C127  C     C_3   0.532708 0.848021 0.899742 -0.766168
C128  C     C_3   0.117470 0.474770 0.891720 -0.392037
C129  C     C_3   0.152081 0.534344 0.899753 -0.766678
C130  C     C_3   0.526421 0.117460 0.891755 -0.391949
C131  C     C_3   0.467299 0.151984 0.899742 -0.766185
C132  C     C_3   0.882850 0.471626 0.108219 -0.392573
C133  C     C_3   0.847284 0.530178 0.100489 -0.766851
C134  C     C_3   0.475872 0.117582 0.108287 -0.391659
C135  C     C_R   0.218432 0.129909 0.059675 -0.123486
C136  C     C_3   0.535838 0.151513 0.100136 -0.766353
C137  C     C_3   0.117148 0.528381 0.108219 -0.392576
C138  C     C_3   0.152719 0.469832 0.100490 -0.766861
C139  C     C_3   0.524136 0.882421 0.108287 -0.391660
C140  C     C_3   0.464173 0.848485 0.100137 -0.766364
C141  C     C_3   0.701141 0.192277 0.564593 -0.421244
C142  C     C_3   0.757979 0.230435 0.573981 -0.846978
C143  C     C_3   0.817883 0.655969 0.593198 -0.431436
C144  C     C_3   0.781362 0.703208 0.613526 -0.838542
C145  C     C_3   0.298836 0.807716 0.564575 -0.421257
C146  C     C_R   0.132130 0.784217 0.058546 -0.122342
C147  C     C_3   0.241999 0.769554 0.573960 -0.846967
C148  C     C_3   0.182118 0.344031 0.593198 -0.431435
C149  C     C_3   0.218639 0.296792 0.613525 -0.838542
C150  C     C_3   0.679971 0.816704 0.421410 -0.423581
C151  C     C_3   0.737277 0.782604 0.409554 -0.843219
C152  C     C_3   0.815116 0.341329 0.407854 -0.430788
C153  C     C_3   0.777998 0.292962 0.388250 -0.840179
C154  C     C_3   0.320035 0.183296 0.421403 -0.423586
C155  C     C_3   0.262733 0.217398 0.409543 -0.843217
C156  C     C_3   0.184883 0.658669 0.407854 -0.430788
C157  C     C_R   0.781569 0.870074 0.059663 -0.123484
C158  C     C_3   0.222001 0.707035 0.388249 -0.840181
C159  C     C_3   0.162790 0.685859 0.090048 -0.429460
C160  C     C_3   0.212969 0.722779 0.108346 -0.841191
C161  C     C_3   0.317367 0.159000 0.091688 -0.430145
C162  C     C_3   0.281000 0.207680 0.111018 -0.840634
C163  C     C_3   0.837230 0.314140 0.090059 -0.429470
C164  C     C_3   0.787075 0.277213 0.108373 -0.841187
C165  C     C_3   0.682633 0.840969 0.091671 -0.430135
C166  C     C_3   0.718992 0.792259 0.110982 -0.840641
C167  C     C_3   0.160435 0.317168 0.908966 -0.429969
C168  C     C_R   0.399874 0.313356 0.470526 -0.211761
C169  C     C_3   0.209795 0.280963 0.890059 -0.840765
C170  C     C_3   0.314555 0.838972 0.909129 -0.429657
C171  C     C_3   0.277464 0.789714 0.890205 -0.840901
C172  C     C_3   0.839588 0.682831 0.908954 -0.429984
C173  C     C_3   0.790256 0.719045 0.890029 -0.840766
C174  C     C_3   0.685444 0.161041 0.909137 -0.429652
C175  C     C_3   0.722533 0.210308 0.890219 -0.840905
C176  C     C_R   0.685474 0.409316 0.461800 -0.210393
C177  C     C_R   0.600129 0.686644 0.470531 -0.211762
C178  C     C_R   0.314525 0.590683 0.461799 -0.210394
C179  C     C_R   0.397807 0.680853 0.526441 -0.214259
C180  C     C_R   0.499373 0.880860 0.500063 0.797101
C181  C     C_R   0.687327 0.590153 0.538242 -0.209752
C182  C     C_R   0.602190 0.319144 0.526446 -0.214251
C183  C     C_R   0.312674 0.409847 0.538241 -0.209750
C184  C     C_R   0.907906 0.812912 0.963213 -0.208919
C185  C     C_R   0.185307 0.907751 0.963099 -0.208959
C186  C     C_R   0.092099 0.187086 0.963217 -0.208918
C187  C     C_R   0.814693 0.092254 0.963104 -0.208961
C188  C     C_R   0.907132 0.185210 0.036435 -0.209154
C189  C     C_R   0.187102 0.091554 0.037126 -0.208625
C190  C     C_R   0.092870 0.814791 0.036432 -0.209153
C191  C     C_R   0.118717 0.500225 0.500016 0.797714
C192  C     C_R   0.812899 0.908438 0.037118 -0.208627
C193  C     C_R   0.451741 0.282962 0.483991 0.061483
C194  C     C_R   0.716875 0.456201 0.479944 0.064748
C195  C     C_R   0.548260 0.717038 0.483993 0.061480
C196  C     C_R   0.283124 0.543798 0.479944 0.064745
C197  C     C_R   0.449072 0.714500 0.513930 0.067320
C198  C     C_R   0.717732 0.542989 0.520211 0.066681
C199  C     C_R   0.550925 0.285499 0.513933 0.067317
C200  C     C_R   0.282268 0.457011 0.520211 0.066683
C201  C     C_R   0.955969 0.782442 0.980461 0.066691
C202  C     C_R   0.000220 0.618800 0.999977 0.797452
C203  C     C_R   0.216755 0.955445 0.980531 0.066211
C204  C     C_R   0.044033 0.217557 0.980463 0.066696
C205  C     C_R   0.783245 0.044558 0.980533 0.066208
C206  C     C_R   0.955112 0.216680 0.019233 0.066449
C207  C     C_R   0.217594 0.043729 0.019709 0.066574
C208  C     C_R   0.044889 0.783320 0.019232 0.066454
C209  C     C_R   0.782407 0.956267 0.019706 0.066574
C210  C     C_R   0.455849 0.218885 0.480773 0.056114
C211  C     C_R   0.781358 0.459594 0.477697 0.051611
C212  C     C_R   0.544151 0.781114 0.480775 0.056114
C213  C     C_R   0.381249 0.999784 0.000031 0.797416
C214  C     C_R   0.218642 0.540405 0.477697 0.051611
C215  C     C_R   0.449072 0.779094 0.515648 0.057098
C216  C     C_R   0.782064 0.539006 0.522698 0.051736
C217  C     C_R   0.550922 0.220904 0.515652 0.057092
C218  C     C_R   0.217936 0.460994 0.522698 0.051736
C219  C     C_R   0.959868 0.718171 0.977859 0.053065
C220  C     C_R   0.281203 0.958955 0.978100 0.052503
C221  C     C_R   0.040135 0.281828 0.977861 0.053064
C222  C     C_R   0.718797 0.041048 0.978102 0.052506
C223  C     C_R   0.958537 0.281076 0.021679 0.052874
C224  C     C_R   0.999781 0.381200 0.999976 0.797451
C225  C     C_R   0.281913 0.039781 0.022312 0.052631
C226  C     C_R   0.041464 0.718925 0.021678 0.052872
C227  C     C_R   0.718088 0.960214 0.022309 0.052632
C228  C     C_R   0.499947 0.315628 0.499822 -0.158114
C229  C     C_R   0.685303 0.499772 0.500005 -0.169376
C230  C     C_R   0.500054 0.684371 0.499822 -0.158109
C231  C     C_R   0.314697 0.500228 0.500004 -0.169377
C232  C     C_R   0.000237 0.814822 0.999944 -0.168506
C233  C     C_R   0.185214 0.999748 0.000040 -0.168925
C234  C     C_R   0.999764 0.185178 0.999945 -0.168505
C235  C     C_R   0.618751 0.000215 0.000031 0.797413
C236  C     C_R   0.814786 0.000252 0.000040 -0.168918
C237  C     C_R   0.502578 0.186977 0.498969 -0.181036
C238  C     C_R   0.814059 0.499327 0.500177 -0.172051
C239  C     C_R   0.497420 0.813023 0.498968 -0.181041
C240  C     C_R   0.185941 0.500673 0.500176 -0.172052
C241  C     C_R   0.000635 0.686107 0.999804 -0.173019
C242  C     C_R   0.313969 0.999380 0.000189 -0.172350
C243  C     C_R   0.999365 0.313892 0.999804 -0.173020
C244  C     C_R   0.686032 0.000620 0.000189 -0.172356
C245  C     C_R   0.618460 0.499975 0.499996 0.765780
C246  C     C_R   0.355939 0.281895 0.451453 -0.118568
C247  C     C_R   0.501130 0.618113 0.499980 0.774630
C248  C     C_R   0.381540 0.500025 0.499996 0.765780
C249  C     C_R   0.498871 0.381887 0.499980 0.774628
C250  C     C_R   0.118424 0.999940 0.000003 0.771404
C251  C     C_R   0.999975 0.118416 0.999994 0.770941
C252  C     C_R   0.881576 0.000060 0.000003 0.771405
C253  C     C_R   0.000024 0.881584 0.999994 0.770941
C254  C     C_R   0.500000 1.000000 0.433574 0.778149
C255  C     C_R   1.000000 0.500000 0.433569 0.772077
C256  C     C_R   0.500000 0.999998 0.566332 0.777938
Cu1   Cu    Cu3+1 0.561710 0.000000 0.500000 0.916895
Cu2   Cu    Cu3+1 0.500000 0.500000 0.465670 0.943457
Cu3   Cu    Cu3+1 0.000000 0.000000 0.034330 0.940348
Cu4   Cu    Cu3+1 0.000000 0.000000 0.965670 0.940315
Cu5   Cu    Cu3+1 0.000000 0.561710 0.500000 0.917091
Cu6   Cu    Cu3+1 0.438290 0.000000 0.500000 0.916904
Cu7   Cu    Cu3+1 1.000000 0.438290 0.500000 0.917092
Cu8   Cu    Cu3+1 0.061710 0.500000 0.000000 0.918566
Cu9   Cu    Cu3+1 0.500000 0.061710 0.000000 0.918152
Cu10  Cu    Cu3+1 0.938290 0.500000 0.000000 0.918567
Cu11  Cu    Cu3+1 0.500000 0.938290 0.000000 0.918151
Cu12  Cu    Cu3+1 0.500000 0.500000 0.534330 0.942634
H1    H     H_    0.406688 0.028815 0.325976 0.153770
H2    H     H_    0.478371 0.904433 0.825964 0.155318
H3    H     H_    0.936576 0.338908 0.623998 0.236860
H4    H     H_    0.932188 0.377581 0.583404 0.263631
H5    H     H_    0.971575 0.305312 0.586720 0.227452
H6    H     H_    0.053169 0.384724 0.585871 0.206797
H7    H     H_    0.047976 0.352332 0.626444 0.184182
H8    H     H_    0.836962 0.440927 0.875653 0.236912
H9    H     H_    0.875445 0.434939 0.916257 0.263982
H10   H     H_    0.804242 0.476355 0.913050 0.227527
H11   H     H_    0.886065 0.555458 0.914306 0.206074
H12   H     H_    0.853575 0.551802 0.873670 0.183984
H13   H     H_    0.095170 0.478137 0.825838 0.152540
H14   H     H_    0.557225 0.837089 0.875623 0.236869
H15   H     H_    0.563929 0.875539 0.916221 0.264339
H16   H     H_    0.521327 0.804395 0.913050 0.227457
H17   H     H_    0.443391 0.886020 0.914365 0.205875
H18   H     H_    0.446433 0.853630 0.873726 0.183747
H19   H     H_    0.163041 0.559062 0.875652 0.236914
H20   H     H_    0.124563 0.565052 0.916258 0.263985
H21   H     H_    0.195762 0.523631 0.913048 0.227527
H22   H     H_    0.113930 0.444535 0.914306 0.206070
H23   H     H_    0.146419 0.448187 0.873670 0.183983
H24   H     H_    0.521599 0.095564 0.825962 0.155321
H25   H     H_    0.442776 0.162913 0.875624 0.236874
H26   H     H_    0.436079 0.124475 0.916226 0.264346
H27   H     H_    0.478690 0.195612 0.913046 0.227456
H28   H     H_    0.556611 0.113971 0.914361 0.205871
H29   H     H_    0.553569 0.146359 0.873722 0.183749
H30   H     H_    0.836012 0.554191 0.124709 0.236967
H31   H     H_    0.874269 0.561991 0.084096 0.264498
H32   H     H_    0.803742 0.518248 0.087183 0.227430
H33   H     H_    0.886827 0.441904 0.085472 0.205539
H34   H     H_    0.854404 0.443840 0.126173 0.183844
H35   H     H_    0.904970 0.475876 0.174111 0.152951
H36   H     H_    0.560837 0.162225 0.124191 0.236808
H37   H     H_    0.566206 0.123693 0.083589 0.263889
H38   H     H_    0.525496 0.195234 0.086846 0.227537
H39   H     H_    0.445392 0.114373 0.085770 0.206335
H40   H     H_    0.449667 0.146791 0.126377 0.183942
H41   H     H_    0.163991 0.445820 0.124710 0.236970
H42   H     H_    0.125738 0.438018 0.084095 0.264502
H43   H     H_    0.196262 0.481766 0.087186 0.227432
H44   H     H_    0.113169 0.558102 0.085472 0.205537
H45   H     H_    0.145592 0.556170 0.126173 0.183844
H46   H     H_    0.479232 0.095316 0.174135 0.153164
H47   H     H_    0.439175 0.837773 0.124192 0.236810
H48   H     H_    0.433803 0.876301 0.083588 0.263893
H49   H     H_    0.474518 0.804763 0.086847 0.227538
H50   H     H_    0.554615 0.885632 0.085769 0.206332
H51   H     H_    0.550345 0.853215 0.126377 0.183941
H52   H     H_    0.778314 0.251853 0.550781 0.254161
H53   H     H_    0.746030 0.266370 0.592921 0.250301
H54   H     H_    0.792960 0.200154 0.585680 0.245671
H55   H     H_    0.682195 0.171909 0.588391 0.206452
H56   H     H_    0.716304 0.154099 0.547827 0.204591
H57   H     H_    0.095031 0.524124 0.174111 0.152952
H58   H     H_    0.761972 0.738420 0.596167 0.250084
H59   H     H_    0.743931 0.680352 0.628179 0.253330
H60   H     H_    0.812400 0.726694 0.631966 0.246021
H61   H     H_    0.838673 0.623478 0.611692 0.201697
H62   H     H_    0.855745 0.680536 0.579759 0.201965
H63   H     H_    0.221671 0.748130 0.550761 0.254161
H64   H     H_    0.253948 0.733624 0.592903 0.250299
H65   H     H_    0.207013 0.799833 0.585655 0.245672
H66   H     H_    0.317773 0.828090 0.588373 0.206476
H67   H     H_    0.283672 0.845889 0.547805 0.204574
H68   H     H_    0.520770 0.904686 0.174135 0.153164
H69   H     H_    0.238028 0.261580 0.596165 0.250085
H70   H     H_    0.256070 0.319646 0.628177 0.253330
H71   H     H_    0.187601 0.273305 0.631965 0.246021
H72   H     H_    0.161329 0.376522 0.611692 0.201696
H73   H     H_    0.144255 0.319465 0.579759 0.201965
H74   H     H_    0.764508 0.766993 0.431889 0.251918
H75   H     H_    0.724301 0.742765 0.393309 0.250718
H76   H     H_    0.766491 0.814019 0.394066 0.245934
H77   H     H_    0.654129 0.831494 0.398413 0.197125
H78   H     H_    0.695348 0.858579 0.435325 0.205647
H79   H     H_    0.420242 0.141867 0.451100 0.140270
H80   H     H_    0.757976 0.258664 0.406151 0.250442
H81   H     H_    0.740996 0.314958 0.373152 0.252863
H82   H     H_    0.808781 0.268566 0.370256 0.245870
H83   H     H_    0.835970 0.373277 0.388917 0.201206
H84   H     H_    0.852917 0.317580 0.421458 0.202293
H85   H     H_    0.235498 0.233010 0.431877 0.251918
H86   H     H_    0.275714 0.257235 0.393299 0.250718
H87   H     H_    0.233521 0.185983 0.394054 0.245934
H88   H     H_    0.345882 0.168504 0.398408 0.197127
H89   H     H_    0.304655 0.141422 0.435318 0.205647
H90   H     H_    0.859605 0.429165 0.447444 0.139330
H91   H     H_    0.242023 0.741334 0.406150 0.250442
H92   H     H_    0.259001 0.685039 0.373151 0.252863
H93   H     H_    0.191217 0.731431 0.370255 0.245871
H94   H     H_    0.164028 0.626721 0.388916 0.201206
H95   H     H_    0.147081 0.682419 0.421458 0.202292
H96   H     H_    0.246331 0.741874 0.089592 0.250558
H97   H     H_    0.192450 0.760394 0.123598 0.252411
H98   H     H_    0.238191 0.692175 0.126069 0.245963
H99   H     H_    0.131583 0.666265 0.109769 0.200068
H100  H     H_    0.185124 0.647207 0.076458 0.203247
H101  H     H_    0.579759 0.858131 0.451101 0.140268
H102  H     H_    0.262200 0.242094 0.092969 0.250021
H103  H     H_    0.243144 0.185994 0.125876 0.252982
H104  H     H_    0.311980 0.231884 0.129202 0.245942
H105  H     H_    0.337270 0.127121 0.110805 0.200790
H106  H     H_    0.355874 0.182441 0.078193 0.202583
H107  H     H_    0.753696 0.258112 0.089629 0.250551
H108  H     H_    0.807616 0.239602 0.123618 0.252418
H109  H     H_    0.761867 0.307814 0.126104 0.245963
H110  H     H_    0.868447 0.333747 0.109771 0.200070
H111  H     H_    0.814876 0.352782 0.076470 0.203247
H112  H     H_    0.977808 0.404651 0.325865 0.152803
H113  H     H_    0.140394 0.570834 0.447444 0.139331
H114  H     H_    0.737784 0.757863 0.092919 0.250028
H115  H     H_    0.756854 0.813921 0.125847 0.252973
H116  H     H_    0.688009 0.768040 0.129157 0.245941
H117  H     H_    0.662746 0.872837 0.110798 0.200786
H118  H     H_    0.644114 0.817551 0.078173 0.202586
H119  H     H_    0.243863 0.262369 0.908397 0.250156
H120  H     H_    0.188590 0.243036 0.875073 0.252824
H121  H     H_    0.234374 0.311926 0.872030 0.245983
H122  H     H_    0.128789 0.336683 0.889595 0.200526
H123  H     H_    0.183418 0.355875 0.922499 0.202873
H124  H     H_    0.398937 0.854990 0.538943 0.159389
H125  H     H_    0.258034 0.755836 0.908547 0.250336
H126  H     H_    0.240016 0.810944 0.875104 0.252657
H127  H     H_    0.308111 0.764992 0.872278 0.245950
H128  H     H_    0.334772 0.870516 0.889775 0.200300
H129  H     H_    0.352854 0.815977 0.922711 0.202844
H130  H     H_    0.756172 0.737648 0.908355 0.250151
H131  H     H_    0.811486 0.756966 0.875049 0.252833
H132  H     H_    0.765691 0.688085 0.871992 0.245985
H133  H     H_    0.871243 0.663301 0.889593 0.200530
H134  H     H_    0.816583 0.644136 0.922485 0.202873
H135  H     H_    0.860731 0.568364 0.553342 0.138628
H136  H     H_    0.741960 0.244180 0.908565 0.250339
H137  H     H_    0.759983 0.189086 0.875117 0.252654
H138  H     H_    0.691885 0.235034 0.872294 0.245950
H139  H     H_    0.665232 0.129501 0.889780 0.200294
H140  H     H_    0.647141 0.184030 0.922720 0.202848
H141  H     H_    0.601039 0.145009 0.538957 0.159367
H142  H     H_    0.139270 0.431637 0.553342 0.138627
H143  H     H_    0.929308 0.639904 0.947379 0.138629
H144  H     H_    0.359169 0.928073 0.947795 0.139071
H145  H     H_    0.070699 0.360094 0.947381 0.138629
H146  H     H_    0.640831 0.071934 0.947798 0.139074
H147  H     H_    0.927092 0.358821 0.051871 0.138976
H148  H     H_    0.593312 0.971187 0.325976 0.153771
H149  H     H_    0.360338 0.069909 0.052888 0.138582
H150  H     H_    0.072914 0.641180 0.051869 0.138976
H151  H     H_    0.639664 0.930079 0.052883 0.138587
H152  H     H_    0.317570 0.307532 0.441529 0.148881
H153  H     H_    0.689726 0.336491 0.425864 0.148618
H154  H     H_    0.682437 0.692469 0.441536 0.148882
H155  H     H_    0.310273 0.663507 0.425864 0.148618
H156  H     H_    0.311007 0.681596 0.551010 0.150142
H157  H     H_    0.692966 0.662489 0.574491 0.148166
H158  H     H_    0.688984 0.318397 0.551022 0.150141
H159  H     H_    0.022193 0.595346 0.325866 0.152803
H160  H     H_    0.307035 0.337511 0.574490 0.148166
H161  H     H_    0.833750 0.807428 0.928055 0.148016
H162  H     H_    0.189447 0.833837 0.927837 0.148065
H163  H     H_    0.166262 0.192570 0.928065 0.148017
H164  H     H_    0.810553 0.166173 0.927845 0.148064
H165  H     H_    0.832529 0.189242 0.071303 0.148108
H166  H     H_    0.192610 0.165150 0.072586 0.147993
H167  H     H_    0.167480 0.810759 0.071296 0.148109
H168  H     H_    0.807392 0.834831 0.072571 0.147993
H169  H     H_    0.392825 0.361944 0.474324 0.143524
H170  H     H_    0.417965 0.945287 0.673335 0.158231
H171  H     H_    0.636762 0.401170 0.464806 0.158137
H172  H     H_    0.607179 0.638056 0.474329 0.143517
H173  H     H_    0.363238 0.598829 0.464805 0.158141
H174  H     H_    0.394436 0.631560 0.524136 0.149112
H175  H     H_    0.638934 0.598987 0.534849 0.154254
H176  H     H_    0.605564 0.368437 0.524139 0.149110
H177  H     H_    0.361066 0.401012 0.534848 0.154255
H178  H     H_    0.899365 0.861272 0.966810 0.153848
H179  H     H_    0.136666 0.899496 0.966544 0.154928
H180  H     H_    0.100638 0.138727 0.966815 0.153846
H181  H     H_    0.980194 0.595500 0.674179 0.152411
H182  H     H_    0.863335 0.100508 0.966548 0.154922
H183  H     H_    0.899035 0.136609 0.032981 0.154419
H184  H     H_    0.138709 0.100226 0.033513 0.154240
H185  H     H_    0.100966 0.863392 0.032979 0.154419
H186  H     H_    0.861293 0.899768 0.033506 0.154234
H187  H     H_    0.331581 0.956733 0.374411 0.238105
H188  H     H_    0.368377 0.945147 0.415138 0.265288
H189  H     H_    0.301995 0.993894 0.412102 0.226878
H190  H     H_    0.391769 0.063532 0.414957 0.203470
H191  H     H_    0.359807 0.065640 0.374130 0.182183
H192  H     H_    0.582018 0.054688 0.673343 0.158240
H193  H     H_    0.058367 0.337813 0.375593 0.236921
H194  H     H_    0.064690 0.376303 0.416195 0.264165
H195  H     H_    0.022827 0.304730 0.413020 0.227299
H196  H     H_    0.944039 0.385542 0.414355 0.206173
H197  H     H_    0.947419 0.353175 0.373707 0.184075
H198  H     H_    0.668424 0.043257 0.374412 0.238103
H199  H     H_    0.631628 0.054848 0.415138 0.265289
H200  H     H_    0.698005 0.006095 0.412103 0.226877
H201  H     H_    0.608228 0.936464 0.414957 0.203468
H202  H     H_    0.640188 0.934353 0.374130 0.182182
H203  H     H_    0.019805 0.404502 0.674179 0.152412
H204  H     H_    0.941631 0.662183 0.375593 0.236922
H205  H     H_    0.935309 0.623696 0.416195 0.264165
H206  H     H_    0.977170 0.695269 0.413019 0.227299
H207  H     H_    0.055960 0.614458 0.414355 0.206174
H208  H     H_    0.052579 0.646824 0.373708 0.184075
H209  H     H_    0.325820 0.981793 0.628939 0.243150
H210  H     H_    0.353405 0.012245 0.588805 0.268868
H211  H     H_    0.308407 0.942494 0.589520 0.224579
H212  H     H_    0.417045 0.913074 0.582318 0.201196
H213  H     H_    0.391508 0.890293 0.622914 0.186869
H214  H     H_    0.904829 0.521864 0.825838 0.152539
H215  H     H_    0.063425 0.661094 0.623998 0.236857
H216  H     H_    0.067814 0.622417 0.583405 0.263629
H217  H     H_    0.028427 0.694687 0.586718 0.227451
H218  H     H_    0.946832 0.615278 0.585871 0.206796
H219  H     H_    0.952025 0.647670 0.626443 0.184181
H220  H     H_    0.674108 0.018056 0.628958 0.243205
H221  H     H_    0.646628 0.987781 0.588760 0.268884
H222  H     H_    0.691654 0.057510 0.589605 0.224586
H223  H     H_    0.582984 0.086904 0.582329 0.201199
H224  H     H_    0.608505 0.109672 0.622931 0.186876
N1    N     N_R   0.536345 0.960826 0.267036 -0.242446
N2    N     N_R   0.530941 0.044034 0.766788 -0.243999
N3    N     N_R   0.962464 0.538050 0.767008 -0.241792
N4    N     N_R   0.469022 0.955959 0.766788 -0.243998
N5    N     N_R   0.037872 0.538337 0.232989 -0.242053
N6    N     N_R   0.536129 0.960626 0.233026 -0.242436
N7    N     N_R   0.962131 0.461660 0.232988 -0.242053
N8    N     N_R   0.463872 0.039376 0.233026 -0.242435
N9    N     N_R   0.037650 0.538555 0.267001 -0.242023
N10   N     N_R   0.463656 0.039177 0.267036 -0.242446
N11   N     N_R   0.962353 0.461442 0.267000 -0.242024
N12   N     N_R   0.531101 0.043920 0.732778 -0.244005
N13   N     N_R   0.037303 0.461726 0.732996 -0.241760
N14   N     N_R   0.468865 0.956069 0.732779 -0.244004
N15   N     N_R   0.962696 0.538277 0.732996 -0.241760
N16   N     N_R   0.037535 0.461953 0.767007 -0.241793
O1    O     O_R   0.552090 0.090090 0.500110 -0.595411
O2    O     O_R   0.409910 0.052090 0.000110 -0.585922
O3    O     O_R   0.947910 0.409910 0.000110 -0.586946
O4    O     O_R   0.590090 0.947910 0.000110 -0.585924
O5    O     O_R   0.052090 0.409910 0.999890 -0.586030
O6    O     O_R   0.409910 0.947910 0.999890 -0.586777
O7    O     O_R   0.947910 0.590090 0.999890 -0.586030
O8    O     O_R   0.590090 0.052090 0.999890 -0.586777
O9    O     O_R   0.552090 0.999930 0.450180 -0.582663
O10   O     O_R   0.000070 0.552090 0.450180 -0.583069
O11   O     O_R   0.447910 0.000070 0.450180 -0.582664
O12   O     O_R   0.909910 0.552090 0.500110 -0.585860
O13   O     O_R   0.999930 0.447910 0.450180 -0.583068
O14   O     O_R   0.552090 0.000070 0.549820 -0.580627
O15   O     O_R   0.000070 0.447910 0.549820 -0.583322
O16   O     O_R   0.447910 0.999930 0.549820 -0.580589
O17   O     O_R   0.999930 0.552090 0.549820 -0.583322
O18   O     O_R   0.052090 0.499930 0.950180 -0.583265
O19   O     O_R   0.500070 0.052090 0.950180 -0.582965
O20   O     O_R   0.947910 0.500070 0.950180 -0.583265
O21   O     O_R   0.499930 0.947910 0.950180 -0.582964
O22   O     O_R   0.052090 0.500070 0.049820 -0.582994
O23   O     O_R   0.447910 0.909910 0.500110 -0.595421
O24   O     O_R   0.500070 0.947910 0.049820 -0.583239
O25   O     O_R   0.947910 0.499930 0.049820 -0.582993
O26   O     O_R   0.499930 0.052090 0.049820 -0.583238
O27   O     O_R   0.590060 0.499930 0.529020 -0.586312
O28   O     O_R   0.500070 0.590060 0.529020 -0.586597
O29   O     O_R   0.409940 0.500070 0.529020 -0.586309
O30   O     O_R   0.499930 0.409940 0.529020 -0.586595
O31   O     O_R   0.590060 0.500070 0.470980 -0.585805
O32   O     O_R   0.500070 0.409940 0.470980 -0.585330
O33   O     O_R   0.409940 0.499930 0.470980 -0.585807
O34   O     O_R   0.090090 0.447910 0.500110 -0.585859
O35   O     O_R   0.499930 0.590060 0.470980 -0.585329
O36   O     O_R   0.090060 0.999930 0.029020 -0.586724
O37   O     O_R   0.000070 0.090060 0.029020 -0.586270
O38   O     O_R   0.909940 0.000070 0.029020 -0.586723
O39   O     O_R   0.999930 0.909940 0.029020 -0.586268
O40   O     O_R   0.090060 0.000070 0.970980 -0.586340
O41   O     O_R   0.000070 0.909940 0.970980 -0.586717
O42   O     O_R   0.909940 0.999930 0.970980 -0.586340
O43   O     O_R   0.999930 0.090060 0.970980 -0.586715
O44   O     O_R   0.552090 0.909910 0.499890 -0.584022
O45   O     O_R   0.909910 0.447910 0.499890 -0.587380
O46   O     O_R   0.447910 0.090090 0.499890 -0.584021
O47   O     O_R   0.090090 0.552090 0.499890 -0.587381
O48   O     O_R   0.052090 0.590090 0.000110 -0.586947

loop_
_geom_bond_atom_site_label_1
_geom_bond_atom_site_label_2
_ccdc_geom_bond_type
C166  H116  S    
N4    N14   A    
C126  C127  S    
C162  H102  S    
C200  C218  A    
C32   C45   A    
C7    C60   S    
C30   C45   A    
C218  C240  A    
C104  C157  A    
C198  C216  A    
C15   C32   A    
C197  C230  A    
C29   H159  S    
C124  H165  S    
C46   C181  A    
C254  O11   A    
C21   C59   A    
C137  H45   S    
C22   C60   A    
C184  H178  S    
C84   C225  A    
C143  C144  S    
C130  H28   S    
C8    C26   A    
C79   C184  A    
C131  H25   S    
C62   N5    A    
C106  H188  S    
C57   H158  S    
C160  H96   S    
C74   C92   A    
C61   N6    A    
Cu7   O13   S    
C147  H64   S    
C204  C234  A    
C19   C37   A    
C76   C94   A    
C18   C58   A    
C128  H23   S    
Cu8   O48   S    
C78   C96   A    
C153  H81   S    
C25   C60   A    
C118  H215  S    
C112  O45   A    
C85   C103  A    
C175  H138  S    
Cu12  O29   S    
C12   C115  S    
C83   C223  A    
C4    C56   S    
C106  H189  S    
C68   H160  S    
C93   C143  S    
C73   H113  S    
Cu1   O1    S    
C233  C250  S    
C174  H139  S    
C139  H51   S    
C152  H84   S    
C116  H210  S    
C6    O22   A    
C68   C95   A    
C232  C253  S    
C15   C54   A    
C69   N10   A    
C201  C219  A    
C164  H107  S    
C180  C239  S    
C225  C242  A    
C219  C241  A    
C224  O3    A    
C100  C124  A    
C170  H129  S    
C214  C240  A    
C159  H100  S    
C21   C132  S    
C42   H68   S    
C78   C219  A    
C26   H1    S    
C76   C217  A    
Cu12  O27   S    
C73   C91   A    
C154  C155  S    
C144  H59   S    
C179  H174  S    
C122  H3    S    
C208  C232  A    
C89   C150  S    
C166  H114  S    
C109  H201  S    
C83   C100  A    
C29   C44   A    
Cu6   O16   S    
Cu5   O10   S    
C33   C47   A    
C73   C214  A    
C105  H191  S    
C34   C48   A    
C160  H97   S    
C250  O40   A    
C75   C93   A    
C228  C249  S    
C173  H131  S    
C250  O36   A    
C177  C195  A    
C120  H222  S    
C54   C256  S    
C182  C199  A    
C254  O9    A    
C139  C140  S    
Cu2   O31   S    
C82   C222  A    
C117  H219  S    
Cu5   O17   S    
C23   C41   A    
C216  C238  A    
C61   N8    A    
C156  C158  S    
C130  C131  S    
Cu5   O47   S    
C142  H52   S    
C79   C96   A    
C167  H123  S    
C138  H43   S    
C6    O25   A    
C99   C174  S    
C69   N1    A    
C102  C161  S    
C164  H108  S    
C143  H61   S    
C185  H179  S    
C100  C163  S    
C123  H11   S    
C148  H72   S    
C158  H93   S    
C209  C236  A    
C212  C239  A    
C48   C64   S    
C71   C88   A    
C136  H38   S    
C247  O35   A    
C63   N4    A    
C36   H2    S    
Cu3   O38   S    
C19   C56   A    
C32   H192  S    
C253  O41   A    
C171  H127  S    
C77   H142  S    
C169  H120  S    
C84   C102  A    
C19   C128  S    
Cu9   O2    S    
C14   C31   A    
Cu2   Cu12  S    
C128  C129  S    
C163  H111  S    
C164  H109  S    
C167  C169  S    
C23   C59   A    
C107  H196  S    
C125  H9    S    
C5    C58   S    
C112  O12   A    
C113  H164  S    
C145  H66   S    
C150  H77   S    
C187  H182  S    
C174  C175  S    
C5    O21   A    
C125  H10   S    
C115  C116  S    
C149  H70   S    
C10   C109  S    
C256  O14   A    
C102  C135  A    
Cu11  O21   S    
C159  H99   S    
C208  C226  A    
C104  C165  S    
C3    C55   S    
C27   C44   A    
Cu1   O14   S    
C135  H166  S    
C149  H69   S    
C108  H193  S    
C141  H56   S    
Cu5   O12   S    
Cu8   O18   S    
C133  H30   S    
C107  H197  S    
C199  C228  A    
C8    C52   A    
C3    O17   A    
C251  O43   A    
C128  H22   S    
C14   C55   A    
C43   C69   S    
Cu10  O20   S    
C202  O7    A    
C86   C227  A    
C236  C252  S    
C70   C87   A    
C57   C182  A    
C146  H167  S    
C201  C232  A    
C35   C179  A    
Cu11  O24   S    
N3    N15   A    
C129  H19   S    
C81   H145  S    
Cu4   O41   S    
C223  C243  A    
C227  C244  A    
C124  C188  A    
C138  H41   S    
C1    C237  S    
C140  H47   S    
C178  C196  A    
C97   C170  S    
C158  H91   S    
C176  H171  S    
C65   N13   A    
C196  C214  A    
C110  H199  S    
C14   C117  S    
C187  C205  A    
C63   N2    A    
C181  H175  S    
C161  H106  S    
Cu9   Cu11  S    
C17   C56   A    
C108  H194  S    
C165  H117  S    
C171  H125  S    
C180  O23   A    
C168  C193  A    
C126  H18   S    
C141  H55   S    
C70   C210  A    
C78   H143  S    
C20   C58   A    
C217  C237  A    
C76   H141  S    
C144  H58   S    
C207  C233  A    
C221  C243  A    
C247  O28   A    
C64   N3    A    
C184  C201  A    
C162  H103  S    
C178  H173  S    
C6    C59   S    
C234  C251  S    
C224  C243  S    
C9    C107  S    
C40   C51   A    
C209  C227  A    
C183  C200  A    
C57   C94   A    
C256  O16   A    
C195  C212  A    
C137  H44   S    
C117  C118  S    
C180  O44   A    
C85   H150  S    
C246  H152  S    
C172  H134  S    
C108  H195  S    
C50   C62   S    
C183  H177  S    
C248  O29   A    
C133  H32   S    
C15   C119  S    
C80   H144  S    
C151  H76   S    
C4    O18   A    
Cu9   O26   S    
Cu8   O22   S    
C157  H168  S    
C3    O15   A    
C249  O30   A    
C127  H15   S    
C152  C153  S    
C7    O24   A    
Cu9   O8    S    
C150  C151  S    
C44   C67   S    
C31   C47   A    
C255  O13   A    
C118  H216  S    
C230  C247  S    
C101  C186  A    
Cu12  O30   S    
Cu2   O35   S    
C251  O37   A    
C37   H13   S    
C74   C215  A    
C82   C99   A    
C117  H218  S    
C191  O47   A    
C199  C217  A    
Cu4   O43   S    
Cu3   O39   S    
C10   C52   A    
C161  C162  S    
C198  C229  A    
C38   C49   A    
C140  H49   S    
C2    H153  S    
C188  C206  A    
C165  C166  S    
C203  C220  A    
N5    N9    A    
C127  H14   S    
C119  H223  S    
C25   C139  S    
C142  H53   S    
C65   N15   A    
C70   H79   S    
C80   C97   A    
C123  C125  S    
C81   C98   A    
C114  H205  S    
C113  C187  A    
C205  C222  A    
C191  C240  S    
Cu8   O5    S    
C52   C254  S    
C163  C164  S    
C71   C211  A    
C155  H86   S    
Cu12  O28   S    
C90   C97   A    
C144  H60   S    
C46   H157  S    
C122  H4    S    
C35   C92   A    
C166  H115  S    
C86   C104  A    
C132  H34   S    
C8    C105  S    
C194  C229  A    
C105  H190  S    
C160  H98   S    
C145  C147  S    
C252  O38   A    
Cu7   O45   S    
C186  H180  S    
C173  H130  S    
C156  H95   S    
C11   C111  S    
Cu1   Cu6   S    
C210  C237  A    
C83   H147  S    
C193  C228  A    
C122  H5    S    
C147  H65   S    
C175  H136  S    
Cu2   O32   S    
C86   H151  S    
C220  C242  A    
C84   H149  S    
Cu10  O3    S    
C190  H185  S    
C106  H187  S    
C151  H74   S    
C4    O20   A    
C16   C121  S    
Cu4   O40   S    
C249  O32   A    
C213  O6    A    
C79   H161  S    
C159  C160  S    
C120  H220  S    
C38   H24   S    
Cu11  O4    S    
C33   H203  S    
C211  C238  A    
C153  H82   S    
C66   N12   A    
C121  C122  S    
C18   C126  S    
Cu2   O33   S    
Cu1   O9    S    
N1    N6    A    
C235  O4    A    
C110  H198  S    
C9    C53   A    
Cu3   O37   S    
C41   C50   A    
C28   H148  S    
C9    C27   A    
C152  H83   S    
C10   C28   A    
C116  H209  S    
C213  C242  S    
C12   C30   A    
C123  H12   S    
C67   N11   A    
C205  C236  A    
C74   H124  S    
C25   C42   A    
C99   C113  A    
C119  C120  S    
C136  H36   S    
C90   C185  A    
C192  H186  S    
C98   C101  A    
C81   C221  A    
C105  C106  S    
C28   C43   A    
C206  C234  A    
C185  C203  A    
Cu11  O6    S    
C150  H78   S    
C157  C192  A    
Cu7   O34   S    
C109  C110  S    
C148  H73   S    
C30   H170  S    
C253  O39   A    
C111  H207  S    
C189  C207  A    
C13   C177  A    
N8    N10   A    
C111  C114  S    
C235  C244  S    
C40   H46   S    
C114  H204  S    
C115  H212  S    
C91   C156  S    
C24   H155  S    
C192  C209  A    
C131  H26   S    
Cu8   Cu10  S    
C109  H202  S    
C170  C171  S    
N2    N12   A    
C224  O5    A    
C53   C255  S    
C176  C194  A    
C18   C36   A    
C72   H101  S    
C12   C54   A    
C36   C49   A    
C125  H8    S    
C173  H132  S    
C168  C246  A    
C68   C183  A    
Cu10  O25   S    
C49   C63   S    
C120  H221  S    
C231  C248  S    
C51   C61   S    
C255  O10   A    
C66   N14   A    
C147  H63   S    
C35   H156  S    
C193  C210  A    
C245  O27   A    
C182  H176  S    
C22   C134  S    
C111  H208  S    
C41   H57   S    
C71   H90   S    
Cu4   O42   S    
C203  C233  A    
C138  H42   S    
C77   C218  A    
C101  H163  S    
C170  H128  S    
C140  H48   S    
C75   C216  A    
C143  H62   S    
C39   H35   S    
C158  H92   S    
C169  H119  S    
C135  C189  A    
C2    C176  A    
C194  C211  A    
C121  H6    S    
C136  H37   S    
C207  C225  A    
C110  H200  S    
C195  C230  A    
C154  H88   S    
C132  C133  S    
C27   H112  S    
C161  H105  S    
Cu6   O11   S    
C200  C231  A    
C177  H172  S    
C90   H162  S    
C202  O48   A    
C98   C167  S    
C11   C53   A    
C42   C51   A    
C127  H16   S    
C139  H50   S    
C134  H40   S    
C116  H211  S    
C172  H133  S    
Cu9   O19   S    
C129  H21   S    
C88   C152  S    
C155  H87   S    
C13   H154  S    
C181  C198  A    
C17   C123  S    
C26   C43   A    
C154  H89   S    
Cu3   O36   S    
C87   C154  S    
C245  O31   A    
C130  H29   S    
C162  H104  S    
C145  H67   S    
C148  C149  S    
C67   N9    A    
C168  H169  S    
Cu6   O46   S    
Cu5   Cu7   S    
C222  C244  A    
C226  C241  A    
C134  C136  S    
C179  C197  A    
C191  O34   A    
C202  C241  S    
C77   C95   A    
C149  H71   S    
C156  H94   S    
C121  H7    S    
C16   C33   A    
C20   C38   A    
C72   C212  A    
C21   C39   A    
C196  C231  A    
C206  C223  A    
C107  C108  S    
C22   C40   A    
C133  H31   S    
C131  H27   S    
C62   N7    A    
C134  H39   S    
C151  H75   S    
C37   C48   A    
Cu7   O15   S    
Cu6   O23   S    
C252  O42   A    
C190  C208  A    
C34   H214  S    
C115  H213  S    
N7    N11   A    
C96   C172  S    
C82   H146  S    
C2    C88   A    
C189  H184  S    
C118  H217  S    
Cu3   Cu4   S    
C24   C91   A    
C186  C204  A    
C172  C173  S    
C87   C246  A    
N13   N16   A    
Cu1   O44   S    
C13   C89   A    
C92   C145  S    
C64   N16   A    
C94   C141  S    
C23   C137  S    
C129  H20   S    
C146  C190  A    
C95   C148  S    
C188  H183  S    
C20   C130  S    
C235  O8    A    
C153  H80   S    
C167  H122  S    
C197  C215  A    
C80   C220  A    
C174  H140  S    
C7    O26   A    
C137  C138  S    
C112  C238  S    
C132  H33   S    
C119  H224  S    
C169  H121  S    
C142  H54   S    
C16   C55   A    
C229  C245  S    
C141  C142  S    
C24   C178  A    
C72   C89   A    
C103  C159  S    
C213  O2    A    
C248  O33   A    
C46   C93   A    
C114  H206  S    
C1    O1    A    
C5    O19   A    
C175  H137  S    
C1    O46   A    
C39   C50   A    
C215  C239  A    
C165  H118  S    
C11   C29   A    
C171  H126  S    
C17   C34   A    
C126  H17   S    
C45   C66   S    
C31   H181  S    
Cu10  O7    S    
C155  H85   S    
C85   C226  A    
C75   H135  S    
C47   C65   S    
C163  H110  S    
C103  C146  A    
C204  C221  A    
