data_mof_unit_59507.cif
_audit_creation_date              2012-12-10T16:38:03-0500
_audit_creation_method            fapswitch 2.2
_symmetry_space_group_name_H-M    P1
_symmetry_Int_Tables_number       1
_space_group_crystal_system       triclinic
_cell_length_a                    28.089517
_cell_length_b                    18.458373
_cell_length_c                    16.952931
_cell_angle_alpha                 90.464897
_cell_angle_beta                  60.691902
_cell_angle_gamma                 90.130212
_cell_volume                      7664.50118182

loop_
_atom_site_label
_atom_site_type_symbol
_atom_type_description
_atom_site_fract_x
_atom_site_fract_y
_atom_site_fract_z
_atom_type_partial_charge
C1    C     C_R   0.699646 0.263196 0.676763 0.937995
C2    C     C_R   0.093607 0.501095 0.519892 0.066612
C3    C     C_R   0.201797 0.199069 0.895629 -0.002478
C4    C     C_R   0.609723 0.317459 0.049404 -0.296291
C5    C     C_R   0.379097 0.666932 0.951873 -0.303837
C6    C     C_R   0.389476 0.321106 0.946470 -0.324488
C7    C     C_R   0.665922 0.590832 0.983035 -0.314276
C8    C     C_R   0.109712 0.817427 0.049405 -0.296527
C9    C     C_R   0.879079 0.166885 0.951878 -0.303683
C10   C     C_R   0.889481 0.821102 0.946467 -0.324492
C11   C     C_R   0.165928 0.090816 0.983030 -0.314299
C12   C     C_R   0.637476 0.299607 0.095548 0.420965
C13   C     C_R   0.404514 0.997775 0.485641 0.069098
C14   C     C_R   0.349574 0.679067 0.906077 0.459611
C15   C     C_R   0.360288 0.308746 0.899250 0.480399
C16   C     C_R   0.694704 0.603461 0.030680 0.484683
C17   C     C_R   0.137449 0.799523 0.095562 0.420973
C18   C     C_R   0.849539 0.178975 0.906102 0.459915
C19   C     C_R   0.860297 0.808733 0.899240 0.480373
C20   C     C_R   0.194716 0.103442 0.030666 0.484690
C21   C     C_R   0.736406 0.177927 0.794597 0.473882
C22   C     C_R   0.239200 0.792413 0.215009 0.437664
C23   C     C_R   0.265776 0.176930 0.197284 0.458479
C24   C     C_R   0.593608 0.001096 0.519890 0.066670
C25   C     C_R   0.740807 0.805184 0.803479 0.463467
C26   C     C_R   0.236414 0.677960 0.794576 0.474211
C27   C     C_R   0.739234 0.292472 0.214980 0.437636
C28   C     C_R   0.765773 0.676939 0.197287 0.458493
C29   C     C_R   0.240795 0.305181 0.803494 0.463580
C30   C     C_R   0.768500 0.167069 0.837675 -0.331054
C31   C     C_R   0.215574 0.807293 0.161858 -0.276112
C32   C     C_R   0.236419 0.162000 0.151250 -0.291175
C33   C     C_R   0.774355 0.815187 0.842695 -0.251607
C34   C     C_R   0.268579 0.667182 0.837546 -0.331100
C35   C     C_R   0.119051 0.383598 0.444851 -0.245607
C36   C     C_R   0.715619 0.307372 0.161815 -0.276259
C37   C     C_R   0.736411 0.662016 0.151258 -0.291200
C38   C     C_R   0.274344 0.315186 0.842706 -0.251521
C39   C     C_R   0.079767 0.090885 0.928381 0.927838
C40   C     C_R   0.927624 0.897509 0.063793 0.909501
C41   C     C_R   0.926322 0.101704 0.064762 0.924418
C42   C     C_R   0.071935 0.896959 0.935909 0.889544
C43   C     C_R   0.579764 0.590894 0.928385 0.927809
C44   C     C_R   0.427624 0.397510 0.063793 0.909503
C45   C     C_R   0.426323 0.601705 0.064761 0.924392
C46   C     C_R   0.878650 0.615210 0.560715 -0.251021
C47   C     C_R   0.571936 0.396960 0.935907 0.889545
C48   C     C_R   0.521222 0.119324 0.584312 0.107682
C49   C     C_R   0.476334 0.878964 0.423212 0.111545
C50   C     C_R   0.424760 0.115613 0.571996 0.093329
C51   C     C_R   0.572134 0.882259 0.436474 0.106286
C52   C     C_R   0.021225 0.619327 0.584302 0.107806
C53   C     C_R   0.976330 0.378959 0.423224 0.111343
C54   C     C_R   0.924765 0.615618 0.571983 0.093326
C55   C     C_R   0.072129 0.382253 0.436488 0.106467
C56   C     C_R   0.483404 0.176405 0.619935 -0.197225
C57   C     C_R   0.928318 0.377543 0.417468 -0.243603
C58   C     C_R   0.513810 0.821580 0.388290 -0.216509
C59   C     C_R   0.435302 0.174289 0.614507 -0.190140
C60   C     C_R   0.561619 0.823466 0.394262 -0.214741
C61   C     C_R   0.983410 0.676413 0.619917 -0.197235
C62   C     C_R   0.013804 0.321573 0.388306 -0.216788
C63   C     C_R   0.935310 0.674297 0.614486 -0.190088
C64   C     C_R   0.061613 0.323459 0.394279 -0.214680
C65   C     C_R   0.461935 0.057599 0.537426 0.029053
C66   C     C_R   0.534915 0.940159 0.471608 0.028771
C67   C     C_R   0.509807 0.059104 0.544478 0.022598
C68   C     C_R   0.070241 0.621510 0.587484 -0.258251
C69   C     C_R   0.487261 0.938826 0.464165 0.023202
C70   C     C_R   0.961937 0.557601 0.537422 0.028803
C71   C     C_R   0.034911 0.440153 0.471620 0.028847
C72   C     C_R   0.009808 0.559105 0.544474 0.022694
C73   C     C_R   0.987257 0.438821 0.464177 0.023290
C74   C     C_R   0.951084 0.497880 0.496248 -0.053426
C75   C     C_R   0.046123 0.500213 0.511887 -0.051576
C76   C     C_R   0.451085 0.997883 0.496243 -0.053463
C77   C     C_R   0.546125 0.000216 0.511882 -0.051478
C78   C     C_R   0.891354 0.436071 0.450452 0.059339
C79   C     C_R   0.619054 0.883601 0.444843 -0.245603
C80   C     C_R   0.107590 0.563285 0.553167 0.054687
C81   C     C_R   0.127987 0.440074 0.492960 0.048803
C82   C     C_R   0.870510 0.559154 0.510964 0.051462
C83   C     C_R   0.391355 0.936072 0.450450 0.059233
C84   C     C_R   0.607589 0.063285 0.553168 0.054724
C85   C     C_R   0.627988 0.940075 0.492957 0.048798
C86   C     C_R   0.370509 0.059154 0.510966 0.051465
C87   C     C_R   0.841084 0.435604 0.449812 -0.123106
C88   C     C_R   0.159152 0.564340 0.549889 -0.109680
C89   C     C_R   0.170251 0.438204 0.515579 -0.108091
C90   C     C_R   0.378648 0.115208 0.560721 -0.250984
C91   C     C_R   0.829850 0.561725 0.484300 -0.108300
C92   C     C_R   0.341084 0.935604 0.449813 -0.123075
C93   C     C_R   0.659151 0.064340 0.549892 -0.109842
C94   C     C_R   0.670251 0.938204 0.515581 -0.108093
C95   C     C_R   0.329849 0.061725 0.484303 -0.108295
C96   C     C_R   0.815145 0.499860 0.455616 -0.300273
C97   C     C_R   0.186570 0.500568 0.540186 -0.309178
C98   C     C_R   0.315145 0.999861 0.455618 -0.300262
C99   C     C_R   0.686569 0.000567 0.540191 -0.309071
C100  C     C_3   0.578908 0.243792 0.227913 0.061110
C101  C     C_R   0.428320 0.877545 0.417463 -0.243613
C102  C     C_3   0.527890 0.264933 0.315947 -0.354216
C103  C     C_3   0.493437 0.198886 0.363789 -0.916704
C104  C     C_3   0.411387 0.727990 0.768836 0.055195
C105  C     C_3   0.381569 0.788665 0.749033 -0.345659
C106  C     C_3   0.421271 0.846755 0.688809 -0.918233
C107  C     C_3   0.426010 0.369253 0.765624 0.051656
C108  C     C_3   0.407752 0.447066 0.800497 -0.372598
C109  C     C_3   0.454780 0.500220 0.751825 -0.907378
C110  C     C_3   0.655629 0.502576 0.128446 0.077552
C111  C     C_3   0.602015 0.542038 0.192981 -0.424685
C112  C     C_R   0.297642 0.732135 0.323447 0.904712
C113  C     C_R   0.570239 0.121508 0.587490 -0.258257
C114  C     C_3   0.557395 0.487856 0.250160 -0.886116
C115  C     C_3   0.078755 0.743714 0.227853 0.061148
C116  C     C_3   0.027822 0.764885 0.315998 -0.354287
C117  C     C_3   0.993192 0.698912 0.363643 -0.916501
C118  C     C_3   0.911422 0.227514 0.768629 0.055042
C119  C     C_3   0.881559 0.288789 0.749897 -0.346432
C120  C     C_3   0.921369 0.346517 0.689024 -0.917953
C121  C     C_3   0.926055 0.869172 0.765579 0.051664
C122  C     C_3   0.907837 0.947011 0.800370 -0.372299
C123  C     C_3   0.954916 0.000101 0.751742 -0.907801
C124  C     C_R   0.710996 0.247998 0.958266 -0.048517
C125  C     C_3   0.155672 0.002522 0.128388 0.077538
C126  C     C_3   0.102045 0.041945 0.192947 -0.424652
C127  C     C_3   0.057446 0.987731 0.250104 -0.886208
C128  C     C_3   0.777388 0.076168 0.694995 0.113258
C129  C     C_3   0.833602 0.107667 0.628610 -0.336275
C130  C     C_3   0.878068 0.049952 0.597782 -0.976819
C131  C     C_3   0.162716 0.810768 0.354198 0.106680
C132  C     C_3   0.134439 0.864349 0.433187 -0.339605
C133  C     C_3   0.084863 0.830801 0.513549 -0.989750
C134  C     C_3   0.256022 0.059566 0.256825 0.131787
C135  C     C_R   0.275436 0.728068 0.043970 -0.054529
C136  C     C_3   0.198174 0.030405 0.316623 -0.411835
C137  C     C_3   0.176011 0.048063 0.416768 -0.754215
C138  C     C_3   0.691276 0.904796 0.808816 0.028973
C139  C     C_3   0.665648 0.932148 0.753322 -0.289840
C140  C     C_3   0.622108 0.989642 0.804497 -0.945806
C141  C     C_3   0.277114 0.575882 0.695407 0.112854
C142  C     C_3   0.333394 0.606939 0.628604 -0.336429
C143  C     C_3   0.377625 0.548882 0.597688 -0.976237
C144  C     C_3   0.662739 0.310808 0.354157 0.106653
C145  C     C_3   0.634455 0.364356 0.433183 -0.339577
C146  C     C_R   0.293525 0.242272 0.030502 -0.058905
C147  C     C_3   0.584878 0.330777 0.513512 -0.989701
C148  C     C_3   0.756007 0.559571 0.256824 0.131807
C149  C     C_3   0.698154 0.530429 0.316633 -0.411829
C150  C     C_3   0.676010 0.548069 0.416778 -0.754219
C151  C     C_3   0.191160 0.404691 0.808839 0.029061
C152  C     C_3   0.165407 0.431696 0.753383 -0.290274
C153  C     C_3   0.121854 0.489209 0.804409 -0.946179
C154  C     C_R   0.733456 0.711702 0.939414 -0.063497
C155  C     C_R   0.211004 0.747999 0.958247 -0.048607
C156  C     C_R   0.775440 0.228083 0.043972 -0.054620
C157  C     C_R   0.793524 0.742277 0.030503 -0.058908
C158  C     C_R   0.233459 0.211690 0.939410 -0.063499
C159  C     C_R   0.759699 0.207267 0.914576 0.027179
C160  C     C_R   0.300015 0.264027 0.322194 0.927240
C161  C     C_R   0.226326 0.767378 0.086152 0.011786
C162  C     C_R   0.251312 0.190393 0.065629 0.035069
C163  C     C_R   0.773442 0.766714 0.907508 0.029250
C164  C     C_R   0.259737 0.707324 0.914514 0.027013
C165  C     C_R   0.726350 0.267434 0.086134 0.011748
C166  C     C_R   0.751307 0.690407 0.065635 0.035072
C167  C     C_R   0.273439 0.266710 0.907510 0.029194
C168  C     C_R   0.794411 0.201820 0.954632 -0.013087
C169  C     C_R   0.192025 0.773392 0.047103 -0.018034
C170  C     C_R   0.225687 0.168398 0.013805 0.001890
C171  C     C_R   0.700630 0.734517 0.677477 0.912028
C172  C     C_R   0.808732 0.774442 0.945642 0.001563
C173  C     C_R   0.294437 0.701870 0.954594 -0.012883
C174  C     C_R   0.692041 0.273443 0.047095 -0.018134
C175  C     C_R   0.725680 0.668413 0.013813 0.001870
C176  C     C_R   0.308728 0.274443 0.945646 0.001553
C177  C     C_R   0.633665 0.307381 0.955620 0.030017
C178  C     C_R   0.356515 0.679324 0.046009 0.047590
C179  C     C_R   0.366097 0.308784 0.040297 0.041666
C180  C     C_R   0.664185 0.642132 0.923792 0.031227
C181  C     C_R   0.133666 0.807380 0.955616 0.030093
C182  C     C_R   0.199648 0.763203 0.676762 0.938001
C183  C     C_R   0.856518 0.179325 0.046004 0.047567
C184  C     C_R   0.866099 0.808784 0.040296 0.041679
C185  C     C_R   0.164191 0.142115 0.923787 0.031248
C186  C     C_R   0.610767 0.336493 0.903986 -0.100910
C187  C     C_R   0.383093 0.657406 0.096396 -0.110231
C188  C     C_R   0.388405 0.337747 0.093995 -0.105451
C189  C     C_R   0.627654 0.636312 0.888137 -0.099102
C190  C     C_R   0.110769 0.836498 0.903984 -0.100903
C191  C     C_R   0.883097 0.157412 0.096390 -0.110222
C192  C     C_R   0.888406 0.837747 0.093995 -0.105453
C193  C     C_R   0.797647 0.232144 0.323444 0.904716
C194  C     C_R   0.127659 0.136296 0.888132 -0.099088
C195  C     C_R   0.630065 0.314125 0.816061 -0.322990
C196  C     C_R   0.363969 0.681659 0.183142 -0.329635
C197  C     C_R   0.368418 0.316199 0.182256 -0.322180
C198  C     C_R   0.636202 0.675329 0.813701 -0.324191
C199  C     C_R   0.130067 0.814137 0.816057 -0.323012
C200  C     C_R   0.863978 0.181675 0.183133 -0.329622
C201  C     C_R   0.868419 0.816200 0.182256 -0.322200
C202  C     C_R   0.136208 0.175312 0.813694 -0.324180
C203  C     C_R   0.673683 0.266828 0.775201 -0.097785
C204  C     C_R   0.800015 0.764028 0.322194 0.927222
C205  C     C_R   0.317038 0.722646 0.226734 -0.097793
C206  C     C_R   0.325440 0.268330 0.222258 -0.101639
C207  C     C_R   0.679348 0.722163 0.774562 -0.103324
C208  C     C_R   0.173686 0.766843 0.775196 -0.097805
C209  C     C_R   0.817050 0.222668 0.226724 -0.097814
C210  C     C_R   0.825440 0.768333 0.222258 -0.101643
C211  C     C_R   0.179352 0.222149 0.774559 -0.103375
C212  C     C_R   0.697871 0.236215 0.825586 0.005360
C213  C     C_R   0.286903 0.744805 0.180333 -0.012782
C214  C     C_R   0.303204 0.235835 0.168720 -0.011534
C215  C     C_R   0.200632 0.234510 0.677476 0.911882
C216  C     C_R   0.708017 0.742423 0.822655 -0.027189
C217  C     C_R   0.197879 0.736240 0.825574 0.005462
C218  C     C_R   0.786923 0.244840 0.180316 -0.012762
C219  C     C_R   0.803203 0.735840 0.168721 -0.011526
C220  C     C_R   0.208017 0.242410 0.822655 -0.027201
C221  C     C_R   0.690971 0.129770 0.536229 0.909653
C222  C     C_R   0.308995 0.870289 0.463845 0.905621
C223  C     C_R   0.303051 0.127754 0.483330 0.911703
C224  C     C_R   0.697056 0.872221 0.516438 0.891298
C225  C     C_R   0.190972 0.629770 0.536228 0.909672
C226  C     C_R   0.904514 0.497774 0.485642 0.069243
C227  C     C_R   0.808995 0.370289 0.463845 0.905659
C228  C     C_R   0.803051 0.627754 0.483328 0.911706
C229  C     C_R   0.197057 0.372221 0.516438 0.891295
C230  C     C_R   0.680919 0.263728 0.913009 -0.006244
C231  C     C_R   0.306404 0.717631 0.090215 0.000753
C232  C     C_R   0.320562 0.262708 0.080326 -0.000290
C233  C     C_R   0.701793 0.699086 0.895634 -0.002467
C234  C     C_R   0.180927 0.763740 0.912996 -0.006299
C235  C     C_R   0.806415 0.217652 0.090205 0.000780
C236  C     C_R   0.820562 0.762711 0.080326 -0.000288
H1    H     H_    0.090023 0.278507 0.366936 0.142924
H2    H     H_    0.223239 0.500369 0.546235 0.188987
H3    H     H_    0.069857 0.955128 0.291890 0.263973
H4    H     H_    0.766802 0.037664 0.655492 0.164667
H5    H     H_    0.777627 0.042606 0.748861 0.116823
H6    H     H_    0.832563 0.128834 0.568419 0.231701
H7    H     H_    0.844439 0.153182 0.659778 0.222303
H8    H     H_    0.881078 0.029490 0.656569 0.280749
H9    H     H_    0.917996 0.073746 0.548711 0.261333
H10   H     H_    0.868941 0.004090 0.564474 0.263302
H11   H     H_    0.163022 0.755769 0.380290 0.185532
H12   H     H_    0.136759 0.807197 0.321717 0.131620
H13   H     H_    0.280844 0.000543 0.443286 0.187384
H14   H     H_    0.163446 0.883753 0.455444 0.256343
H15   H     H_    0.120182 0.911580 0.410246 0.194149
H16   H     H_    0.055607 0.809755 0.492667 0.257344
H17   H     H_    0.063862 0.872477 0.567247 0.250332
H18   H     H_    0.097807 0.785948 0.541960 0.283579
H19   H     H_    0.283691 0.032628 0.277067 0.154859
H20   H     H_    0.271206 0.043337 0.184918 0.117960
H21   H     H_    0.169500 0.052580 0.295928 0.202336
H22   H     H_    0.199277 0.971009 0.306874 0.220237
H23   H     H_    0.176341 0.107387 0.427550 0.290998
H24   H     H_    0.723240 0.000367 0.546231 0.188920
H25   H     H_    0.133136 0.029321 0.456313 0.201032
H26   H     H_    0.200501 0.020278 0.442497 0.245158
H27   H     H_    0.705623 0.951517 0.833333 0.148822
H28   H     H_    0.658671 0.876345 0.869180 0.127677
H29   H     H_    0.697888 0.955603 0.689648 0.230473
H30   H     H_    0.647041 0.885929 0.735774 0.206656
H31   H     H_    0.588829 0.966978 0.868257 0.259005
H32   H     H_    0.604535 0.007966 0.761887 0.270073
H33   H     H_    0.640283 0.037173 0.820528 0.283473
H34   H     H_    0.266303 0.537235 0.656331 0.165156
H35   H     H_    0.148798 0.341060 0.411365 0.174738
H36   H     H_    0.277332 0.542571 0.749474 0.116628
H37   H     H_    0.332259 0.628113 0.568494 0.231972
H38   H     H_    0.344534 0.652368 0.659465 0.221870
H39   H     H_    0.380713 0.528369 0.656382 0.280377
H40   H     H_    0.417610 0.572375 0.548351 0.261249
H41   H     H_    0.368190 0.503107 0.564663 0.263458
H42   H     H_    0.663038 0.255790 0.380212 0.185466
H43   H     H_    0.636790 0.307280 0.321661 0.131622
H44   H     H_    0.663456 0.383744 0.455460 0.256356
H45   H     H_    0.620194 0.411601 0.410273 0.194119
H46   H     H_    0.849380 0.658621 0.591905 0.177308
H47   H     H_    0.555633 0.309740 0.492601 0.257403
H48   H     H_    0.563865 0.372431 0.567234 0.250301
H49   H     H_    0.597823 0.285911 0.541903 0.283600
H50   H     H_    0.783674 0.532618 0.277059 0.154877
H51   H     H_    0.771184 0.543343 0.184919 0.117977
H52   H     H_    0.669478 0.552632 0.295960 0.202333
H53   H     H_    0.699243 0.471036 0.306869 0.220215
H54   H     H_    0.676352 0.607389 0.427569 0.291019
H55   H     H_    0.633132 0.529340 0.456334 0.201032
H56   H     H_    0.700503 0.520262 0.442485 0.245149
H57   H     H_    0.921204 0.332093 0.383784 0.161035
H58   H     H_    0.205440 0.451579 0.833202 0.148880
H59   H     H_    0.158643 0.376258 0.869322 0.127586
H60   H     H_    0.197577 0.455024 0.689549 0.230648
H61   H     H_    0.146782 0.385323 0.736132 0.206502
H62   H     H_    0.088651 0.466674 0.868344 0.259157
H63   H     H_    0.104178 0.507255 0.761843 0.270143
H64   H     H_    0.140050 0.536897 0.820106 0.283384
H65   H     H_    0.078055 0.667359 0.619712 0.158002
H66   H     H_    0.648801 0.841063 0.411360 0.174749
H67   H     H_    0.349377 0.158618 0.591912 0.177297
H68   H     H_    0.421206 0.832095 0.383780 0.161035
H69   H     H_    0.907009 0.719379 0.641540 0.173565
H70   H     H_    0.578052 0.167355 0.619721 0.157991
H71   H     H_    0.613039 0.337811 0.776913 0.190028
H72   H     H_    0.384902 0.664747 0.219392 0.186904
H73   H     H_    0.384759 0.340667 0.222365 0.190522
H74   H     H_    0.611098 0.665593 0.782310 0.188018
H75   H     H_    0.113040 0.837823 0.776909 0.190041
H76   H     H_    0.884910 0.164760 0.219384 0.186898
H77   H     H_    0.884759 0.840668 0.222365 0.190531
H78   H     H_    0.111105 0.165576 0.782302 0.188018
H79   H     H_    0.568033 0.335597 0.089912 0.187977
H80   H     H_    0.006184 0.275318 0.356310 0.141827
H81   H     H_    0.421273 0.651746 0.909924 0.182555
H82   H     H_    0.431456 0.337084 0.909326 0.174702
H83   H     H_    0.646670 0.539232 0.988726 0.176239
H84   H     H_    0.068024 0.835570 0.089905 0.187936
H85   H     H_    0.921241 0.151647 0.909923 0.182488
H86   H     H_    0.931460 0.837082 0.909328 0.174706
H87   H     H_    0.146671 0.039218 0.988725 0.176229
H88   H     H_    0.798034 0.124125 0.815823 0.205451
H89   H     H_    0.187348 0.852022 0.182544 0.195703
H90   H     H_    0.200811 0.128922 0.185148 0.190665
H91   H     H_    0.991175 0.722875 0.651430 0.152256
H92   H     H_    0.798165 0.864403 0.826495 0.188039
H93   H     H_    0.298195 0.624332 0.815568 0.205372
H94   H     H_    0.687407 0.352116 0.182488 0.195726
H95   H     H_    0.700800 0.628945 0.185160 0.190662
H96   H     H_    0.298145 0.364410 0.826518 0.188049
H97   H     H_    0.604117 0.205740 0.242743 0.151173
H98   H     H_    0.565420 0.215239 0.183816 0.138476
H99   H     H_    0.539886 0.292940 0.361763 0.219588
H100  H     H_    0.502936 0.303074 0.300703 0.226095
H101  H     H_    0.480742 0.169903 0.319436 0.264464
H102  H     H_    0.590030 0.778516 0.366917 0.142940
H103  H     H_    0.456220 0.216887 0.425927 0.275312
H104  H     H_    0.516906 0.161357 0.382882 0.264867
H105  H     H_    0.444710 0.706900 0.703490 0.172819
H106  H     H_    0.431497 0.750249 0.806527 0.126624
H107  H     H_    0.359977 0.765723 0.714489 0.230138
H108  H     H_    0.350805 0.814164 0.813624 0.221482
H109  H     H_    0.442883 0.871584 0.722329 0.263613
H110  H     H_    0.398458 0.889856 0.675916 0.271140
H111  H     H_    0.451733 0.822891 0.622813 0.268237
H112  H     H_    0.439670 0.368858 0.692036 0.170201
H113  H     H_    0.407000 0.219368 0.641568 0.173596
H114  H     H_    0.462634 0.352061 0.769485 0.126887
H115  H     H_    0.373453 0.462727 0.789072 0.214556
H116  H     H_    0.393241 0.451186 0.874118 0.236331
H117  H     H_    0.489451 0.485400 0.762668 0.252334
H118  H     H_    0.441048 0.555684 0.778963 0.285794
H119  H     H_    0.468794 0.500100 0.678138 0.248626
H120  H     H_    0.665723 0.467372 0.170786 0.171083
H121  H     H_    0.650851 0.465100 0.081279 0.159915
H122  H     H_    0.608723 0.579072 0.238505 0.206008
H123  H     H_    0.587410 0.574892 0.154541 0.231509
H124  H     H_    0.506190 0.775325 0.356294 0.141783
H125  H     H_    0.549333 0.450975 0.205912 0.273232
H126  H     H_    0.519144 0.517374 0.295909 0.242741
H127  H     H_    0.569790 0.455256 0.291969 0.263933
H128  H     H_    0.103917 0.705457 0.242529 0.151204
H129  H     H_    0.065159 0.715392 0.183761 0.138516
H130  H     H_    0.039929 0.792559 0.361867 0.219490
H131  H     H_    0.002954 0.803322 0.300936 0.226162
H132  H     H_    0.980348 0.670296 0.319258 0.264444
H133  H     H_    0.956063 0.716936 0.425911 0.275290
H134  H     H_    0.016589 0.661051 0.382495 0.264843
H135  H     H_    0.491167 0.222866 0.651453 0.152310
H136  H     H_    0.944321 0.206400 0.702878 0.173228
H137  H     H_    0.932088 0.249168 0.805707 0.126517
H138  H     H_    0.859238 0.266392 0.716310 0.230399
H139  H     H_    0.851408 0.314474 0.814833 0.221148
H140  H     H_    0.943830 0.370663 0.721470 0.263590
H141  H     H_    0.898513 0.390174 0.677148 0.271083
H142  H     H_    0.951110 0.322518 0.622615 0.268240
H143  H     H_    0.939730 0.868738 0.691986 0.170160
H144  H     H_    0.962662 0.851952 0.769476 0.126895
H145  H     H_    0.873589 0.962709 0.788832 0.214588
H146  H     H_    0.780845 0.500543 0.443284 0.187393
H147  H     H_    0.893269 0.951159 0.874008 0.236309
H148  H     H_    0.989532 0.985252 0.762715 0.252483
H149  H     H_    0.941207 0.055590 0.778802 0.285657
H150  H     H_    0.969001 0.999937 0.678030 0.248573
H151  H     H_    0.165781 0.967311 0.170705 0.171060
H152  H     H_    0.150908 0.965055 0.081199 0.159871
H153  H     H_    0.108743 0.078976 0.238486 0.206016
H154  H     H_    0.087425 0.074798 0.154528 0.231505
H155  H     H_    0.049391 0.950857 0.205842 0.273241
H156  H     H_    0.019186 0.017223 0.295875 0.242762
O1    O     O_R   0.746490 0.236330 0.638080 -0.589982
O2    O     O_R   0.325830 0.813840 0.483730 -0.636628
O3    O     O_R   0.325830 0.186160 0.483730 -0.645168
O4    O     O_R   0.674170 0.813840 0.516270 -0.644492
O5    O     O_R   0.174170 0.686160 0.516270 -0.659400
O6    O     O_R   0.825830 0.313840 0.483730 -0.636667
O7    O     O_R   0.825830 0.686160 0.483730 -0.645196
O8    O     O_R   0.174170 0.313840 0.516270 -0.644470
O9    O     O_R   0.739960 0.127620 0.525000 -0.621000
O10   O     O_R   0.260040 0.872380 0.475000 -0.624551
O11   O     O_R   0.260040 0.127620 0.475000 -0.621186
O12   O     O_R   0.253510 0.763670 0.361920 -0.583053
O13   O     O_R   0.739960 0.872380 0.525000 -0.628508
O14   O     O_R   0.239960 0.627620 0.525000 -0.620980
O15   O     O_R   0.760040 0.372380 0.475000 -0.624550
O16   O     O_R   0.760040 0.627620 0.475000 -0.621191
O17   O     O_R   0.239960 0.372380 0.525000 -0.628580
O18   O     O_R   0.680700 0.294870 0.629350 -0.643095
O19   O     O_R   0.319300 0.705130 0.370650 -0.640123
O20   O     O_R   0.319300 0.294870 0.370650 -0.637712
O21   O     O_R   0.680700 0.705130 0.629350 -0.638712
O22   O     O_R   0.180700 0.794870 0.629350 -0.643107
O23   O     O_R   0.253510 0.236330 0.361920 -0.580682
O24   O     O_R   0.819300 0.205130 0.370650 -0.640127
O25   O     O_R   0.819300 0.794870 0.370650 -0.637719
O26   O     O_R   0.180700 0.205130 0.629350 -0.638703
O27   O     O_R   0.062020 0.072840 0.007170 -0.631706
O28   O     O_R   0.937980 0.927160 0.992830 -0.628734
O29   O     O_R   0.937980 0.072840 0.992830 -0.621092
O30   O     O_R   0.062020 0.927160 0.007170 -0.642542
O31   O     O_R   0.562020 0.572840 0.007170 -0.631706
O32   O     O_R   0.437980 0.427160 0.992830 -0.628761
O33   O     O_R   0.437980 0.572840 0.992830 -0.621065
O34   O     O_R   0.746490 0.763670 0.638080 -0.583080
O35   O     O_R   0.562020 0.427160 0.007170 -0.642550
O36   O     O_R   0.947860 0.073950 0.109290 -0.604630
O37   O     O_R   0.052140 0.926050 0.890710 -0.627125
O38   O     O_R   0.052140 0.073950 0.890710 -0.623704
O39   O     O_R   0.947860 0.926050 0.109290 -0.618897
O40   O     O_R   0.447860 0.573950 0.109290 -0.604630
O41   O     O_R   0.552140 0.426050 0.890710 -0.627100
O42   O     O_R   0.552140 0.573950 0.890710 -0.623690
O43   O     O_R   0.447860 0.426050 0.109290 -0.618894
O44   O     O_3   0.609624 0.307093 0.188620 -0.682405
O45   O     O_R   0.246490 0.736330 0.638080 -0.589931
O46   O     O_3   0.375690 0.669394 0.813043 -0.675907
O47   O     O_3   0.382901 0.318404 0.805825 -0.663555
O48   O     O_3   0.700965 0.549480 0.082154 -0.672382
O49   O     O_3   0.109587 0.806951 0.188643 -0.682370
O50   O     O_3   0.875588 0.169104 0.813098 -0.675946
O51   O     O_3   0.882912 0.818374 0.805811 -0.663559
O52   O     O_3   0.200990 0.049458 0.082125 -0.672364
O53   O     O_3   0.735946 0.129827 0.730410 -0.645172
O54   O     O_3   0.217410 0.833881 0.293785 -0.635598
O55   O     O_3   0.257952 0.135067 0.270530 -0.605416
O56   O     O_R   0.753510 0.263670 0.361920 -0.583038
O57   O     O_3   0.736865 0.860661 0.752774 -0.629863
O58   O     O_3   0.235888 0.629828 0.730471 -0.645259
O59   O     O_3   0.717438 0.333923 0.293770 -0.635567
O60   O     O_3   0.757954 0.635069 0.270525 -0.605428
O61   O     O_3   0.236834 0.360671 0.752824 -0.629926
O62   O     O_R   0.753510 0.736330 0.361920 -0.580687
O63   O     O_R   0.246490 0.263670 0.638080 -0.583098
O64   O     O_R   0.674170 0.186160 0.516270 -0.659360
Zn1   Zn    Zn3+2 0.792340 0.208750 0.507670 0.940396
Zn2   Zn    Zn3+2 0.494040 0.500000 0.919480 0.910222
Zn3   Zn    Zn3+2 0.005960 0.000000 0.080520 0.917985
Zn4   Zn    Zn3+2 0.994040 0.000000 0.919480 0.910198
Zn5   Zn    Zn3+2 0.207660 0.791250 0.492330 0.932653
Zn6   Zn    Zn3+2 0.207660 0.208750 0.492330 0.947183
Zn7   Zn    Zn3+2 0.792340 0.791250 0.507670 0.966653
Zn8   Zn    Zn3+2 0.292340 0.708750 0.507670 0.940477
Zn9   Zn    Zn3+2 0.707660 0.291250 0.492330 0.932661
Zn10  Zn    Zn3+2 0.707660 0.708750 0.492330 0.947182
Zn11  Zn    Zn3+2 0.292340 0.291250 0.507670 0.966635
Zn12  Zn    Zn3+2 0.505960 0.500000 0.080520 0.917993

loop_
_geom_bond_atom_site_label_1
_geom_bond_atom_site_label_2
_ccdc_geom_bond_type
C134  O55   S    
C78   C226  A    
C20   C170  A    
C109  H118  S    
C31   C161  A    
C126  C127  S    
C6    C179  A    
C20   O52   S    
C10   C184  A    
C102  H99   S    
C21   O53   S    
C79   C85   A    
C4    C177  A    
C68   H65   S    
C107  H114  S    
C96   H146  S    
C211  C220  A    
C7    H83   S    
C36   H94   S    
C193  O24   A    
C151  H59   S    
C50   C59   A    
C135  C173  A    
C152  H60   S    
O18   Zn9   S    
C52   C61   A    
C123  H150  S    
C195  C203  A    
C54   C63   A    
C156  C235  A    
C58   C60   A    
C143  H41   S    
C106  H109  S    
C25   O57   S    
C108  C109  S    
C131  O54   S    
C61   C63   A    
C108  H115  S    
C110  C111  S    
C62   C64   A    
C28   O60   S    
C91   C96   A    
C90   H67   S    
C50   C90   A    
C146  C176  A    
C70   C74   A    
C3    C158  A    
C4    C12   A    
C24   C85   A    
C88   C97   A    
C137  H26   S    
C206  C214  A    
C122  H145  S    
C49   C69   A    
C216  C233  A    
C197  C206  A    
C104  C105  S    
C198  H74   S    
C158  C167  A    
C38   C167  A    
C222  O2    A    
C11   C20   A    
C5    H81   S    
C199  H75   S    
C31   H89   S    
O45   Zn8   S    
C200  H76   S    
O19   Zn8   S    
C86   C90   A    
C133  H17   S    
C71   C73   A    
C179  C188  A    
C196  H72   S    
C82   C91   A    
C42   O30   A    
C228  O7    A    
C103  H104  S    
C217  C234  A    
O11   Zn6   S    
C104  O46   S    
C52   C72   A    
C181  C190  A    
C155  C169  A    
C40   C192  S    
C117  H134  S    
C140  H31   S    
C164  C173  A    
C204  O62   A    
C141  H34   S    
C191  C200  A    
C47   C186  S    
C163  C172  A    
C133  H16   S    
C16   C175  A    
O42   Zn2   S    
C143  H40   S    
C115  O49   S    
C22   O54   S    
C107  H112  S    
C177  C230  A    
O23   Zn6   S    
C12   C174  A    
C128  O53   S    
O4    Zn10  S    
C208  C217  A    
C66   C77   A    
O2    Zn8   S    
O15   Zn9   S    
C33   H92   S    
C12   O44   S    
C60   H102  S    
C57   C78   A    
C148  O60   S    
C158  C170  A    
C8    C17   A    
C126  H153  S    
C144  C145  S    
C15   O47   S    
C98   H13   S    
C139  C140  S    
C110  H121  S    
C186  C195  A    
C200  C209  A    
C56   C59   A    
O34   Zn7   S    
C80   C88   A    
O9    Zn1   S    
C147  H48   S    
C207  C216  A    
C119  H138  S    
C11   H87   S    
C182  C208  S    
C84   C93   A    
C48   C67   A    
C95   C223  S    
C25   C33   A    
C131  H12   S    
C160  C206  S    
C116  H130  S    
C24   C77   A    
C27   O59   S    
C27   C218  A    
C45   O40   A    
C197  H73   S    
O41   Zn2   S    
C2    C81   A    
C18   O50   S    
C55   C71   A    
C2    C75   A    
C194  C202  A    
C8    C181  A    
C225  O14   A    
C221  O9    A    
C114  H127  S    
C91   C228  S    
C150  H56   S    
C67   C77   A    
C202  C211  A    
C160  O23   A    
C145  H45   S    
C128  C129  S    
O13   Zn7   S    
C82   C226  A    
O37   Zn4   S    
C156  C165  A    
C33   C163  A    
C134  H19   S    
C14   C173  A    
C34   C164  A    
C180  C189  A    
C124  C174  A    
C129  H6    S    
C156  C168  A    
C39   O27   A    
C115  C116  S    
C140  H33   S    
C69   C76   A    
C85   C94   A    
C141  H36   S    
C46   C82   A    
C130  H8    S    
C181  C234  A    
C120  H142  S    
C3    C220  A    
C42   O37   A    
C32   C162  A    
C29   C38   A    
C201  H77   S    
C107  C108  S    
C213  C231  A    
C229  O17   A    
C161  C169  A    
C153  H63   S    
C139  H29   S    
C118  H137  S    
O21   Zn10  S    
C55   C64   A    
C94   C224  S    
C135  C161  A    
C125  H152  S    
C72   C75   A    
C3    C185  A    
C23   O55   S    
C130  H9    S    
C104  H105  S    
C141  O58   S    
C137  H23   S    
C30   C159  A    
C121  C122  S    
C41   C191  S    
O6    Zn1   S    
C19   C172  A    
C86   C95   A    
O24   Zn1   S    
C45   C187  S    
C59   H113  S    
O3    Zn11  S    
C165  C174  A    
C70   C72   A    
C189  C198  A    
C30   H88   S    
C210  C219  A    
O40   Zn12  S    
C117  H132  S    
C142  H37   S    
C151  C152  S    
C45   O33   A    
C16   O48   S    
C113  H70   S    
C118  O50   S    
C105  H108  S    
C79   H66   S    
C125  O52   S    
C138  H28   S    
C114  H125  S    
C150  H54   S    
C182  O22   A    
C171  C207  S    
C129  C130  S    
C44   O32   A    
C109  H117  S    
C121  H144  S    
C83   C101  A    
C198  C207  A    
C102  H100  S    
C118  H136  S    
C136  C137  S    
C41   O29   A    
C111  H123  S    
C227  O6    A    
C21   C212  A    
C61   H91   S    
O14   Zn8   S    
C74   C226  A    
C123  H149  S    
C28   C37   A    
C46   H46   S    
C44   O43   A    
C199  C208  A    
C106  H110  S    
O32   Zn2   S    
C7    C180  A    
C144  H43   S    
O63   Zn11  S    
C102  C103  S    
C108  H116  S    
C41   O36   A    
C51   C79   A    
C5    C178  A    
C147  H49   S    
C9    C18   A    
C152  C153  S    
C22   C213  A    
C136  H21   S    
C119  H139  S    
O25   Zn7   S    
C148  H50   S    
C51   C60   A    
C112  O12   A    
C132  H15   S    
C107  O47   S    
C137  H25   S    
C78   C87   A    
C127  H3    S    
C187  C196  A    
C73   C74   A    
C185  C194  A    
C214  C232  A    
C146  C162  A    
O27   Zn3   S    
C166  C175  A    
C65   C76   A    
C15   C176  A    
C115  H128  S    
C171  O34   A    
C29   O61   S    
C49   C101  A    
C26   O58   S    
C221  O64   A    
C56   H135  S    
C138  O57   S    
C103  H103  S    
C184  C236  A    
C101  H68   S    
C100  H98   S    
O28   Zn4   S    
O33   Zn2   S    
C227  O15   A    
C29   C220  A    
C65   C67   A    
C117  H133  S    
C184  C192  A    
C190  C199  A    
C40   O39   A    
C192  C201  A    
C140  H32   S    
C93   C99   A    
C193  O56   A    
C81   C89   A    
C109  H119  S    
C182  O45   A    
C205  C213  A    
C47   O41   A    
C135  C231  A    
C26   C217  A    
C143  H39   S    
C128  H5    S    
C218  C235  A    
C123  H148  S    
O10   Zn5   S    
C4    H79   S    
C145  C147  S    
C35   C81   A    
C1    O18   A    
C9    H85   S    
C34   H93   S    
C104  H106  S    
C126  H154  S    
C35   H35   S    
C53   C57   A    
C146  C232  A    
C155  C234  A    
O43   Zn12  S    
C202  H78   S    
C224  O4    A    
O36   Zn3   S    
C43   O42   A    
C9    C183  A    
C147  H47   S    
C151  O61   S    
C223  O3    A    
C162  C170  A    
C10   C19   A    
C46   C54   A    
C144  O59   S    
C64   H1    S    
C131  H11   S    
O12   Zn5   S    
C178  C187  A    
C7    C16   A    
C180  C233  A    
C28   C219  A    
C87   C227  S    
C125  C126  S    
C149  H52   S    
C131  C132  S    
C1    C203  S    
C215  O26   A    
O17   Zn11  S    
O16   Zn10  S    
C120  H140  S    
O22   Zn5   S    
C112  O19   A    
C133  H18   S    
C112  C205  S    
C119  C120  S    
C157  C236  A    
C27   C36   A    
C128  H4    S    
C105  C106  S    
C13   C83   A    
O64   Zn9   S    
C215  O63   A    
C23   C32   A    
C103  H101  S    
C37   H95   S    
C134  H20   S    
C178  C231  A    
C149  C150  S    
C228  O16   A    
O35   Zn12  S    
O1    Zn1   S    
C188  C197  A    
C39   O38   A    
C154  C233  A    
C92   C222  S    
C14   O46   S    
C111  C114  S    
C10   H86   S    
C138  C139  S    
C177  C186  A    
O39   Zn3   S    
C142  C143  S    
C144  H42   S    
C179  C232  A    
C51   C66   A    
C48   C113  A    
C23   C214  A    
C153  H62   S    
C68   C80   A    
C211  C215  S    
C84   C113  A    
C121  O51   S    
C151  H58   S    
C125  H151  S    
C63   H69   S    
C130  H10   S    
C95   C98   A    
C132  H14   S    
C110  H120  S    
C120  H141  S    
C83   C92   A    
C204  O25   A    
C154  C175  A    
C8    H84   S    
C209  C218  A    
C99   H24   S    
O29   Zn4   S    
O31   Zn12  S    
C157  C172  A    
C17   C169  A    
C66   C69   A    
C58   H124  S    
C100  O44   S    
C124  C159  A    
C1    O1    A    
C116  C117  S    
C196  C205  A    
C115  H129  S    
C42   C190  S    
C118  C119  S    
C36   C165  A    
C6    C15   A    
C159  C168  A    
C26   C34   A    
O7    Zn7   S    
C132  C133  S    
C148  H51   S    
C54   C70   A    
C13   C86   A    
C47   O35   A    
C105  H107  S    
C43   O31   A    
C142  H38   S    
C21   C30   A    
C52   C68   A    
C114  H126  S    
O26   Zn6   S    
O20   Zn11  S    
C150  H55   S    
C225  O5    A    
C50   C65   A    
O8    Zn6   S    
C39   C194  S    
C121  H143  S    
C149  H53   S    
C22   C31   A    
C35   C55   A    
C154  C163  A    
C57   H57   S    
C148  C149  S    
C18   C168  A    
C134  C136  S    
C129  H7    S    
C49   C58   A    
C89   C97   A    
C171  O21   A    
C92   C98   A    
C152  H61   S    
C212  C230  A    
C53   C62   A    
C193  C209  S    
C88   C225  S    
C13   C76   A    
C87   C96   A    
C100  C102  S    
C106  H111  S    
C5    C14   A    
C38   H96   S    
C127  H156  S    
C44   C188  S    
C224  O13   A    
C153  H64   S    
C139  H30   S    
C127  H155  S    
C40   O28   A    
C111  H122  S    
C136  H22   S    
C203  C212  A    
C145  H44   S    
C204  C210  S    
C201  C210  A    
C122  H147  S    
C48   C56   A    
C19   O51   S    
C11   C185  A    
C219  C236  A    
C25   C216  A    
C53   C73   A    
C17   O49   S    
C183  C191  A    
C157  C166  A    
C222  O10   A    
C32   H90   S    
C37   C166  A    
C155  C164  A    
C97   H2    S    
O38   Zn4   S    
C24   C84   A    
C223  O11   A    
C110  O48   S    
C195  H71   S    
C141  C142  S    
C71   C75   A    
C116  H131  S    
C6    H82   S    
C94   C99   A    
O30   Zn3   S    
O62   Zn10  S    
C229  O8    A    
O5    Zn5   S    
O56   Zn9   S    
C2    C80   A    
C138  H27   S    
C43   C189  S    
C62   H80   S    
C183  C235  A    
C93   C221  S    
C89   C229  S    
C122  C123  S    
C160  O20   A    
C124  C230  A    
C167  C176  A    
C100  H97   S    
