data_mof_unit_43502.cif
_audit_creation_date              2012-12-10T17:32:19-0500
_audit_creation_method            fapswitch 2.2
_symmetry_space_group_name_H-M    P1
_symmetry_Int_Tables_number       1
_space_group_crystal_system       triclinic
_cell_length_a                    15.529087
_cell_length_b                    15.532045
_cell_length_c                    15.490445
_cell_angle_alpha                 91.589243
_cell_angle_beta                  72.237911
_cell_angle_gamma                 111.606635
_cell_volume                      3293.01444534

loop_
_atom_site_label
_atom_site_type_symbol
_atom_type_description
_atom_site_fract_x
_atom_site_fract_y
_atom_site_fract_z
_atom_type_partial_charge
C1    C     C_R   0.462532 0.258654 0.463950 0.779600
C2    C     C_R   0.521162 0.505071 0.114091 0.460073
C3    C     C_R   0.629132 0.664440 0.121337 0.279325
C4    C     C_R   0.534655 0.741761 0.536704 0.927556
C5    C     C_R   0.437731 0.418701 0.836656 -0.108221
C6    C     C_R   0.354548 0.013287 0.405511 0.451711
C7    C     C_R   0.446013 0.161309 0.451682 -0.237441
C8    C     C_R   0.641017 0.897978 0.567146 0.250250
C9    C     C_R   0.678755 0.995773 0.548798 -0.162284
C10   C     C_R   0.636554 0.035716 0.501237 0.542561
C11   C     C_R   0.541001 0.983785 0.497010 -0.114622
C12   C     C_R   0.447392 0.300258 0.930262 0.293116
C13   C     C_R   0.501284 0.886551 0.519002 -0.129296
C14   C     C_R   0.482711 0.025636 0.472727 -0.029062
C15   C     C_R   0.405458 0.970125 0.439658 -0.122096
C16   C     C_R   0.755856 0.549742 0.465204 0.782003
C17   C     C_R   0.376529 0.872083 0.450079 -0.109236
C18   C     C_R   0.408758 0.835335 0.510483 0.512691
C19   C     C_R   0.494467 0.118436 0.488239 0.421188
C20   C     C_R   0.376354 0.109809 0.410040 -0.169281
C21   C     C_R   0.555891 0.842697 0.545991 -0.098303
C22   C     C_R   0.004028 0.687181 0.477980 0.464682
C23   C     C_R   0.498172 0.371487 0.975045 0.537440
C24   C     C_R   0.858827 0.571138 0.455014 -0.312316
C25   C     C_R   0.107665 0.325557 0.498425 0.308771
C26   C     C_R   0.040444 0.307676 0.449528 -0.208791
C27   C     C_R   0.006237 0.377822 0.436829 0.560702
C28   C     C_R   0.243348 0.448046 0.534403 0.904293
C29   C     C_R   0.023481 0.456600 0.487558 0.015918
C30   C     C_R   0.094489 0.475680 0.532742 -0.285395
C31   C     C_R   0.980613 0.522988 0.485308 0.001089
C32   C     C_R   0.025385 0.614017 0.507636 -0.303907
C33   C     C_R   0.084797 0.627357 0.564130 0.442750
C34   C     C_R   0.497561 0.461934 0.966337 -0.046611
C35   C     C_R   0.116459 0.557398 0.578968 0.509173
C36   C     C_R   0.889839 0.499327 0.470036 0.503477
C37   C     C_R   0.920420 0.665460 0.450786 -0.110173
C38   C     C_R   0.143011 0.413871 0.529346 -0.111204
C39   C     C_R   0.551774 0.551688 0.259142 0.794018
C40   C     C_R   0.449770 0.448459 0.742121 0.937048
C41   C     C_R   0.623828 0.691474 0.037346 0.505131
C42   C     C_R   0.571281 0.572702 0.162456 -0.284608
C43   C     C_R   0.414892 0.323378 0.861621 -0.224930
C44   C     C_2   0.325748 0.808097 0.391825 0.447324
C45   C     C_R   0.470963 0.486996 0.894231 -0.064598
C46   C     C_2   0.762132 0.056096 0.579126 0.569926
C47   C     C_2   0.893862 0.740447 0.421296 0.573037
C48   C     C_2   0.547686 0.748512 0.901990 0.540599
C49   C     C_2   0.013162 0.219604 0.405318 0.424449
C50   C     C_2   0.366841 0.248250 0.810939 0.475740
C51   C     C_2   0.320976 0.156618 0.379073 0.508781
C52   C     C_R   0.529342 0.530006 0.024442 -0.020225
C53   C     C_R   0.563053 0.625418 0.994668 -0.133869
C54   C     C_R   0.532061 0.650601 0.925236 -0.108478
C55   C     C_R   0.477488 0.579627 0.881640 0.401758
H1    H     H_    0.695832 0.699553 0.213122 0.334264
H2    H     H_    0.049923 0.725898 0.626430 0.367958
H3    H     H_    0.130465 0.783069 0.468135 0.375183
H4    H     H_    0.569875 0.774741 0.831175 0.089487
H5    H     H_    0.775139 0.395915 0.459030 0.367505
H6    H     H_    0.097474 0.198266 0.515306 0.356008
H7    H     H_    0.994045 0.344470 0.317690 0.356588
H8    H     H_    0.062285 0.182578 0.385860 0.117346
H9    H     H_    0.148519 0.507431 0.672799 0.323282
H10   H     H_    0.720532 0.817833 0.030090 0.397117
H11   H     H_    0.461697 0.403577 0.213180 0.336849
H12   H     H_    0.322174 0.834637 0.329727 0.139165
H13   H     H_    0.400170 0.199050 0.782627 0.073333
H14   H     H_    0.554455 0.292929 0.017321 0.388577
H15   H     H_    0.379021 0.165255 0.935890 0.351717
H16   H     H_    0.414345 0.655000 0.845656 0.335108
H17   H     H_    0.355854 0.229619 0.353419 0.039614
H18   H     H_    0.285025 0.992823 0.318130 0.366437
H19   H     H_    0.540580 0.221926 0.561504 0.330620
H20   H     H_    0.759588 0.886233 0.571080 0.341587
H21   H     H_    0.671217 0.127816 0.401574 0.337698
H22   H     H_    0.798974 0.026354 0.611410 0.049298
H23   H     H_    0.281719 0.739763 0.567970 0.414011
H24   H     H_    0.837370 0.723190 0.389042 -0.000269
O1    O     O_3   0.500000 0.500000 0.500000 -0.532241
O2    O     O_R   0.588830 0.499590 0.285390 -0.639257
O3    O     O_R   0.395900 0.395880 0.699370 -0.614410
O4    O     O_R   0.493280 0.582590 0.315890 -0.609018
O5    O     O_R   0.521980 0.521940 0.699340 -0.614139
O6    O     O_3   0.686395 0.730412 0.163623 -0.752501
O7    O     O_2   0.293660 0.723713 0.408266 -0.560764
O8    O     O_3   0.278776 0.959834 0.374916 -0.731364
O9    O     O_3   0.546027 0.161468 0.546908 -0.709679
O10   O     O_3   0.688433 0.854687 0.601701 -0.723584
O11   O     O_3   0.693350 0.122433 0.454085 -0.610601
O12   O     O_R   0.708210 0.582550 0.530770 -0.633145
O13   O     O_2   0.788328 0.140703 0.572427 -0.446691
O14   O     O_3   0.349934 0.752994 0.564645 -0.688117
O15   O     O_2   0.933674 0.821823 0.432785 -0.480321
O16   O     O_3   0.103408 0.702559 0.615065 -0.725035
O17   O     O_3   0.064224 0.779506 0.472891 -0.656956
O18   O     O_2   0.530035 0.798471 0.961558 -0.501317
O19   O     O_3   0.827181 0.406707 0.486717 -0.676520
O20   O     O_3   0.147282 0.261769 0.509403 -0.720178
O21   O     O_3   0.966086 0.376607 0.368190 -0.686250
O22   O     O_2   0.934884 0.186752 0.390868 -0.472303
O23   O     O_R   0.270260 0.395900 0.573760 -0.581968
O24   O     O_3   0.164369 0.569395 0.642925 -0.699114
O25   O     O_3   0.680496 0.779880 0.993646 -0.703785
O26   O     O_3   0.453003 0.418470 0.155602 -0.714982
O27   O     O_2   0.287371 0.238230 0.804454 -0.485351
O28   O     O_3   0.552661 0.355823 0.024546 -0.716603
O29   O     O_3   0.433571 0.209700 0.954042 -0.752218
O30   O     O_3   0.426245 0.597384 0.829671 -0.755313
O31   O     O_2   0.235077 0.115764 0.385488 -0.510796
O32   O     O_R   0.537060 0.322180 0.411040 -0.629578
O33   O     O_R   0.484470 0.699370 0.484430 -0.600735
O34   O     O_R   0.404710 0.279110 0.530840 -0.614199
O35   O     O_R   0.573760 0.699350 0.573690 -0.583494
O36   O     O_R   0.714470 0.499570 0.411000 -0.635291
O37   O     O_R   0.307050 0.521980 0.484470 -0.590177
Zn1   Zn    Zn3+2 0.574690 0.574670 0.574650 1.030141
Zn2   Zn    Zn3+2 0.583640 0.456100 0.403530 0.981717
Zn3   Zn    Zn3+2 0.447120 0.574690 0.447120 1.059835
Zn4   Zn    Zn3+2 0.394550 0.394550 0.574700 1.066582

loop_
_geom_bond_atom_site_label_1
_geom_bond_atom_site_label_2
_ccdc_geom_bond_type
H9    O24   S    
O1    Zn4   S    
C3    C42   A    
C49   H8    S    
C3    O6    S    
C40   O5    A    
C47   H24   S    
H14   O28   S    
H5    O19   S    
C53   C54   A    
C48   C54   S    
C48   O18   D    
C12   C23   A    
C26   C27   A    
C24   C36   A    
C22   C32   A    
C30   C35   A    
O32   Zn2   S    
C4    O35   A    
C20   C51   S    
C35   O24   S    
C31   C36   A    
C49   O22   D    
C11   C14   A    
C27   C29   A    
H23   O14   S    
C30   C38   A    
O4    Zn3   S    
H3    O17   S    
H18   O8    S    
C28   O37   A    
C6    C15   A    
O1    Zn1   S    
C25   O20   S    
O5    Zn1   S    
O12   Zn1   S    
O3    Zn4   S    
C37   C47   S    
C9    C10   A    
C23   C34   A    
C5    C43   A    
O1    Zn3   S    
C9    C46   S    
C16   C24   S    
C55   O30   S    
H6    O20   S    
C1    O34   A    
C44   O7    D    
C33   O16   S    
C24   C37   A    
C39   C42   S    
O1    Zn2   S    
C27   O21   S    
C40   O3    A    
C39   O2    A    
C19   O9    S    
C26   C49   S    
C12   O29   S    
C8    C9    A    
C25   C26   A    
C22   C37   A    
C5    C45   A    
O2    Zn2   S    
C6    O8    S    
C29   C30   A    
C25   C38   A    
C46   H22   S    
O34   Zn4   S    
C31   C32   A    
C28   C38   S    
O36   Zn2   S    
C23   O28   S    
C17   C18   A    
C13   C21   A    
C34   C45   A    
C41   C53   A    
C2    C52   A    
H7    O21   S    
C13   C18   A    
C51   O31   D    
C7    C19   A    
C51   H17   S    
H11   O26   S    
C16   O36   A    
O23   Zn4   S    
C52   C53   A    
C48   H4    S    
C15   C17   A    
C54   C55   A    
C3    C41   A    
C1    C7    S    
C22   O17   S    
C14   C19   A    
C8    C21   A    
O33   Zn3   S    
C41   O25   S    
C43   C50   S    
C12   C43   A    
C6    C20   A    
C2    O26   S    
C34   C52   A    
O37   Zn3   S    
C32   C33   A    
C17   C44   S    
C39   O4    A    
C29   C31   A    
H15   O29   S    
C1    O32   A    
C4    C21   S    
C11   C13   A    
H1    O6    S    
C2    C42   A    
H16   O30   S    
C33   C35   A    
C47   O15   D    
C4    O33   A    
O35   Zn1   S    
C10   C11   A    
H20   O10   S    
C28   O23   A    
C10   O11   S    
C46   O13   D    
C45   C55   A    
C16   O12   A    
C7    C20   A    
H2    O16   S    
C5    C40   S    
C50   O27   D    
C18   O14   S    
C14   C15   A    
C44   H12   S    
C36   O19   S    
C8    O10   S    
H10   O25   S    
H19   O9    S    
C50   H13   S    
H21   O11   S    
