data_mof_unit_37930.cif
_audit_creation_date              2012-12-11T17:29:51-0500
_audit_creation_method            fapswitch 2.2
_symmetry_space_group_name_H-M    P1
_symmetry_Int_Tables_number       1
_space_group_crystal_system       triclinic
_cell_length_a                    18.797194
_cell_length_b                    18.849011
_cell_length_c                    20.404541
_cell_angle_alpha                 107.249604
_cell_angle_beta                  106.446129
_cell_angle_gamma                 110.96769
_cell_volume                      5800.65369147

loop_
_atom_site_label
_atom_site_type_symbol
_atom_type_description
_atom_site_fract_x
_atom_site_fract_y
_atom_site_fract_z
_atom_type_partial_charge
C1    C     C_R   0.082942 0.087438 0.351960 -0.143909
C2    C     C_R   0.243628 0.069248 0.548543 -0.132134
C3    C     C_R   0.152625 0.223038 0.709904 -0.142404
C4    C     C_R   0.760082 0.926320 0.503268 -0.142786
C5    C     C_R   0.998378 0.763076 0.430404 -0.146592
C6    C     C_R   0.228874 0.273757 0.712205 0.050356
C7    C     C_R   0.946264 0.709103 0.450225 0.090005
C8    C     C_R   0.251608 0.996912 0.540955 0.090528
C9    C     C_R   0.026081 0.978971 0.724616 0.037682
C10   C     C_R   0.860141 0.569698 0.444659 -0.263175
C11   C     C_R   0.914883 0.617160 0.420921 0.114380
C12   C     C_R   0.755110 0.995589 0.545725 0.086159
C13   C     C_R   0.945583 0.577848 0.374588 -0.258860
C14   C     C_R   0.932348 0.496399 0.361515 0.142011
C15   C     C_R   0.885923 0.453043 0.393540 0.027299
C16   C     C_R   0.838565 0.816729 0.281074 -0.123597
C17   C     C_R   0.846144 0.488058 0.431952 0.143635
C18   C     C_R   0.971786 0.461202 0.323461 -0.206935
C19   C     C_R   0.972890 0.387953 0.324319 -0.204925
C20   C     C_R   0.934607 0.349642 0.363282 0.140833
C21   C     C_R   0.886948 0.379375 0.394322 0.026689
C22   C     C_R   0.848112 0.341056 0.433452 0.141072
C23   C     C_R   0.756487 0.793960 0.273771 0.038661
C24   C     C_R   0.800835 0.370973 0.464156 -0.205836
C25   C     C_R   0.799961 0.444396 0.463509 -0.208482
C26   C     C_R   0.951151 0.288767 0.379199 -0.256837
C27   C     C_R   0.923432 0.260263 0.428185 0.115690
C28   C     C_R   0.948380 0.195632 0.520507 -0.130292
C29   C     C_R   0.865168 0.280110 0.448683 -0.256954
C30   C     C_R   0.331437 0.918799 0.574321 0.229570
C31   C     C_R   0.328896 0.995435 0.583784 0.069910
C32   C     C_R   0.405115 0.072289 0.624246 -0.312077
C33   C     C_R   0.481544 0.072741 0.636040 0.144783
C34   C     C_R   0.963685 0.220091 0.465840 0.074271
C35   C     C_R   0.482060 0.995108 0.608741 -0.023923
C36   C     C_R   0.407911 0.917634 0.580873 0.090044
C37   C     C_R   0.555716 0.149675 0.666258 -0.187393
C38   C     C_R   0.628321 0.149565 0.662473 -0.212899
C39   C     C_R   0.627104 0.072537 0.628509 0.142768
C40   C     C_R   0.760757 0.811023 0.346292 -0.127398
C41   C     C_R   0.555334 0.995107 0.604765 0.050793
C42   C     C_R   0.554559 0.917675 0.571475 0.146286
C43   C     C_R   0.483669 0.841289 0.549854 -0.217766
C44   C     C_R   0.411223 0.841179 0.555229 -0.190852
C45   C     C_R   0.229790 0.229114 0.645410 -0.148107
C46   C     C_R   0.694084 0.071775 0.612835 -0.265495
C47   C     C_R   0.690378 0.994704 0.572966 0.114691
C48   C     C_R   0.622415 0.917865 0.555968 -0.266466
C49   C     C_R   0.288600 0.363697 0.765712 0.146190
C50   C     C_R   0.267107 0.410936 0.816375 -0.191287
C51   C     C_R   0.326617 0.493543 0.871078 -0.165123
C52   C     C_R   0.026602 0.202210 0.455812 -0.129067
C53   C     C_R   0.409041 0.530222 0.876093 0.225802
C54   C     C_R   0.427953 0.485612 0.821704 -0.183331
C55   C     C_R   0.368701 0.402832 0.767327 -0.183321
C56   C     C_R   0.920494 0.756348 0.494365 -0.149333
C57   C     C_R   0.615755 0.727658 0.069523 -0.164268
C58   C     C_R   0.687865 0.765664 0.137848 -0.186910
C59   C     C_R   0.534813 0.686007 0.066129 0.224290
C60   C     C_R   0.680489 0.762854 0.203748 0.146937
C61   C     C_R   0.599553 0.728313 0.201560 -0.176660
C62   C     C_R   0.527484 0.690866 0.133317 -0.182554
C63   C     C_R   0.084335 0.022779 0.222940 0.091393
C64   C     C_R   0.829989 0.066559 0.567703 -0.148403
C65   C     C_R   0.034820 0.954581 0.149989 -0.225889
C66   C     C_R   0.058082 0.953969 0.090775 0.308685
C67   C     C_R   0.175435 0.928746 0.481974 -0.138629
C68   C     C_R   0.134198 0.022996 0.105709 0.185009
C69   C     C_R   0.182974 0.091383 0.178522 -0.241854
C70   C     C_R   0.158702 0.091267 0.237015 -0.179813
C71   C     C_R   0.177123 0.045092 0.924936 -0.166288
C72   C     C_R   0.142281 0.047383 0.856189 -0.182071
C73   C     C_R   0.143382 0.968855 0.930965 0.224315
C74   C     C_R   0.073501 0.973726 0.792691 0.144807
C75   C     C_R   0.048317 0.895855 0.796446 -0.175371
C76   C     C_R   0.012517 0.947028 0.287790 -0.148680
C77   C     C_R   0.083998 0.893558 0.865118 -0.182932
C78   C     C_R   0.036431 0.052861 0.717803 -0.123379
C79   C     C_R   0.057099 0.020311 0.283282 0.072639
C80   C     C_3   0.256040 0.841062 0.560857 -1.048948
C81   C     C_3   0.998067 0.882337 0.011861 -1.023935
C82   C     C_R   0.967995 0.911774 0.653182 -0.128478
H1    H     H_    0.129403 0.152698 0.372670 0.086514
H2    H     H_    0.006472 0.493285 0.297511 0.129231
H3    H     H_    0.719087 0.860484 0.486614 0.085832
H4    H     H_    0.008570 0.364823 0.299187 0.130352
H5    H     H_    0.992329 0.270448 0.359317 0.119038
H6    H     H_    0.839267 0.254935 0.482789 0.118468
H7    H     H_    0.769573 0.341168 0.493300 0.129425
H8    H     H_    0.767871 0.469934 0.492012 0.128366
H9    H     H_    0.405568 0.132464 0.639284 0.132293
H10   H     H_    0.556028 0.209714 0.688284 0.125554
H11   H     H_    0.746151 0.131793 0.627536 0.116970
H12   H     H_    0.869851 0.732310 0.510135 0.087434
H13   H     H_    0.858811 0.812050 0.236264 0.091428
H14   H     H_    0.619719 0.857958 0.527327 0.118168
H15   H     H_    0.482800 0.781303 0.525530 0.129312
H16   H     H_    0.356436 0.780457 0.534260 0.148743
H17   H     H_    0.749078 0.794595 0.138001 0.114629
H18   H     H_    0.623572 0.726780 0.018756 0.124501
H19   H     H_    0.491084 0.512851 0.825044 0.119145
H20   H     H_    0.387430 0.368489 0.729102 0.111215
H21   H     H_    0.591167 0.725927 0.251274 0.111894
H22   H     H_    0.309355 0.526842 0.911600 0.123830
H23   H     H_    0.158817 0.862817 0.457806 0.123141
H24   H     H_    0.465693 0.659320 0.131575 0.119622
H25   H     H_    0.903461 0.199790 0.542438 0.094919
H26   H     H_    0.205310 0.383903 0.815492 0.112854
H27   H     H_    0.166471 0.107880 0.854565 0.116394
H28   H     H_    0.224867 0.103892 0.974909 0.123548
H29   H     H_    0.239276 0.145710 0.189489 0.137607
H30   H     H_    0.997083 0.837449 0.748296 0.112800
H31   H     H_    0.057980 0.834338 0.868926 0.123471
H32   H     H_    0.976164 0.902621 0.138461 0.123577
H33   H     H_    0.709655 0.803110 0.362553 0.094310
H34   H     H_    0.077906 0.117086 0.761621 0.095156
H35   H     H_    0.054273 0.212768 0.417778 0.095392
H36   H     H_    0.854734 0.129670 0.611338 0.087804
H37   H     H_    0.995959 0.883482 0.250475 0.092650
H38   H     H_    0.271839 0.254881 0.621893 0.089101
H39   H     H_    0.985557 0.612224 0.353549 0.117095
H40   H     H_    0.276672 0.815495 0.600762 0.259390
H41   H     H_    0.207951 0.856302 0.572995 0.264717
H42   H     H_    0.227000 0.791397 0.501375 0.244844
H43   H     H_    0.683725 0.209491 0.682080 0.127656
H44   H     H_    0.198101 0.144671 0.292935 0.122150
H45   H     H_    0.947647 0.845366 0.636847 0.097151
H46   H     H_    0.981911 0.908152 0.970830 0.260204
H47   H     H_    0.027420 0.843246 0.993561 0.251853
H48   H     H_    0.937850 0.839629 0.009905 0.244439
H49   H     H_    0.289764 0.133785 0.588765 0.097091
H50   H     H_    0.124633 0.242423 0.746523 0.086412
H51   H     H_    0.019539 0.745494 0.387182 0.088510
H52   H     H_    0.833589 0.597841 0.478277 0.116646
N1    N     N_R   0.052570 0.055840 0.395080 -0.037449
N2    N     N_2   0.461870 0.626561 0.996488 -0.106161
N3    N     N_2   0.153099 0.032526 0.045620 -0.095210
N4    N     N_R   0.834730 0.954500 0.499860 -0.038438
N5    N     N_2   0.149896 0.968193 0.001525 -0.092974
N6    N     N_R   0.890190 0.849120 0.355200 -0.038727
N7    N     N_R   0.997110 0.161210 0.539740 -0.040716
N8    N     N_R   0.841940 0.845190 0.395070 -0.039091
N9    N     N_R   0.045360 0.165140 0.499870 -0.040574
N10   N     N_R   0.877490 0.041590 0.539730 -0.038182
N11   N     N_R   0.009810 0.968740 0.355210 -0.036708
N12   N     N_R   0.954640 0.834860 0.500130 -0.038731
N13   N     N_R   0.158060 0.154810 0.604930 -0.036633
N14   N     N_R   0.122510 0.958410 0.460270 -0.042728
N15   N     N_R   0.990190 0.031260 0.644790 -0.039636
N16   N     N_R   0.947430 0.944160 0.604920 -0.039718
N17   N     N_R   0.165270 0.045500 0.500140 -0.041727
N18   N     N_R   0.109810 0.150880 0.644800 -0.036914
N19   N     N_R   0.002890 0.838790 0.460260 -0.039134
N20   N     N_2   0.478011 0.603562 0.941125 -0.105660
Ni1   Ni    Ni4+2 0.104370 0.104380 0.500010 0.211966
Ni2   Ni    Ni4+2 0.895630 0.895620 0.499990 0.211166
Ni3   Ni    Ni4+2 0.006290 0.904630 0.408560 0.211755
Ni4   Ni    Ni4+2 0.993710 0.095370 0.591440 0.211811

loop_
_geom_bond_atom_site_label_1
_geom_bond_atom_site_label_2
_ccdc_geom_bond_type
C66   C68   A    
C63   C65   A    
C6    C45   A    
C40   N8    A    
C27   C29   A    
C11   C13   A    
C65   H32   S    
C14   C18   A    
C54   H19   S    
C35   C36   A    
N14   N17   A    
N15   N16   A    
C19   H4    S    
C24   H7    S    
C57   C58   A    
C64   H36   S    
C39   C41   A    
C63   C79   S    
C53   C54   A    
C5    H51   S    
N3    N5    D    
C55   H20   S    
C3    N18   A    
C22   C29   A    
N6    N8    A    
N7    N9    A    
N19   Ni3   S    
C30   C31   A    
C12   C64   A    
C57   C59   A    
C32   H9    S    
C28   H25   S    
C58   C60   A    
C23   C40   A    
C71   H28   S    
C59   N2    S    
N1    Ni1   S    
C18   C19   A    
C41   C42   A    
C29   H6    S    
C68   C69   A    
C44   H16   S    
C47   C48   A    
C26   H5    S    
N1    N11   A    
N12   N19   A    
C18   H2    S    
C76   C79   A    
N17   Ni1   S    
C4    C12   A    
N13   Ni1   S    
N15   Ni4   S    
C61   C62   A    
C9    C82   A    
C9    C78   A    
C30   C80   S    
C52   H35   S    
C70   H44   S    
C28   C34   A    
C53   N20   S    
N16   Ni2   S    
C13   C14   A    
C50   H26   S    
C68   N3    S    
C16   N6    A    
C7    C56   A    
C12   C47   S    
C77   H31   S    
C7    C11   S    
C27   C34   S    
C23   C60   S    
N18   Ni4   S    
C52   N9    A    
C2    H49   S    
C74   C75   A    
C3    H50   S    
C76   H37   S    
C43   H15   S    
C24   C25   A    
C72   C74   A    
C5    C7    A    
C67   H23   S    
C80   H40   S    
C4    H3    S    
C64   N10   A    
C51   H22   S    
C49   C55   A    
C57   H18   S    
C33   C37   A    
C60   C61   A    
C51   C53   A    
C56   H12   S    
C43   C44   A    
C37   C38   A    
N6    Ni3   S    
C13   H39   S    
C81   H47   S    
C31   C32   A    
C63   C70   A    
C50   C51   A    
C25   H8    S    
C42   C48   A    
C75   C77   A    
C82   N16   A    
C39   C46   A    
C75   H30   S    
C45   H38   S    
C76   N11   A    
C65   C66   A    
C16   C23   A    
C81   H46   S    
C26   C27   A    
C1    C79   A    
C22   C24   A    
C36   C44   A    
C42   C43   A    
N10   Ni4   S    
C38   H43   S    
C71   C73   A    
C80   H42   S    
N4    Ni2   S    
C2    N17   A    
C15   C17   A    
C72   H27   S    
C59   C62   A    
C48   H14   S    
C37   H10   S    
C61   H21   S    
C45   N13   A    
C8    C31   S    
C78   H34   S    
C58   H17   S    
C10   H52   S    
C54   C55   A    
C62   H24   S    
C1    H1    S    
C73   N5    S    
N11   Ni3   S    
C34   C52   A    
C30   C36   A    
N9    Ni1   S    
C17   C25   A    
C32   C33   A    
C19   C20   A    
N13   N18   A    
C1    N1    A    
C71   C72   A    
N4    N10   A    
N2    N20   D    
C66   C81   S    
C69   H29   S    
C81   H48   S    
C38   C39   A    
C46   H11   S    
C20   C26   A    
C5    N19   A    
C33   C35   A    
N14   Ni3   S    
C6    C49   S    
C56   N12   A    
C69   C70   A    
C35   C41   A    
C82   H45   S    
C46   C47   A    
C10   C11   A    
C4    N4    A    
C40   H33   S    
N7    Ni4   S    
C15   C21   A    
N8    Ni2   S    
N12   Ni2   S    
C20   C21   A    
C8    C67   A    
C49   C50   A    
C9    C74   S    
C3    C6    A    
C2    C8    A    
C67   N14   A    
C73   C77   A    
C14   C15   A    
C28   N7    A    
C10   C17   A    
C16   H13   S    
C21   C22   A    
C78   N15   A    
C80   H41   S    
