data_mof_unit_10065.cif
_audit_creation_date              2013-03-05T15:53:04-0500
_audit_creation_method            fapswitch 2.2
_symmetry_space_group_name_H-M    P1
_symmetry_Int_Tables_number       1
_space_group_crystal_system       triclinic
_cell_length_a                    20.07841
_cell_length_b                    17.080141
_cell_length_c                    15.57203
_cell_angle_alpha                 89.951461
_cell_angle_beta                  51.704128
_cell_angle_gamma                 89.947786
_cell_volume                      4191.18103639

loop_
_atom_site_label
_atom_site_type_symbol
_atom_site_description
_atom_site_fract_x
_atom_site_fract_y
_atom_site_fract_z
_atom_type_partial_charge
C1    C     C_R   0.841039 0.674339 0.046440 -0.009993
C2    C     C_R   0.128429 0.693715 0.000530 -0.037994
C3    C     C_R   0.368574 0.192626 0.002478 -0.031588
C4    C     C_R   0.636164 0.190283 0.991338 -0.015548
N1    N     N_R   0.908660 0.628630 0.995840 -0.070477
N2    N     N_R   0.091340 0.628630 0.004160 -0.084096
N3    N     N_R   0.408660 0.128630 0.995840 -0.083676
N4    N     N_R   0.591340 0.128630 0.004160 -0.082894
C5    C     C_R   0.903226 0.301168 0.204617 -0.146472
C6    C     C_R   0.098684 0.301216 0.794254 -0.137961
C7    C     C_R   0.401159 0.801250 0.205960 -0.139330
C8    C     C_R   0.638567 0.818176 0.777633 -0.100413
H1    H     H_    0.913815 0.245579 0.165426 0.139576
H2    H     H_    0.089875 0.245478 0.832303 0.135759
H3    H     H_    0.409913 0.745508 0.168043 0.134642
H4    H     H_    0.653347 0.764302 0.797794 0.087300
N5    N     N_R   0.922310 0.368460 0.151950 -0.048184
N6    N     N_R   0.077690 0.368460 0.848050 -0.047798
N7    N     N_R   0.422310 0.868460 0.151950 -0.048546
N8    N     N_R   0.577690 0.868460 0.848050 -0.041068
C9    C     C_R   0.830580 0.406122 0.952551 -0.027328
C10   C     C_R   0.172291 0.409829 0.041589 -0.023331
C11   C     C_R   0.327763 0.910006 0.958250 -0.021090
C12   C     C_R   0.657754 0.897804 0.068753 -0.065550
N9    N     N_R   0.903470 0.421430 0.936420 -0.078390
N10   N     N_R   0.096530 0.421430 0.063580 -0.075016
N11   N     N_R   0.403470 0.921430 0.936420 -0.074494
N12   N     N_R   0.596530 0.921430 0.063580 -0.074330
C13   C     C_R   0.908558 0.606597 0.302192 -0.120334
C14   C     C_R   0.140538 0.578155 0.684211 -0.108280
C15   C     C_R   0.359708 0.078290 0.315905 -0.109082
C16   C     C_R   0.633582 0.086339 0.682691 -0.103335
H5    H     H_    0.916752 0.576827 0.356443 0.095323
H6    H     H_    0.153371 0.537046 0.623386 0.107498
H7    H     H_    0.346936 0.037147 0.376733 0.106552
H8    H     H_    0.639880 0.053917 0.619748 0.097974
N13   N     N_R   0.927500 0.575670 0.211370 -0.042318
N14   N     N_R   0.072500 0.575670 0.788630 -0.035126
N15   N     N_R   0.427500 0.075670 0.211370 -0.035673
N16   N     N_R   0.572500 0.075670 0.788630 -0.038221
C17   C     C_R   0.837678 0.325546 0.059586 -0.064245
C18   C     C_R   0.163573 0.327345 0.937967 -0.062530
C19   C     C_R   0.336404 0.827286 0.061862 -0.064173
C20   C     C_R   0.649061 0.811124 0.968427 -0.056252
H9    H     H_    0.826619 0.278101 0.112999 0.110767
H10   H     H_    0.175123 0.280052 0.884231 0.112147
H11   H     H_    0.324654 0.780085 0.115896 0.111091
H12   H     H_    0.651570 0.756056 0.933024 0.117138
N17   N     N_R   0.908660 0.365680 0.995820 -0.034179
N18   N     N_R   0.091340 0.365680 0.004180 -0.034577
N19   N     N_R   0.408660 0.865680 0.995820 -0.033888
N20   N     N_R   0.591340 0.865680 0.004180 -0.050024
C21   C     C_R   0.906810 0.699110 0.204874 -0.092735
C22   C     C_R   0.150481 0.670831 0.775635 -0.125814
C23   C     C_R   0.350014 0.171399 0.224689 -0.138021
C24   C     C_R   0.646246 0.175218 0.774950 -0.140690
H13   H     H_    0.920363 0.755880 0.167663 0.079493
H14   H     H_    0.174500 0.718709 0.793101 0.116315
H15   H     H_    0.326596 0.220136 0.207847 0.123413
H16   H     H_    0.668606 0.224620 0.791529 0.133930
N21   N     N_R   0.922310 0.631420 0.151980 -0.065022
N22   N     N_R   0.077690 0.631420 0.848020 -0.047709
N23   N     N_R   0.422310 0.131420 0.151980 -0.053963
N24   N     N_R   0.577690 0.131420 0.848020 -0.055127
C25   C     C_R   0.906680 0.393157 0.302874 -0.107648
C26   C     C_R   0.092934 0.392455 0.697429 -0.139969
C27   C     C_R   0.406992 0.892431 0.302644 -0.145837
C28   C     C_R   0.627919 0.908318 0.682803 -0.120933
H17   H     H_    0.915132 0.421385 0.357599 0.084385
H18   H     H_    0.082632 0.419617 0.643844 0.087537
H19   H     H_    0.417390 0.919503 0.356125 0.089750
H20   H     H_    0.630288 0.933816 0.617810 0.093699
N25   N     N_R   0.927500 0.426330 0.211360 -0.044662
N26   N     N_R   0.072500 0.426330 0.788640 -0.046932
N27   N     N_R   0.427500 0.926330 0.211360 -0.045720
N28   N     N_R   0.572500 0.926330 0.788640 -0.045086
C29   C     C_R   0.837608 0.590710 0.938886 -0.073559
C30   C     C_R   0.139587 0.603727 0.094546 -0.195026
C31   C     C_R   0.358376 0.102600 0.907796 -0.175659
C32   C     C_R   0.649812 0.098026 0.081431 -0.168226
N29   N     N_R   0.903470 0.570760 0.936440 -0.060717
N30   N     N_R   0.096530 0.570760 0.063560 -0.055938
N31   N     N_R   0.403470 0.070760 0.936440 -0.057711
N32   N     N_R   0.596530 0.070760 0.063560 -0.052093
C33   C     C_R   0.795892 0.652504 0.011598 0.017384
C34   C     C_R   0.161972 0.679439 0.053234 0.113868
C35   C     C_R   0.333932 0.177375 0.951480 0.099680
C36   C     C_R   0.676176 0.171916 0.034742 0.083854
C37   C     C_R   0.892413 0.314148 0.299607 0.084499
C38   C     C_R   0.109619 0.313873 0.699025 0.091605
C39   C     C_R   0.390182 0.813895 0.301224 0.097149
C40   C     C_R   0.675355 0.845635 0.673888 0.064553
C41   C     C_R   0.787357 0.347874 0.033249 -0.007246
C42   C     C_R   0.215649 0.351658 0.960791 -0.015107
C43   C     C_R   0.284281 0.851985 0.039147 -0.024148
C44   C     C_R   0.693438 0.830657 0.004394 0.027402
C45   C     C_R   0.897166 0.685109 0.298772 0.091880
C46   C     C_R   0.191396 0.637859 0.672523 0.070795
C47   C     C_R   0.309056 0.138287 0.327728 0.076151
C48   C     C_R   0.684262 0.145769 0.671217 0.081558
Ni1   Ni    Ni4+2 1.000000 0.630300 0.000000 0.212949
Ni2   Ni    Ni4+2 0.500000 0.130300 0.000000 0.209843
Ni3   Ni    Ni4+2 0.000000 0.369700 0.000000 0.252353
Ni4   Ni    Ni4+2 0.500000 0.869700 0.000000 0.249785
Ni5   Ni    Ni4+2 0.988090 0.497570 0.863760 0.217055
Ni6   Ni    Ni4+2 0.011910 0.497570 0.136240 0.202216
Ni7   Ni    Ni4+2 0.488090 0.997570 0.863760 0.216540
Ni8   Ni    Ni4+2 0.511910 0.997570 0.136240 0.212664
C49   C     C_R   0.853666 0.711347 0.478338 0.077839
C50   C     C_R   0.294804 0.634665 0.468980 0.151818
C51   C     C_R   0.205660 0.134914 0.531197 0.149290
C52   C     C_R   0.791815 0.138673 0.468514 0.143190
C53   C     C_R   0.878945 0.741931 0.379442 0.147647
C54   C     C_R   0.270647 0.663426 0.568958 0.045287
C55   C     C_R   0.229811 0.163817 0.431258 0.048749
C56   C     C_R   0.764176 0.170395 0.568678 0.050021
C57   C     C_R   0.182991 0.226743 0.434506 -0.188703
C58   C     C_R   0.812344 0.231392 0.566328 -0.186062
C59   C     C_R   0.851952 0.816907 0.376593 -0.120895
C60   C     C_R   0.317198 0.726528 0.565711 -0.188116
H21   H     H_    0.193893 0.247566 0.361124 0.151709
H22   H     H_    0.799577 0.253283 0.640362 0.156394
H23   H     H_    0.872336 0.843523 0.300750 0.138198
H24   H     H_    0.306253 0.747356 0.639078 0.151280
C61   C     C_R   0.131454 0.271598 0.529929 -0.168189
C62   C     C_R   0.868768 0.273153 0.469378 -0.168306
C63   C     C_R   0.788136 0.853419 0.473744 -0.191639
C64   C     C_R   0.368416 0.771577 0.470376 -0.154780
C65   C     C_R   0.126472 0.252904 0.621895 0.080856
C66   C     C_R   0.876355 0.253337 0.375972 0.080331
C67   C     C_R   0.752072 0.815589 0.573835 0.062248
C68   C     C_R   0.373403 0.752913 0.378432 0.093822
C69   C     C_R   0.788968 0.746898 0.576103 -0.008413
C70   C     C_R   0.346771 0.678083 0.374163 0.049434
C71   C     C_R   0.153438 0.178156 0.626084 0.037353
C72   C     C_R   0.848827 0.178820 0.372224 0.039654
C73   C     C_3   0.837364 0.738509 0.619922 -0.193921
C74   C     C_3   0.300955 0.650511 0.331727 -0.274553
C75   C     C_3   0.199381 0.150727 0.668495 -0.272691
C76   C     C_3   0.806997 0.150369 0.324587 -0.263972
C77   C     C_3   0.908729 0.702713 0.511617 -0.519274
C78   C     C_3   0.243452 0.604112 0.436321 -0.601816
C79   C     C_3   0.257101 0.104465 0.563836 -0.594778
C80   C     C_3   0.744143 0.107612 0.430756 -0.597904
H25   H     H_    0.854113 0.795391 0.637019 0.170038
H26   H     H_    0.266686 0.697719 0.324007 0.165959
H27   H     H_    0.233444 0.198046 0.676266 0.169951
H28   H     H_    0.776148 0.197088 0.310343 0.168777
H29   H     H_    0.966185 0.740467 0.462724 0.217407
H30   H     H_    0.177305 0.626880 0.488496 0.213734
H31   H     H_    0.323169 0.127364 0.511652 0.216409
H32   H     H_    0.679265 0.132734 0.476518 0.216159
H33   H     H_    0.922253 0.640134 0.515358 0.177099
H34   H     H_    0.248973 0.539432 0.425209 0.191028
H35   H     H_    0.251809 0.039773 0.574866 0.187941
H36   H     H_    0.747452 0.042689 0.423712 0.182245
C81   C     C_2   0.739110 0.221033 0.023998 -0.103836
C82   C     C_2   0.269720 0.225753 0.963585 -0.104369
C83   C     C_2   0.227513 0.727133 0.038807 -0.121455
C84   C     C_2   0.733513 0.703038 0.023861 -0.021938
C85   C     C_2   0.213187 0.803910 0.069715 -0.004691
C86   C     C_2   0.755850 0.778480 0.987847 -0.010124
C87   C     C_2   0.719984 0.296726 0.059682 -0.015964
C88   C     C_2   0.285666 0.302372 0.931544 -0.026424
C89   C     C_2   0.828458 0.746548 0.105823 0.526253
H37   H     H_    0.880278 0.787813 0.070936 0.002554
O1    O     O_2   0.759292 0.761368 0.192398 -0.537021
C90   C     C_2   0.111992 0.770087 0.972999 0.524495
H38   H     H_    0.053809 0.778951 0.983561 -0.008994
O2    O     O_2   0.165605 0.821330 0.930063 -0.556090
C91   C     C_2   0.382395 0.269929 0.030294 0.527172
H39   H     H_    0.442906 0.283450 0.010767 0.001702
O3    O     O_2   0.324693 0.317140 0.081579 -0.564037
C92   C     C_2   0.623080 0.268634 0.965620 0.500047
H40   H     H_    0.560518 0.286716 0.995481 0.012986
O4    O     O_2   0.683222 0.311884 0.905370 -0.561316
H41   H     H_    0.105245 0.325546 0.525984 0.125671
H42   H     H_    0.895985 0.326477 0.472893 0.126186
H43   H     H_    0.764267 0.908789 0.469469 0.120597
H44   H     H_    0.394383 0.825607 0.474391 0.129331
C93   C     C_2   0.797243 0.680286 0.711728 0.518431
H45   H     H_    0.761960 0.630707 0.714850 0.032743
O5    O     O_2   0.805857 0.687396 0.782142 -0.599812
C94   C     C_2   0.355147 0.598906 0.232510 0.604788
H46   H     H_    0.396211 0.554933 0.228253 0.030769
O6    O     O_2   0.352858 0.605833 0.156360 -0.590243
C95   C     C_2   0.145414 0.099002 0.767678 0.610241
H47   H     H_    0.104757 0.054721 0.771743 0.030729
O7    O     O_2   0.147421 0.106184 0.844022 -0.586589
C96   C     C_2   0.862876 0.095733 0.229432 0.610912
H48   H     H_    0.899368 0.050613 0.232781 0.025141
O8    O     O_2   0.867136 0.101492 0.148021 -0.595839
C97   C     C_2   0.826630 0.187795 0.949303 0.536204
H49   H     H_    0.835954 0.125627 0.952955 0.035183
O9    O     O_2   0.887431 0.227380 0.878855 -0.588724
C98   C     C_2   0.183348 0.190105 0.037207 0.526485
H50   H     H_    0.175348 0.128601 0.027995 0.072502
O10   O     O_2   0.122298 0.226794 0.112776 -0.585957
C99   C     C_2   0.313274 0.690253 0.964989 0.535635
H51   H     H_    0.320409 0.628559 0.974478 0.074532
O11   O     O_2   0.374756 0.726216 0.888976 -0.571012
C100  C     C_2   0.645163 0.671792 0.096564 0.517832
H52   H     H_    0.635224 0.608997 0.100622 0.023400
O12   O     O_2   0.583741 0.714226 0.156609 -0.592579
C101  C     C_2   0.127582 0.839636 0.148029 0.554895
H53   H     H_    0.121860 0.902701 0.158974 0.042545
O13   O     O_2   0.063531 0.799746 0.203665 -0.637617
C102  C     C_2   0.844680 0.808464 0.909850 0.533281
H54   H     H_    0.855809 0.871184 0.901997 0.021151
O14   O     O_2   0.905070 0.764866 0.850224 -0.566831
C103  C     C_2   0.632325 0.327555 0.141870 0.532141
H55   H     H_    0.622508 0.390305 0.154794 0.035703
O15   O     O_2   0.571313 0.284071 0.198536 -0.600584
C104  C     C_2   0.372101 0.336587 0.853011 0.562794
H56   H     H_    0.379024 0.399566 0.841261 0.048207
O16   O     O_2   0.435488 0.295612 0.798085 -0.601302
C105  C     C_2   0.812340 0.431147 0.879098 0.575660
H57   H     H_    0.864202 0.442003 0.793386 -0.017129
O17   O     O_2   0.739662 0.445225 0.915129 -0.564837
C106  C     C_2   0.195669 0.440397 0.107478 0.599214
H58   H     H_    0.146621 0.451734 0.193945 -0.028134
O18   O     O_2   0.269464 0.455510 0.065294 -0.549208
C107  C     C_2   0.304824 0.940057 0.891601 0.585910
H59   H     H_    0.354051 0.950528 0.804930 -0.015001
O19   O     O_2   0.231287 0.956121 0.933423 -0.548258
C108  C     C_2   0.666735 0.924376 0.150745 0.563957
H60   H     H_    0.615043 0.955788 0.222534 -0.012228
O20   O     O_2   0.731610 0.911555 0.139240 -0.569284
H61   H     H_    0.827369 0.571864 0.882220 0.147146
H62   H     H_    0.145662 0.580474 0.153615 0.119110
H63   H     H_    0.352591 0.079709 0.848371 0.121263
H64   H     H_    0.662744 0.071934 0.132507 0.115112

loop_
_geom_bond_atom_site_label_1
_geom_bond_atom_site_label_2
_geom_bond_distance
_ccdc_geom_bond_type
N3    N31   1.401655 A    
C91   H39   1.079082 S    
C69   C73   1.500578 S    
C96   H48   1.086155 S    
N2    N30   1.400417 A    
C23   H15   1.065156 S    
C76   C96   1.505041 S    
C75   C79   1.510968 S    
C107  H59   1.084882 S    
C48   C56   1.457951 S    
C18   C42   1.361502 A    
C78   H30   1.112382 S    
C4    N4    1.318110 A    
C51   C71   1.381426 A    
C76   H28   1.112949 S    
N10   Ni6   1.863851 S    
C106  O18   1.219663 D    
C77   H29   1.112752 S    
N7    N27   1.401767 A    
C26   C38   1.386995 A    
C101  H53   1.085508 S    
C25   H17   1.080549 S    
C71   C75   1.503452 S    
C91   O3    1.217744 D    
C7    N7    1.327423 A    
C89   H37   1.083768 S    
C100  O12   1.220976 D    
C81   C97   1.493018 S    
C16   H8    1.063260 S    
C73   H25   1.113506 S    
C6    N6    1.327274 A    
C3    N3    1.322394 A    
C12   C44   1.394111 A    
C47   C55   1.463373 S    
C60   C64   1.400288 A    
C104  O16   1.221200 D    
C46   C54   1.463891 S    
C73   C93   1.501097 S    
C41   C87   1.440129 S    
C26   N26   1.341318 A    
C13   H5    1.081998 S    
N27   Ni8   1.807053 S    
C25   N25   1.336890 A    
C94   H46   1.086040 S    
N8    N28   1.400527 A    
C18   H10   1.080162 S    
N2    Ni1   1.874987 S    
C50   C78   1.498487 S    
C5    H1    1.076540 S    
C92   H40   1.079382 S    
C10   C106  1.464216 S    
C28   C40   1.380995 A    
C44   C86   1.424460 S    
C53   C59   1.401457 A    
C38   C65   1.462613 S    
C21   N21   1.339854 A    
C17   C41   1.359083 A    
C8    H4    1.071377 S    
N30   Ni6   1.829886 S    
C11   C43   1.402678 A    
C102  H54   1.085738 S    
C55   C57   1.407406 A    
N3    Ni2   1.875041 S    
C23   N23   1.348250 A    
C19   C43   1.362392 A    
C24   N24   1.344698 A    
C62   H42   1.081315 S    
C64   H44   1.081079 S    
C33   C84   1.432490 S    
C15   C47   1.372824 A    
C74   C94   1.504935 S    
C34   C83   1.442571 S    
C50   C54   1.401892 A    
C27   H19   1.080420 S    
C72   C76   1.505116 S    
N22   Ni1   1.859817 S    
C30   C34   1.389044 A    
C90   O2    1.216750 D    
C29   C33   1.386550 A    
C99   H51   1.085557 S    
N31   Ni7   1.829082 S    
C4    C92   1.465998 S    
C31   C35   1.386115 A    
C32   C36   1.387178 A    
N5    N25   1.401767 A    
C10   C42   1.403933 A    
C43   C85   1.448373 S    
C85   C101  1.488357 S    
C2    N2    1.320136 A    
C7    H3    1.076101 S    
C32   H64   1.074137 S    
N23   Ni2   1.859830 S    
C12   C108  1.468045 S    
C64   C68   1.408750 A    
C17   N17   1.316687 A    
C106  H58   1.084849 S    
N11   N19   1.375123 A    
C74   H26   1.113277 S    
C63   C67   1.404071 A    
C101  O13   1.219973 D    
C1    C33   1.365907 A    
N15   Ni8   1.887201 S    
N1    Ni1   1.875041 S    
C83   C99   1.493036 S    
C100  H52   1.085721 S    
C14   H6    1.074632 S    
N9    Ni5   1.864675 S    
C32   N32   1.344969 A    
C76   C80   1.507608 S    
C40   C67   1.445288 S    
C20   H12   1.075879 S    
C98   O10   1.221481 D    
C6    H2    1.076170 S    
C93   O5    1.217481 D    
C5    C37   1.373574 A    
C87   C103  1.490155 S    
C104  H56   1.085501 S    
C49   C77   1.490735 S    
C59   H23   1.081363 S    
C39   C68   1.463005 S    
C75   C95   1.505076 S    
C97   O9    1.221183 D    
N19   Ni4   1.876318 S    
C93   H45   1.086132 S    
C3    C35   1.366609 A    
C82   C98   1.493009 S    
C37   C66   1.456081 S    
C16   C48   1.368945 A    
C23   C47   1.390873 A    
C80   H36   1.112271 S    
N21   Ni1   1.859830 S    
C70   C74   1.503160 S    
C20   C44   1.355827 A    
C61   C65   1.408767 A    
N1    N29   1.401655 A    
N7    Ni4   1.859486 S    
C30   N30   1.347451 A    
C2    C90   1.472394 S    
C79   H35   1.113095 S    
C103  H55   1.085748 S    
N6    N26   1.400527 A    
N11   Ni7   1.864675 S    
C28   H20   1.075102 S    
C75   H27   1.113261 S    
C65   C71   1.403481 A    
C8    N8    1.331355 A    
C27   C39   1.387041 A    
C73   C77   1.508726 S    
C36   C81   1.438107 S    
C78   H34   1.113103 S    
C49   C53   1.390125 A    
C31   H63   1.075453 S    
C18   N18   1.319555 A    
N16   Ni7   1.887981 S    
C4    C36   1.368502 A    
C68   C70   1.403341 A    
C90   H38   1.084567 S    
C103  O15   1.221355 D    
C11   C107  1.464216 S    
N24   Ni2   1.859817 S    
C108  H60   1.084757 S    
N28   Ni7   1.806306 S    
C11   N11   1.350635 A    
C3    C91   1.469203 S    
C61   H41   1.081123 S    
C1    N1    1.321715 A    
C50   C70   1.381577 A    
C27   N27   1.341248 A    
C24   C48   1.384699 A    
C45   C53   1.444157 S    
C82   C88   1.365908 D    
C42   C88   1.448228 S    
C52   C56   1.400869 A    
N15   N23   1.375008 A    
N13   N21   1.375008 A    
C57   C61   1.400141 A    
C14   C46   1.373663 A    
C22   H14   1.067211 S    
C5    N5    1.322946 A    
C77   H33   1.112909 S    
N29   Ni5   1.829082 S    
C9    N9    1.348438 A    
N20   Ni4   1.876188 S    
C21   H13   1.074300 S    
C74   C78   1.510830 S    
C86   C102  1.494726 S    
C1    C89   1.466935 S    
N4    N32   1.400417 A    
C29   H61   1.072356 S    
C96   O8    1.220462 D    
C8    C40   1.376872 A    
C66   C72   1.403648 A    
C81   C87   1.365110 D    
C12   N12   1.342476 A    
N13   Ni6   1.887201 S    
C98   H50   1.085830 S    
C67   C69   1.399056 A    
N16   N24   1.376225 A    
C20   N20   1.311716 A    
N17   Ni3   1.876318 S    
C51   C55   1.401634 A    
C107  O19   1.219510 D    
N8    Ni4   1.859501 S    
C51   C79   1.498284 S    
C30   H62   1.075679 S    
C22   N22   1.348473 A    
C25   C37   1.387308 A    
C108  O20   1.219471 D    
C94   O6    1.220474 D    
C35   C82   1.441408 S    
C13   C45   1.366685 A    
C21   C45   1.371579 A    
C88   C104  1.489650 S    
C52   C80   1.497456 S    
N14   Ni5   1.887981 S    
N10   N18   1.376339 A    
C83   C85   1.364857 D    
N5    Ni3   1.859486 S    
C52   C72   1.378816 A    
C63   H43   1.080347 S    
C95   H47   1.086007 S    
C80   H32   1.112562 S    
C102  O14   1.221057 D    
C17   H9    1.080786 S    
N26   Ni5   1.806306 S    
C84   C100  1.491604 S    
C28   N28   1.332770 A    
C19   N19   1.320520 A    
N25   Ni6   1.807053 S    
C26   H18   1.080454 S    
C9    C41   1.403506 A    
N12   Ni8   1.863851 S    
C15   N15   1.326009 A    
C58   H22   1.081137 S    
C105  H57   1.085102 S    
C79   H31   1.112359 S    
N32   Ni8   1.829886 S    
C92   O4    1.216715 D    
C56   C58   1.407125 A    
C2    C34   1.367871 A    
C15   H7    1.074688 S    
N6    Ni3   1.859501 S    
C16   N16   1.323263 A    
C49   C69   1.386666 A    
C105  O17   1.219358 D    
C58   C62   1.396858 A    
C29   N29   1.342796 A    
N9    N17   1.375123 A    
C95   O7    1.220500 D    
C19   H11   1.080172 S    
C31   N31   1.346750 A    
C7    C39   1.375173 A    
N18   Ni3   1.876188 S    
C24   H16   1.060618 S    
C6    C38   1.374765 A    
C89   O1    1.220481 D    
C97   H49   1.085594 S    
C10   N10   1.350696 A    
C13   N13   1.325929 A    
C99   O11   1.221209 D    
C62   C66   1.406945 A    
C22   C46   1.391398 A    
C9    C105  1.463966 S    
C57   H21   1.081491 S    
N12   N20   1.376339 A    
C14   N14   1.326188 A    
N4    Ni2   1.874987 S    
C54   C60   1.407461 A    
C60   H24   1.081423 S    
C84   C86   1.365328 D    
N14   N22   1.376225 A    
C59   C63   1.384533 A    
