data_mof_unit_47004.cif
_audit_creation_date              2013-03-05T15:50:59-0500
_audit_creation_method            fapswitch 2.2
_symmetry_space_group_name_H-M    P1
_symmetry_Int_Tables_number       1
_space_group_crystal_system       triclinic
_cell_length_a                    11.700561
_cell_length_b                    10.842295
_cell_length_c                    9.616526
_cell_angle_alpha                 90.180188
_cell_angle_beta                  89.683626
_cell_angle_gamma                 93.211993
_cell_volume                      1218.0215006

loop_
_atom_site_label
_atom_site_type_symbol
_atom_site_description
_atom_site_fract_x
_atom_site_fract_y
_atom_site_fract_z
_atom_type_partial_charge
O1    O     O_R   0.499990 0.319640 0.618810 -0.608193
O2    O     O_R   0.500000 0.319660 0.381240 -0.583051
C1    C     C_R   0.510253 0.263518 0.500395 0.799827
O3    O     O_R   0.337190 0.500000 0.618790 -0.581728
O4    O     O_R   0.337200 0.500030 0.381210 -0.564822
C2    C     C_R   0.284150 0.499656 0.500326 0.824502
Cu1   Cu    Cu3+1 0.499990 0.499990 0.640660 0.909500
Cu2   Cu    Cu3+1 0.500010 0.500010 0.359340 0.942844
O5    O     O_R   0.500000 0.680340 0.618760 -0.606961
O6    O     O_R   0.500010 0.680360 0.381190 -0.592540
O7    O     O_R   0.662800 0.499970 0.618790 -0.603965
O8    O     O_R   0.662810 0.500000 0.381210 -0.580193
C3    C     C_R   0.494502 0.737770 0.501097 0.797347
C4    C     C_R   0.715890 0.501728 0.499716 0.811741
C5    C     C_1   0.162426 0.500494 0.500934 -0.175545
C6    C     C_1   0.059948 0.501384 0.500722 0.014914
C7    C     C_1   0.940156 0.502268 0.499912 0.019743
C8    C     C_1   0.837660 0.502457 0.499364 -0.161249
H1    H     H_    0.509485 0.111548 0.278617 0.160106
C9    C     C_R   0.582147 0.118743 0.755837 0.165765
C10   C     C_R   0.548287 0.063900 0.882788 -0.223958
H2    H     H_    0.576527 0.104619 0.980644 0.142695
C11   C     C_R   0.482258 0.953426 0.884992 -0.171858
H3    H     H_    0.454796 0.913065 0.983325 0.151416
C12   C     C_R   0.458782 0.890210 0.761364 -0.156681
H4    H     H_    0.407604 0.804479 0.768784 0.175182
C13   C     C_R   0.495676 0.940804 0.632199 0.045549
C14   C     C_R   0.536778 0.065584 0.629717 0.102939
C15   C     C_R   0.526182 0.130464 0.502573 -0.108799
C16   C     C_R   0.512804 0.064576 0.377666 -0.195274
H5    H     H_    0.498857 0.888623 0.279836 0.165135
C17   C     C_R   0.502453 0.936980 0.378622 -0.156082
C18   C     C_R   0.492463 0.873151 0.504888 -0.103966
H6    H     H_    0.366346 0.366256 0.134541 0.145383
C19   C     C_R   0.658319 0.657947 0.142830 -0.261936
H7    H     H_    0.659029 0.669478 0.252228 0.235965
C20   C     C_R   0.745481 0.725684 0.072678 0.319814
C21   C     C_R   0.748522 0.722480 0.926903 0.034523
C22   C     C_R   0.661096 0.655334 0.856363 -0.223730
H8    H     H_    0.660269 0.668769 0.747257 0.222572
C23   C     C_R   0.578721 0.576915 0.925192 0.130280
C24   C     C_R   0.578040 0.577479 0.074090 0.139709
N1    N     N_R   0.501070 0.501210 0.147910 -0.199197
C25   C     C_R   0.425982 0.426429 0.076356 -0.055212
C26   C     C_R   0.423557 0.426491 0.928953 0.230587
N2    N     N_R   0.501110 0.501290 0.852040 -0.213731
C27   C     C_3   0.841945 0.790907 0.843031 -0.349764
C28   C     C_3   0.829975 0.929922 0.847083 -0.767546
H9    H     H_    0.747004 0.950811 0.800504 0.258801
H10   H     H_    0.834032 0.966285 0.955002 0.281406
H11   H     H_    0.900167 0.976749 0.785508 0.237835
H12   H     H_    0.927684 0.767958 0.880185 0.244333
H13   H     H_    0.838690 0.761195 0.732215 0.189807
C29   C     C_3   0.331359 0.340872 0.865143 -0.375845
C30   C     C_3   0.212353 0.388975 0.888804 -0.822287
H14   H     H_    0.208479 0.484236 0.847685 0.271218
H15   H     H_    0.147420 0.328176 0.834207 0.241230
H16   H     H_    0.190495 0.389371 0.001300 0.245795
H17   H     H_    0.342187 0.324707 0.754057 0.261689
H18   H     H_    0.334334 0.248024 0.913416 0.173911
C31   C     C_3   0.683569 0.213571 0.761404 -0.400417
C32   C     C_3   0.769169 0.203464 0.641301 -0.794859
H19   H     H_    0.788898 0.105904 0.622650 0.258137
H20   H     H_    0.735981 0.241937 0.544094 0.238380
H21   H     H_    0.850011 0.256947 0.667214 0.238766
H22   H     H_    0.655359 0.308687 0.771693 0.251498
H23   H     H_    0.732854 0.198658 0.857971 0.194339
N3    N     N_R   0.828581 0.798244 0.152269 0.119762
O9    O     O_R   0.795981 0.860333 0.260112 -0.386935
O10   O     O_R   0.937479 0.787596 0.131179 -0.368619

loop_
_geom_bond_atom_site_label_1
_geom_bond_atom_site_label_2
_geom_bond_distance
_ccdc_geom_bond_type
O4    Cu2   1.915401 S    
C16   C17   1.381997 A    
C23   N2    1.382679 A    
Cu1   N2    2.032856 S    
C3    C18   1.469704 S    
C27   H12   1.108359 S    
C12   C13   1.414899 A    
C23   C24   1.431861 A    
C4    C8    1.424334 S    
C32   H20   1.106010 S    
H5    C17   1.083491 S    
Cu2   N1    2.033270 S    
Cu2   O8    1.917585 S    
C27   H13   1.112562 S    
C17   C18   1.400592 A    
C32   H19   1.109072 S    
C28   H10   1.109330 S    
O2    C1    1.308433 A    
C2    C5    1.424766 S    
H6    C25   1.082859 S    
Cu1   Cu2   2.705321 S    
C22   C23   1.412321 A    
C29   H18   1.112292 S    
C10   H2    1.083571 S    
C25   C26   1.417946 A    
Cu1   O7    1.915400 S    
C21   C27   1.516228 S    
C15   C16   1.400644 A    
N1    C25   1.351333 A    
O3    Cu1   1.917588 S    
O4    C2    1.299742 A    
O3    C2    1.300178 A    
C28   H9    1.106565 S    
C19   C20   1.395057 A    
C20   C21   1.402474 A    
O8    C4    1.300457 A    
C26   C29   1.514449 S    
C7    C8    1.199422 T    
O1    C1    1.297584 A    
C29   H17   1.089839 S    
C30   H15   1.110645 S    
C10   C11   1.388633 A    
C31   C32   1.532270 S    
O7    C4    1.299381 A    
C30   H14   1.110502 S    
C28   H11   1.110270 S    
C13   C18   1.424820 A    
C6    C7    1.402261 S    
C24   N1    1.382749 A    
C11   H3    1.082788 S    
C5    C6    1.199644 T    
C22   H8    1.059907 S    
C20   N3    1.438350 S    
Cu1   O5    1.967368 S    
C9    C31   1.527034 S    
C11   C12   1.391413 A    
C21   C22   1.399169 A    
C9    C10   1.404908 A    
N3    O10   1.300555 A    
C30   H16   1.110320 S    
C13   C14   1.410450 A    
C1    C15   1.465149 S    
C19   C24   1.411325 A    
C31   H23   1.112820 S    
C29   C30   1.529635 S    
C14   C15   1.421978 A    
O5    C3    1.296876 A    
C9    C14   1.432970 A    
C32   H21   1.110537 S    
O1    Cu1   1.966008 S    
C12   H4    1.079470 S    
C26   N2    1.393579 A    
H1    C16   1.083439 S    
C31   H22   1.104272 S    
Cu2   O6    1.966008 S    
O2    Cu2   1.967368 S    
C19   H7    1.059063 S    
N3    O9    1.301619 A    
C27   C28   1.521887 S    
O6    C3    1.311634 A    
