data_mof_unit_42596.cif
_audit_creation_date              2012-12-10T17:11:30-0500
_audit_creation_method            fapswitch 2.2
_symmetry_space_group_name_H-M    P1
_symmetry_Int_Tables_number       1
_space_group_crystal_system       triclinic
_cell_length_a                    15.020892
_cell_length_b                    13.044451
_cell_length_c                    11.786522
_cell_angle_alpha                 100.866145
_cell_angle_beta                  94.64653
_cell_angle_gamma                 90.377024
_cell_volume                      2260.01763742

loop_
_atom_site_label
_atom_site_type_symbol
_atom_type_description
_atom_site_fract_x
_atom_site_fract_y
_atom_site_fract_z
_atom_type_partial_charge
C1    C     C_R   0.505665 0.299098 0.477661 0.823715
C2    C     C_R   0.492777 0.700543 0.522027 0.852386
C3    C     C_R   0.041784 0.303529 0.396444 0.061987
C4    C     C_R   0.952098 0.679886 0.484642 0.055362
C5    C     C_R   0.480285 0.814779 0.535479 -0.219221
C6    C     C_R   0.515432 0.184347 0.462982 -0.223206
C7    C     C_R   0.477982 0.015206 0.342178 0.191617
C8    C     C_R   0.512662 0.984642 0.656805 0.192117
C9    C     C_R   0.505557 0.120011 0.352367 0.098884
C10   C     C_R   0.486319 0.879266 0.645746 0.092079
C11   C     C_R   0.530027 0.138573 0.561956 0.443906
C12   C     C_R   0.465875 0.860104 0.436092 0.458412
C13   C     C_R   0.510465 0.030792 0.555014 -0.112533
C14   C     C_R   0.482722 0.968521 0.443592 -0.111614
C15   C     C_R   0.428830 0.388352 0.016828 0.091981
C16   C     C_R   0.569359 0.612765 0.983637 0.084704
C17   C     C_R   0.424002 0.409862 0.139101 0.218705
C18   C     C_R   0.574632 0.591064 0.861513 0.236231
C19   C     C_R   0.539482 0.538580 0.158655 0.663529
C20   C     C_R   0.460080 0.462024 0.841677 0.669532
C21   C     C_R   0.526984 0.539058 0.036334 -0.197072
C22   C     C_R   0.472549 0.461217 0.964060 -0.188727
C23   C     C_R   0.329022 0.500207 0.499395 0.857072
C24   C     C_R   0.671202 0.499057 0.499987 0.882404
C25   C     C_R   0.818404 0.585174 0.523892 0.417975
C26   C     C_R   0.186696 0.401467 0.450577 0.420781
C27   C     C_R   0.768105 0.491993 0.496531 -0.184523
C28   C     C_R   0.232018 0.496983 0.495556 -0.184908
C29   C     C_R   0.808225 0.396026 0.452677 0.037995
C30   C     C_R   0.185504 0.589864 0.525338 0.040870
C31   C     C_R   0.902745 0.393921 0.446014 -0.009622
C32   C     C_R   0.092614 0.588707 0.496578 -0.013043
C33   C     C_R   0.951414 0.490293 0.467455 -0.119783
C34   C     C_R   0.045389 0.491772 0.467336 -0.122338
C35   C     C_R   0.906759 0.586191 0.492435 -0.055619
C36   C     C_R   0.091935 0.397590 0.437806 -0.044759
C37   C     C_R   0.950142 0.299953 0.414012 0.484886
C38   C     C_R   0.045596 0.681113 0.488281 0.483576
Cu1   Cu    Cu3+1 0.506660 0.507730 0.615930 0.971371
Cu2   Cu    Cu3+1 0.493340 0.492270 0.384070 0.980301
N1    N     N_R   0.516670 0.519360 0.790130 -0.232654
N2    N     N_R   0.483330 0.480640 0.209870 -0.235642
O1    O     O_R   0.504720 0.354460 0.582000 -0.508432
O2    O     O_R   0.495280 0.645540 0.418000 -0.497416
O3    O     O_R   0.493480 0.341410 0.386200 -0.600201
O4    O     O_R   0.506520 0.658590 0.613800 -0.599442
O5    O     O_R   0.375880 0.506510 0.597910 -0.564229
O6    O     O_R   0.624120 0.493490 0.402090 -0.555856
O7    O     O_R   0.364640 0.493450 0.402110 -0.596523
O8    O     O_R   0.635360 0.506550 0.597890 -0.592969
O9    O     O_3   0.778935 0.674703 0.579395 -0.581213
C39   C     C_3   0.822848 0.707055 0.691447 -0.339495
H1    H     H_    0.830449 0.641606 0.739638 0.148918
H2    H     H_    0.782788 0.768204 0.741150 0.186651
H3    H     H_    0.889605 0.742621 0.688590 0.173738
O10   O     O_3   0.236073 0.312648 0.419474 -0.598438
C40   C     C_3   0.259164 0.268884 0.518430 -0.347473
H4    H     H_    0.201460 0.263774 0.571059 0.150802
H5    H     H_    0.315516 0.313043 0.572642 0.228228
H6    H     H_    0.282241 0.188292 0.489354 0.184853
C41   C     C_3   0.394435 0.284132 0.946425 -0.802061
H7    H     H_    0.409920 0.220901 0.995751 0.205808
H8    H     H_    0.321226 0.285234 0.924840 0.230238
H9    H     H_    0.428226 0.262868 0.865471 0.272978
C42   C     C_3   0.600920 0.718361 0.053543 -0.788945
H10   H     H_    0.586103 0.780375 0.002272 0.203473
H11   H     H_    0.564573 0.739893 0.132456 0.276433
H12   H     H_    0.673764 0.719232 0.078461 0.231954
C43   C     C_3   0.749901 0.298480 0.411326 -0.772686
H13   H     H_    0.761529 0.263736 0.320406 0.257169
H14   H     H_    0.763043 0.241415 0.468821 0.245636
H15   H     H_    0.677908 0.312804 0.411989 0.181742
C44   C     C_3   0.234360 0.686225 0.595489 -0.795168
H16   H     H_    0.274662 0.724288 0.539955 0.217335
H17   H     H_    0.188277 0.743371 0.640029 0.261578
H18   H     H_    0.278916 0.664333 0.666199 0.203376
O11   O     O_3   0.907584 0.203221 0.397199 -0.584109
C45   C     C_3   0.926513 0.159826 0.497454 -0.363097
H19   H     H_    0.906870 0.212752 0.576740 0.149900
H20   H     H_    0.998215 0.140466 0.508884 0.176390
H21   H     H_    0.887021 0.086044 0.487470 0.195719
O12   O     O_3   0.089683 0.772047 0.477623 -0.575375
C46   C     C_3   0.114811 0.761454 0.363145 -0.355333
H22   H     H_    0.142535 0.837518 0.351759 0.184518
H23   H     H_    0.056763 0.740591 0.297630 0.153066
H24   H     H_    0.167315 0.702279 0.345985 0.164128
C47   C     C_3   0.081807 0.207049 0.328021 -0.728773
H25   H     H_    0.029690 0.152829 0.276868 0.236318
H26   H     H_    0.124552 0.229110 0.263487 0.242967
H27   H     H_    0.120372 0.163260 0.386586 0.235586
C48   C     C_3   0.903090 0.776659 0.462946 -0.731977
H28   H     H_    0.930343 0.806545 0.390499 0.220045
H29   H     H_    0.831257 0.760811 0.435457 0.254181
H30   H     H_    0.911058 0.839199 0.541395 0.229907
O13   O     O_3   0.441057 0.796466 0.330062 -0.553932
C49   C     C_3   0.349657 0.767552 0.324939 -0.352753
H31   H     H_    0.307736 0.833507 0.362604 0.142070
H32   H     H_    0.340440 0.700242 0.367963 0.179756
H33   H     H_    0.324757 0.742053 0.232626 0.177416
O14   O     O_3   0.559423 0.201236 0.666874 -0.559018
C50   C     C_3   0.651637 0.224286 0.667532 -0.333738
H34   H     H_    0.662779 0.286620 0.617776 0.177247
H35   H     H_    0.690463 0.153999 0.634232 0.140334
H36   H     H_    0.678303 0.254476 0.758329 0.179720
C51   C     C_3   0.456978 0.838737 0.749835 -0.818268
H37   H     H_    0.420396 0.899529 0.805836 0.221901
H38   H     H_    0.408136 0.772939 0.723607 0.235197
H39   H     H_    0.515581 0.814255 0.800988 0.237897
C52   C     C_3   0.531511 0.159309 0.245758 -0.805999
H40   H     H_    0.564116 0.096858 0.186759 0.221781
H41   H     H_    0.471828 0.185872 0.198603 0.235242
H42   H     H_    0.582513 0.222944 0.267476 0.236426
C53   C     C_3   0.439949 0.957893 0.223161 -0.747593
H43   H     H_    0.430476 0.007776 0.157112 0.200301
H44   H     H_    0.484471 0.894347 0.188333 0.253392
H45   H     H_    0.371397 0.928789 0.228333 0.232181
C54   C     C_3   0.544966 0.043824 0.777338 -0.745601
H46   H     H_    0.549321 0.995817 0.845493 0.199982
H47   H     H_    0.614561 0.072338 0.777947 0.238760
H48   H     H_    0.499480 0.108300 0.805566 0.249362
O15   O     O_3   0.387980 0.409659 0.774951 -0.559159
C55   C     C_3   0.309346 0.464240 0.804691 -0.333331
H49   H     H_    0.315913 0.548817 0.802052 0.158727
H50   H     H_    0.290613 0.455709 0.891620 0.156505
H51   H     H_    0.253256 0.431140 0.741072 0.177480
O16   O     O_3   0.609381 0.594578 0.226663 -0.535507
C56   C     C_3   0.690280 0.543940 0.199785 -0.292996
H52   H     H_    0.708770 0.550885 0.112257 0.143098
H53   H     H_    0.687287 0.459755 0.205699 0.159689
H54   H     H_    0.744758 0.581847 0.263343 0.187043
C57   C     C_3   0.651664 0.638824 0.814380 -0.753297
H55   H     H_    0.692425 0.695326 0.880357 0.179420
H56   H     H_    0.698124 0.575754 0.785093 0.230126
H57   H     H_    0.630435 0.681007 0.744822 0.276357
C58   C     C_3   0.346639 0.361928 0.187278 -0.708597
H58   H     H_    0.298543 0.423720 0.215383 0.226487
H59   H     H_    0.306825 0.303467 0.122500 0.184867
H60   H     H_    0.367833 0.321370 0.258181 0.279487

loop_
_geom_bond_atom_site_label_1
_geom_bond_atom_site_label_2
_ccdc_geom_bond_type
C58   H60   S    
C47   H25   S    
C16   C21   A    
C27   C29   A    
C44   H16   S    
O13   C49   S    
C24   C27   S    
C57   H57   S    
C6    C9    A    
C25   O9    S    
C20   N1    A    
C58   H58   S    
Cu1   N1    S    
O11   C45   S    
C2    O4    A    
C51   H38   S    
O16   C56   S    
C19   C21   A    
C54   H47   S    
C45   H20   S    
C23   O7    A    
Cu2   O7    S    
C49   H33   S    
O10   C40   S    
C43   H14   S    
C41   H8    S    
Cu2   O6    S    
C17   N2    A    
C13   C14   A    
C1    O1    A    
C15   C22   A    
C2    O2    A    
C42   H11   S    
C49   H32   S    
C17   C58   S    
C31   C33   A    
C12   O13   S    
C32   C38   A    
C39   H3    S    
C4    C48   S    
Cu2   N2    S    
C4    C35   A    
C50   H35   S    
C58   H59   S    
C21   C22   A    
C38   O12   S    
C24   O8    A    
C44   H17   S    
C18   C57   S    
C43   H13   S    
C39   H2    S    
C8    C54   S    
C29   C43   S    
C7    C14   A    
C9    C52   S    
Cu2   O3    S    
C51   H39   S    
C23   O5    A    
C3    C47   S    
O9    C39   S    
C24   O6    A    
C50   H34   S    
C5    C12   A    
C18   N1    A    
C6    C11   A    
C30   C44   S    
C45   H19   S    
C40   H6    S    
Cu1   O1    S    
C37   O11   S    
C31   C37   A    
C11   O14   S    
C32   C34   A    
C41   H9    S    
C56   H53   S    
C48   H29   S    
C46   H22   S    
C42   H12   S    
C49   H31   S    
C46   H24   S    
C33   C34   A    
C15   C41   S    
C16   C18   A    
C23   C28   S    
O15   C55   S    
C25   C35   A    
Cu1   O4    S    
C26   C36   A    
C46   H23   S    
C12   C14   A    
O12   C46   S    
C50   H36   S    
C47   H26   S    
C44   H18   S    
C52   H42   S    
C2    C5    S    
C55   H50   S    
C57   H55   S    
C48   H28   S    
C43   H15   S    
C39   H1    S    
Cu1   O5    S    
C53   H43   S    
C7    C9    A    
C20   C22   A    
C57   H56   S    
C26   O10   S    
C19   N2    A    
C53   H45   S    
C15   C17   A    
C25   C27   A    
C51   H37   S    
C19   O16   S    
C26   C28   A    
C7    C53   S    
C55   H51   S    
C52   H41   S    
C20   O15   S    
C5    C10   A    
C29   C31   A    
C54   H46   S    
C48   H30   S    
C30   C32   A    
C11   C13   A    
C45   H21   S    
C1    O3    A    
C40   H4    S    
C3    C36   A    
C28   C30   A    
O14   C50   S    
C33   C35   A    
C54   H48   S    
C34   C36   A    
C41   H7    S    
C56   H54   S    
C40   H5    S    
Cu1   Cu2   S    
C8    C13   A    
Cu2   O2    S    
Cu1   O8    S    
C3    C37   A    
C8    C10   A    
C42   H10   S    
C47   H27   S    
C52   H40   S    
C1    C6    S    
C10   C51   S    
C16   C42   S    
C55   H49   S    
C4    C38   A    
C56   H52   S    
C53   H44   S    
