data_mof_unit_20812.cif
_audit_creation_date              2012-12-10T16:57:09-0500
_audit_creation_method            fapswitch 2.2
_symmetry_space_group_name_H-M    P1
_symmetry_Int_Tables_number       1
_space_group_crystal_system       triclinic
_cell_length_a                    7.770163
_cell_length_b                    8.58075
_cell_length_c                    16.498539
_cell_angle_alpha                 91.795271
_cell_angle_beta                  80.280869
_cell_angle_gamma                 93.745863
_cell_volume                      1081.68553562

loop_
_atom_site_label
_atom_site_type_symbol
_atom_type_description
_atom_site_fract_x
_atom_site_fract_y
_atom_site_fract_z
_atom_type_partial_charge
C1    C     C_R   0.546225 0.794837 0.497974 0.965096
C2    C     C_R   0.393825 0.547740 0.222239 -0.282853
C3    C     C_R   0.595943 0.732330 0.835330 -0.149494
C4    C     C_R   0.403987 0.606229 0.144226 -0.143846
C5    C     C_R   0.446451 0.704938 0.894599 0.095869
C6    C     C_R   0.565835 0.661626 0.100144 0.154853
C7    C     C_R   0.306267 0.607584 0.875969 -0.163351
C8    C     C_R   0.717940 0.651093 0.133747 -0.288359
C9    C     C_R   0.317771 0.529644 0.800072 0.443424
C10   C     C_R   0.709740 0.591667 0.212566 0.458619
C11   C     C_2   0.448012 0.747950 0.980753 -0.211491
C12   C     C_R   0.453764 0.205167 0.502124 0.959973
C13   C     C_2   0.584014 0.708893 0.014389 -0.184068
C14   C     C_2   0.570587 0.958274 0.496841 -0.370382
C15   C     C_2   0.429390 0.041721 0.503382 -0.376419
C16   C     C_R   0.477387 0.506382 0.654960 0.841779
C17   C     C_R   0.524551 0.503720 0.344868 0.891105
C18   C     C_R   0.470652 0.556004 0.740603 -0.157605
C19   C     C_R   0.544821 0.541863 0.257686 -0.092329
C20   C     C_R   0.608195 0.657790 0.759105 -0.226589
H1    H     H_    0.723782 0.683472 0.713651 0.169884
H2    H     H_    0.296093 0.990585 0.509631 0.181665
H3    H     H_    0.022922 0.379964 0.439114 0.195601
H4    H     H_    0.977083 0.620077 0.560865 0.188333
H5    H     H_    0.962212 0.625456 0.207022 0.318086
H6    H     H_    0.220780 0.352347 0.742712 0.333311
H7    H     H_    0.266580 0.508595 0.255331 0.193798
H8    H     H_    0.706929 0.684869 0.975125 0.158807
H9    H     H_    0.324217 0.771860 0.018949 0.144871
H10   H     H_    0.192282 0.583358 0.922626 0.146745
H11   H     H_    0.843393 0.689165 0.098370 0.120886
H12   H     H_    0.284922 0.603572 0.118373 0.130777
H13   H     H_    0.704941 0.808176 0.848887 0.151942
H14   H     H_    0.703883 0.009403 0.490605 0.181616
N1    N     N_2   0.953500 0.457650 0.478520 -0.158699
N2    N     N_2   0.046500 0.542350 0.521480 -0.164330
O1    O     O_R   0.388470 0.738640 0.505270 -0.611337
O2    O     O_3   0.179687 0.427237 0.787576 -0.763129
O3    O     O_R   0.611530 0.261360 0.494730 -0.612000
O4    O     O_R   0.679650 0.711510 0.491500 -0.624493
O5    O     O_R   0.320350 0.288490 0.508500 -0.629612
O6    O     O_R   0.337210 0.515200 0.623500 -0.597604
O7    O     O_R   0.662790 0.484800 0.376500 -0.544257
O8    O     O_R   0.628380 0.488060 0.609730 -0.616609
O9    O     O_R   0.371620 0.511940 0.390270 -0.633817
O10   O     O_3   0.859769 0.585263 0.246710 -0.759358
Zn1   Zn    Zn3+2 0.305580 0.518120 0.509190 0.957105
Zn2   Zn    Zn3+2 0.694420 0.481880 0.490810 0.977883

loop_
_geom_bond_atom_site_label_1
_geom_bond_atom_site_label_2
_ccdc_geom_bond_type
C10   O10   S    
C2    C4    A    
C17   O7    A    
C13   H8    S    
C14   H14   S    
C2    H7    S    
O1    Zn1   S    
O7    Zn2   S    
C16   O8    A    
H3    N1    S    
N1    N2    D    
C12   C15   S    
C1    O1    A    
C10   C19   A    
C7    C9    A    
C12   O3    A    
O5    Zn1   S    
C3    C20   A    
C7    H10   S    
H4    N2    S    
C6    C13   S    
C11   C13   D    
C4    H12   S    
N2    Zn1   S    
N1    Zn2   S    
C8    C10   A    
C9    O2    S    
C17   C19   S    
C17   O9    A    
C5    C11   S    
C18   C20   A    
O6    Zn1   S    
O9    Zn1   S    
C4    C6    A    
C3    H13   S    
C16   O6    A    
C9    C18   A    
C20   H1    S    
C11   H9    S    
C12   O5    A    
C16   C18   S    
C5    C7    A    
O4    Zn2   S    
C14   C15   D    
H6    O2    S    
C6    C8    A    
C1    C14   S    
C1    O4    A    
C2    C19   A    
C8    H11   S    
H5    O10   S    
C15   H2    S    
O8    Zn2   S    
O3    Zn2   S    
C3    C5    A    
