data_mof_unit_49941.cif
_audit_creation_date              2012-12-10T19:25:03-0500
_audit_creation_method            fapswitch 2.2
_symmetry_space_group_name_H-M    P1
_symmetry_Int_Tables_number       1
_space_group_crystal_system       triclinic
_cell_length_a                    15.71257
_cell_length_b                    10.508199
_cell_length_c                    9.776581
_cell_angle_alpha                 90.134455
_cell_angle_beta                  90.024514
_cell_angle_gamma                 89.917596
_cell_volume                      1614.21297143

loop_
_atom_site_label
_atom_site_type_symbol
_atom_type_description
_atom_site_fract_x
_atom_site_fract_y
_atom_site_fract_z
_atom_type_partial_charge
C1    C     C_R   0.500746 0.257641 0.500008 0.903856
C2    C     C_3   0.480484 0.612019 0.951680 -0.235310
C3    C     C_3   0.574519 0.468465 0.950934 -0.262891
C4    C     C_3   0.425480 0.531535 0.049066 -0.262892
C5    C     C_3   0.446002 0.421006 0.952508 0.690937
C6    C     C_3   0.553997 0.578994 0.047492 0.690937
C7    C     C_R   0.338103 0.499800 0.499943 0.884853
C8    C     C_R   0.661897 0.500200 0.500057 0.884853
C9    C     C_3   0.971964 0.385026 0.528345 0.648101
C10   C     C_3   0.028036 0.614974 0.471655 0.648101
C11   C     C_3   0.027764 0.416576 0.403472 -0.325873
C12   C     C_R   0.499254 0.742359 0.499992 0.903855
C13   C     C_3   0.972236 0.583424 0.596528 -0.325873
C14   C     C_1   0.249145 0.499100 0.499893 -0.164453
C15   C     C_1   0.750855 0.500900 0.500107 -0.164453
C16   C     C_3   0.028001 0.464339 0.625647 -0.316240
C17   C     C_3   0.971999 0.535661 0.374353 -0.316240
C18   C     C_3   0.082901 0.498134 0.500222 0.052542
C19   C     C_3   0.917099 0.501866 0.499778 0.052542
C20   C     C_1   0.173811 0.498523 0.499990 0.009044
C21   C     C_1   0.826188 0.501477 0.500010 0.009044
C22   C     C_3   0.520694 0.039540 0.623644 0.660095
C23   C     C_3   0.578789 0.956629 0.533532 -0.344629
C24   C     C_3   0.479305 0.960460 0.376355 0.660096
C25   C     C_3   0.999899 0.175554 0.578817 -0.326866
C26   C     C_3   0.000101 0.824446 0.421183 -0.326865
C27   C     C_3   0.568418 0.996375 0.841022 -0.304537
C28   C     C_3   0.431580 0.003625 0.158979 -0.304542
C29   C     C_3   0.331339 0.289811 0.990062 -0.352802
C30   C     C_3   0.668660 0.710190 0.009937 -0.352798
C31   C     C_3   0.421211 0.043371 0.466468 -0.344629
C32   C     C_3   0.499327 0.877345 0.499875 -0.121908
C33   C     C_3   0.500673 0.122655 0.500125 -0.121907
C34   C     C_3   0.441605 0.958927 0.592229 -0.303960
C35   C     C_3   0.558394 0.041073 0.407771 -0.303959
C36   C     C_3   0.519516 0.387981 0.048320 -0.235309
H1    H     H_    0.395653 0.920937 0.668048 0.164408
H2    H     H_    0.030021 0.917194 0.396822 0.191095
H3    H     H_    0.947056 0.565993 0.273282 0.160162
H4    H     H_    0.052944 0.434007 0.726718 0.160162
H5    H     H_    0.641809 0.916214 0.561071 0.155975
H6    H     H_    0.358190 0.083786 0.438928 0.155975
H7    H     H_    0.630695 0.957031 0.807459 0.152305
H8    H     H_    0.520320 0.919348 0.850155 0.153797
H9    H     H_    0.577765 0.038088 0.944219 0.193797
H10   H     H_    0.479677 0.080654 0.149848 0.153798
H11   H     H_    0.369303 0.042965 0.192541 0.152307
H12   H     H_    0.604346 0.079063 0.331952 0.164408
H13   H     H_    0.422235 0.961914 0.055781 0.193797
H14   H     H_    0.636631 0.442170 0.904693 0.163251
H15   H     H_    0.363369 0.557830 0.095307 0.163251
H16   H     H_    0.535148 0.294152 0.093724 0.147243
H17   H     H_    0.464852 0.705848 0.906276 0.147243
H18   H     H_    0.283769 0.365216 0.013186 0.165199
H19   H     H_    0.363272 0.258195 0.085777 0.147262
H20   H     H_    0.296628 0.206859 0.947442 0.196376
H21   H     H_    0.636726 0.741810 0.914225 0.147261
H22   H     H_    0.716229 0.634785 0.986809 0.165197
H23   H     H_    0.052522 0.348051 0.326547 0.155887
H24   H     H_    0.703373 0.793139 0.052560 0.196376
H25   H     H_    0.947478 0.651949 0.673453 0.155887
H26   H     H_    0.041053 0.202031 0.666950 0.163138
H27   H     H_    0.038870 0.161993 0.484976 0.155392
H28   H     H_    0.969979 0.082806 0.603178 0.191095
H29   H     H_    0.961130 0.838007 0.515024 0.155392
H30   H     H_    0.958947 0.797969 0.333050 0.163138
N1    N     N_3   0.499940 0.500030 0.863290 -0.118756
N2    N     N_3   0.500060 0.499970 0.136710 -0.118757
O1    O     O_R   0.500000 0.313960 0.616610 -0.535585
O2    O     O_3   0.065015 0.734021 0.442113 -0.601520
O3    O     O_3   0.540963 0.093131 0.752072 -0.574687
O4    O     O_3   0.459037 0.906869 0.247927 -0.574687
O5    O     O_3   0.389960 0.332762 0.891612 -0.562402
O6    O     O_3   0.610040 0.667237 0.108388 -0.562403
O7    O     O_R   0.500000 0.686040 0.383390 -0.535585
O8    O     O_R   0.500040 0.313950 0.383350 -0.653230
O9    O     O_R   0.499960 0.686050 0.616650 -0.653230
O10   O     O_R   0.376760 0.499990 0.616610 -0.583469
O11   O     O_R   0.623240 0.500010 0.383390 -0.583469
O12   O     O_R   0.376790 0.499980 0.383350 -0.626975
O13   O     O_R   0.623210 0.500020 0.616650 -0.626975
O14   O     O_3   0.934985 0.265979 0.557886 -0.601520
Zn1   Zn    Zn3+2 0.499980 0.500010 0.655740 1.001378
Zn2   Zn    Zn3+2 0.500020 0.499990 0.344260 1.001377

loop_
_geom_bond_atom_site_label_1
_geom_bond_atom_site_label_2
_ccdc_geom_bond_type
C30   H21   S    
C28   H11   S    
N1    Zn1   S    
C31   H6    S    
C34   H1    S    
C5    N1    S    
C3    C6    S    
O8    Zn2   S    
C1    C33   S    
C11   C18   S    
C2    C6    S    
C28   H10   S    
C19   C21   S    
C9    C16   S    
C17   H3    S    
O11   Zn2   S    
C30   O6    S    
O7    Zn2   S    
C29   O5    S    
C29   H18   S    
O9    Zn1   S    
C10   C17   S    
C5    C36   S    
C25   H27   S    
C17   C19   S    
C27   H8    S    
C9    C19   S    
C7    C14   S    
C30   H24   S    
C8    O11   A    
C31   C33   S    
C36   H16   S    
O12   Zn2   S    
C9    O14   S    
C27   H9    S    
C6    N2    S    
C12   C32   S    
C1    O8    A    
C28   O4    S    
C11   H23   S    
C35   H12   S    
O10   Zn1   S    
O13   Zn1   S    
C3    H14   S    
C6    O6    S    
C22   C34   S    
C24   C35   S    
C13   C19   S    
C4    H15   S    
C8    O13   A    
N2    Zn2   S    
C14   C20   T    
C2    N1    S    
C4    N2    S    
C26   H2    S    
C29   H19   S    
C2    H17   S    
C1    O1    A    
C25   H28   S    
C26   H30   S    
C2    C4    S    
C24   C32   S    
O1    Zn1   S    
C28   H13   S    
C12   O9    A    
C31   C34   S    
C9    C11   S    
C16   H4    S    
C7    O10   A    
C10   O2    S    
C8    C15   S    
C23   C35   S    
C25   O14   S    
C26   O2    S    
C12   O7    A    
C22   O3    S    
C27   O3    S    
C24   O4    S    
C22   C33   S    
C11   C17   S    
C26   H29   S    
C3    N1    S    
C4    C5    S    
C10   C13   S    
C36   N2    S    
C29   H20   S    
C23   H5    S    
C23   C32   S    
C24   C31   S    
C3    C36   S    
C10   C18   S    
C30   H22   S    
C33   C35   S    
C18   C20   S    
C25   H26   S    
C5    O5    S    
C27   H7    S    
C15   C21   T    
C13   H25   S    
C16   C18   S    
C13   C16   S    
C22   C23   S    
C32   C34   S    
C7    O12   A    
