data_mof_unit_47413.cif
_audit_creation_date              2012-10-26T20:48:51-0400
_audit_creation_method            fapswitch 2.2
_symmetry_space_group_name_H-M    P1
_symmetry_Int_Tables_number       1
_space_group_crystal_system       triclinic
_cell_length_a                    15.193237
_cell_length_b                    13.87627
_cell_length_c                    9.055555
_cell_angle_alpha                 89.790302
_cell_angle_beta                  91.49627
_cell_angle_gamma                 90.298399
_cell_volume                      1908.45283096

loop_
_atom_site_label
_atom_site_type_symbol
_atom_type_description
_atom_site_fract_x
_atom_site_fract_y
_atom_site_fract_z
_atom_type_partial_charge
C1    C     C_R   0.329307 0.499394 0.495462 0.582423
C2    C     C_R   0.580214 0.891642 0.547352 0.196812
C3    C     C_R   0.499867 0.500102 0.220583 0.548117
C4    C     C_R   0.500167 0.499891 0.779408 0.549893
C5    C     C_R   0.502958 0.055017 0.517708 0.073280
C6    C     C_R   0.502421 0.945557 0.523539 0.079421
C7    C     C_1   0.500011 0.500135 0.065571 -0.065800
C8    C     C_1   0.500110 0.499839 0.934441 -0.066717
C9    C     C_R   0.093997 0.571002 0.401468 0.247549
C10   C     C_R   0.897895 0.414524 0.396957 0.248957
C11   C     C_R   0.904446 0.577284 0.495821 0.255932
C12   C     C_R   0.669124 0.499875 0.485524 0.578109
C13   C     C_R   0.092644 0.410441 0.507327 0.227325
C14   C     C_R   0.183688 0.579546 0.439528 0.214407
C15   C     C_R   0.806080 0.413841 0.412570 0.190336
C16   C     C_R   0.813799 0.583520 0.473421 0.206071
C17   C     C_R   0.184776 0.409313 0.500973 0.184215
C18   C     C_R   0.231717 0.496559 0.480849 -0.080164
C19   C     C_R   0.764286 0.498365 0.460256 -0.089802
C20   C     C_R   0.046088 0.490800 0.452069 -0.030614
C21   C     C_R   0.948511 0.493166 0.451293 -0.032735
C22   C     C_3   0.046836 0.623008 0.172548 0.024428
C23   C     C_R   0.536908 0.213838 0.620691 0.005645
C24   C     C_3   0.122256 0.670383 0.089144 -0.239321
C25   C     C_3   0.122999 0.779886 0.106075 -0.377226
C26   C     C_3   0.944475 0.356002 0.175611 0.045454
C27   C     C_3   0.903616 0.272482 0.087301 -0.237495
C28   C     C_3   0.943352 0.175359 0.132089 -0.398510
C29   C     C_3   0.957901 0.650825 0.705351 0.020973
C30   C     C_3   0.930489 0.746196 0.774560 -0.231417
C31   C     C_3   0.991742 0.829199 0.733970 -0.422173
C32   C     C_3   0.051515 0.319308 0.705043 0.040746
C33   C     C_3   0.047512 0.212735 0.748051 -0.225544
C34   C     C_R   0.424712 0.793082 0.478365 0.009963
C35   C     C_3   0.963341 0.163550 0.690252 -0.411262
C36   C     C_3   0.194256 0.730930 0.537705 -0.016068
C37   C     C_3   0.230213 0.704535 0.692161 -0.410418
C38   C     C_3   0.757586 0.257698 0.432570 0.024707
C39   C     C_3   0.704108 0.180321 0.351326 -0.389067
C40   C     C_3   0.768969 0.674121 0.278220 0.014051
C41   C     C_3   0.742324 0.773593 0.223466 -0.394023
C42   C     C_3   0.225718 0.277052 0.374196 0.009086
C43   C     C_3   0.233995 0.168728 0.393151 -0.336012
C44   C     C_3   0.642781 0.112961 0.830660 0.015838
C45   C     C_R   0.464667 0.205241 0.387455 0.014728
C46   C     C_3   0.692668 0.043194 0.932041 -0.360168
C47   C     C_3   0.325747 0.948996 0.664636 -0.025180
C48   C     C_3   0.233996 0.989376 0.686643 -0.394144
C49   C     C_3   0.487645 0.031137 0.172614 -0.014963
C50   C     C_3   0.444690 0.967076 0.055030 -0.356803
C51   C     C_3   0.727576 0.921672 0.511085 -0.033972
C52   C     C_3   0.807583 0.976292 0.572190 -0.385615
C53   C     C_R   0.575889 0.789260 0.540418 0.011428
C54   C     C_R   0.539835 0.111594 0.633793 0.215463
C55   C     C_R   0.422971 0.893793 0.500367 0.231870
C56   C     C_R   0.466120 0.103617 0.392687 0.193179
Cu1   Cu    Cu3+1 0.500000 0.596430 0.500000 0.947293
Cu2   Cu    Cu3+1 0.500000 0.403570 0.500000 0.949526
H1    H     H_    0.563380 0.258284 0.708537 0.126309
H2    H     H_    0.176519 0.811356 0.039736 0.116864
H3    H     H_    0.134854 0.800121 0.223451 0.208053
H4    H     H_    0.015457 0.361874 0.150078 0.108768
H5    H     H_    0.912477 0.424161 0.136253 0.073637
H6    H     H_    0.831439 0.270204 0.103424 0.188519
H7    H     H_    0.914329 0.285442 0.968171 0.087506
H8    H     H_    0.016275 0.177988 0.126977 0.139652
H9    H     H_    0.918124 0.118560 0.055756 0.109993
H10   H     H_    0.924629 0.155852 0.246149 0.178218
H11   H     H_    0.027736 0.635490 0.735754 0.114895
H12   H     H_    0.364434 0.756197 0.451497 0.198593
H13   H     H_    0.917398 0.592482 0.756116 0.064694
H14   H     H_    0.862054 0.763663 0.737557 0.180183
H15   H     H_    0.931330 0.738109 0.896683 0.092363
H16   H     H_    0.060230 0.813256 0.771223 0.130352
H17   H     H_    0.970707 0.896008 0.789777 0.110513
H18   H     H_    0.989658 0.841763 0.612743 0.188403
H19   H     H_    0.994252 0.357809 0.750494 0.096190
H20   H     H_    0.112741 0.349912 0.757747 0.107440
H21   H     H_    0.105339 0.175085 0.703391 0.170540
H22   H     H_    0.051406 0.206365 0.870151 0.098797
H23   H     H_    0.434765 0.241134 0.292753 0.133391
H24   H     H_    0.960783 0.088533 0.733027 0.110838
H25   H     H_    0.962444 0.160963 0.567664 0.189602
H26   H     H_    0.904226 0.202497 0.727255 0.123974
H27   H     H_    0.121323 0.735343 0.538497 0.191570
H28   H     H_    0.217188 0.804383 0.510124 0.170878
H29   H     H_    0.210801 0.760195 0.772422 0.089800
H30   H     H_    0.203059 0.634154 0.728325 0.121806
H31   H     H_    0.303087 0.700470 0.693022 0.178108
H32   H     H_    0.727507 0.271075 0.541290 0.125270
H33   H     H_    0.825586 0.230467 0.451787 0.156525
H34   H     H_    0.633266 0.748240 0.572703 0.177054
H35   H     H_    0.742692 0.149930 0.260228 0.121385
H36   H     H_    0.686264 0.121717 0.428230 0.112021
H37   H     H_    0.642436 0.211403 0.303814 0.177872
H38   H     H_    0.717378 0.622288 0.238825 0.138028
H39   H     H_    0.832286 0.656029 0.225382 0.121654
H40   H     H_    0.793807 0.827137 0.255534 0.142159
H41   H     H_    0.735553 0.773134 0.101044 0.097235
H42   H     H_    0.677927 0.793800 0.269041 0.143095
H43   H     H_    0.281945 0.304060 0.309469 0.129633
H44   H     H_    0.163709 0.290135 0.308184 0.130508
H45   H     H_    0.983472 0.651507 0.127547 0.125799
H46   H     H_    0.173563 0.139410 0.443471 0.148366
H47   H     H_    0.242142 0.134268 0.283903 0.130934
H48   H     H_    0.291932 0.151743 0.465239 0.200129
H49   H     H_    0.619526 0.173216 0.899937 0.106880
H50   H     H_    0.689813 0.140690 0.747906 0.113295
H51   H     H_    0.715350 0.980069 0.869089 0.197456
H52   H     H_    0.750924 0.080125 0.982801 0.072509
H53   H     H_    0.649880 0.017445 0.021295 0.123908
H54   H     H_    0.374045 0.998834 0.719151 0.150544
H55   H     H_    0.329684 0.877963 0.721947 0.115209
H56   H     H_    0.045516 0.544104 0.149063 0.057343
H57   H     H_    0.184952 0.955043 0.610420 0.149975
H58   H     H_    0.214034 0.976055 0.802100 0.094273
H59   H     H_    0.234262 0.068224 0.667908 0.143592
H60   H     H_    0.544966 0.991645 0.222253 0.107997
H61   H     H_    0.511095 0.098522 0.118781 0.132503
H62   H     H_    0.388207 0.005070 0.001172 0.150191
H63   H     H_    0.493100 0.948753 0.969968 0.146283
H64   H     H_    0.420684 0.899301 0.106180 0.158167
H65   H     H_    0.712941 0.947402 0.396524 0.111107
H66   H     H_    0.745548 0.844496 0.511511 0.188112
H67   H     H_    0.186293 0.640812 0.129567 0.181593
H68   H     H_    0.826234 0.948170 0.683392 0.142928
H69   H     H_    0.863911 0.966770 0.497994 0.103961
H70   H     H_    0.793376 0.054217 0.581614 0.138864
H71   H     H_    0.114593 0.652544 0.970074 0.083485
H72   H     H_    0.059264 0.810602 0.066458 0.133101
N1    N     N_R   0.500000 0.258690 0.500000 -0.272680
N2    N     N_R   0.500000 0.741310 0.500000 -0.291129
O1    O     O_R   0.371460 0.581430 0.500010 -0.476907
O2    O     O_3   0.937282 0.337640 0.328681 -0.509287
O3    O     O_3   0.949325 0.657199 0.549406 -0.497202
O4    O     O_3   0.048955 0.327622 0.549467 -0.496869
O5    O     O_3   0.225215 0.667880 0.427721 -0.552355
O6    O     O_3   0.756112 0.342011 0.345206 -0.535838
O7    O     O_3   0.777660 0.671821 0.435046 -0.542208
O8    O     O_3   0.227152 0.321741 0.514865 -0.519871
O9    O     O_3   0.569865 0.065203 0.762475 -0.542682
O10   O     O_3   0.342687 0.939582 0.512039 -0.547833
O11   O     O_3   0.425051 0.052462 0.279729 -0.546185
O12   O     O_R   0.628540 0.418570 0.499990 -0.478649
O13   O     O_3   0.655287 0.938282 0.601537 -0.545230
O14   O     O_R   0.628540 0.581430 0.499990 -0.484148
O15   O     O_R   0.371460 0.418570 0.500010 -0.458161
O16   O     O_R   0.500000 0.581420 0.288390 -0.492704
O17   O     O_R   0.500000 0.418580 0.711610 -0.509272
O18   O     O_R   0.500000 0.581420 0.711610 -0.498721
O19   O     O_R   0.500000 0.418580 0.288390 -0.506935
O20   O     O_3   0.052665 0.645337 0.324955 -0.508535

loop_
_geom_bond_atom_site_label_1
_geom_bond_atom_site_label_2
_ccdc_geom_bond_type
Cu1   N2    S    
C9    O20   S    
C51   H65   S    
C14   C18   A    
C37   H30   S    
C28   H8    S    
C50   H64   S    
C26   H5    S    
C6    C55   A    
C4    C8    S    
C52   H70   S    
C7    C8    T    
C49   H61   S    
C2    O13   S    
C15   C19   A    
C4    O17   A    
C47   O10   S    
C26   C27   S    
C46   H51   S    
C26   O2    S    
C36   C37   S    
C28   H10   S    
C3    C7    S    
C10   C15   A    
C30   C31   S    
C51   O13   S    
C47   H54   S    
C40   O7    S    
C43   H47   S    
C12   O14   A    
C1    C18   S    
C43   H46   S    
C39   H35   S    
C5    C56   A    
C32   H19   S    
C56   O11   S    
C24   H71   S    
C52   H69   S    
C49   H60   S    
C45   C56   A    
C44   O9    S    
C41   H41   S    
C25   H2    S    
C36   O5    S    
C34   H12   S    
Cu2   O17   S    
C48   H58   S    
C15   O6    S    
C34   N2    A    
C3    O16   A    
C55   O10   S    
C46   H53   S    
C51   H66   S    
Cu1   O1    S    
C2    C6    A    
C50   H63   S    
C40   H38   S    
C1    O1    A    
C25   H72   S    
C42   H44   S    
C35   H24   S    
C44   C46   S    
C29   H11   S    
C44   H50   S    
C10   C21   A    
C38   C39   S    
C22   O20   S    
C42   O8    S    
C51   C52   S    
C5    C54   A    
C28   H9    S    
C24   C25   S    
C40   H39   S    
C32   O4    S    
C30   H15   S    
C52   H68   S    
Cu2   O15   S    
C33   H21   S    
C31   H16   S    
C36   H28   S    
C38   H33   S    
C11   C21   A    
C22   H45   S    
C12   O12   A    
C43   H48   S    
C23   H1    S    
C9    C14   A    
C39   H36   S    
C29   C30   S    
C27   H7    S    
C11   O3    S    
C11   C16   A    
C9    C20   A    
C31   H17   S    
C47   C48   S    
C14   O5    S    
C22   H56   S    
Cu2   N1    S    
Cu1   O18   S    
C53   H34   S    
C17   C18   A    
C38   O6    S    
C41   H42   S    
C23   N1    A    
C53   N2    A    
C25   H3    S    
C39   H37   S    
C48   H57   S    
C40   C41   S    
C29   O3    S    
C45   N1    A    
C46   H52   S    
C24   H67   S    
C13   O4    S    
C50   H62   S    
C1    O15   A    
C16   O7    S    
C42   C43   S    
C42   H43   S    
Cu2   O19   S    
C23   C54   A    
C44   H49   S    
C47   H55   S    
C35   H25   S    
C13   C20   A    
C37   H29   S    
C45   H23   S    
C10   O2    S    
C2    C53   A    
C30   H14   S    
C35   H26   S    
C33   H22   S    
C48   H59   S    
C37   H31   S    
C36   H27   S    
C4    O18   A    
C38   H32   S    
C3    O19   A    
C13   C17   A    
C32   C33   S    
C26   H4    S    
C31   H18   S    
C5    C6    S    
C16   C19   A    
C49   O11   S    
C12   C19   S    
C33   C35   S    
C17   O8    S    
C22   C24   S    
C27   H6    S    
C32   H20   S    
Cu2   O12   S    
C34   C55   A    
C54   O9    S    
C20   C21   S    
C49   C50   S    
Cu1   O16   S    
C27   C28   S    
C41   H40   S    
Cu1   Cu2   S    
Cu1   O14   S    
C29   H13   S    
