data_mof_unit_44317.cif
_audit_creation_date              2012-12-10T18:46:19-0500
_audit_creation_method            fapswitch 2.2
_symmetry_space_group_name_H-M    P1
_symmetry_Int_Tables_number       1
_space_group_crystal_system       triclinic
_cell_length_a                    9.862028
_cell_length_b                    10.786667
_cell_length_c                    13.069219
_cell_angle_alpha                 90.523333
_cell_angle_beta                  69.784345
_cell_angle_gamma                 90.318319
_cell_volume                      1304.58076966

loop_
_atom_site_label
_atom_site_type_symbol
_atom_type_description
_atom_site_fract_x
_atom_site_fract_y
_atom_site_fract_z
_atom_type_partial_charge
C1    C     C_R   0.500263 0.739497 0.500169 0.873542
C2    C     C_R   0.365147 0.499120 0.825138 -0.162732
C3    C     C_R   0.607740 0.934114 0.525300 -0.220896
C4    C     C_R   0.419137 0.499225 0.705109 0.837986
C5    C     C_R   0.610953 0.061152 0.523316 -0.015709
C6    C     C_R   0.503143 0.125759 0.495697 -0.131223
C7    C     C_R   0.398124 0.059171 0.465611 -0.007591
C8    C     C_R   0.398080 0.932135 0.468350 -0.223069
C9    C     C_R   0.501433 0.870763 0.498771 -0.051003
C10   C     C_R   0.963976 0.439039 0.420307 -0.018450
C11   C     C_R   0.107909 0.440460 0.419616 -0.044297
C12   C     C_R   0.429517 0.478620 0.986741 0.049615
C13   C     C_R   0.037660 0.561282 0.579092 -0.001391
C14   C     C_R   0.894043 0.563728 0.579112 0.043750
C15   C     C_R   0.500752 0.259489 0.498330 0.856230
C16   C     C_R   0.580472 0.498793 0.295409 0.884788
C17   C     C_R   0.775756 0.368447 0.016249 0.003119
C18   C     C_R   0.629857 0.480119 0.178165 -0.047683
C19   C     C_R   0.236137 0.563031 0.886778 -0.090653
C20   C     C_R   0.196596 0.570700 0.001501 0.008150
C21   C     C_R   0.294761 0.529998 0.049611 -0.221441
C22   C     C_1   0.728798 0.119583 0.547920 0.201489
C23   C     C_R   0.452617 0.445494 0.878596 0.081892
C24   C     C_1   0.291508 0.115072 0.427535 0.220317
C25   C     C_2   0.788633 0.640884 0.663322 0.415114
C26   C     C_1   0.748570 0.214226 0.830468 0.229274
C27   C     C_2   0.920691 0.316643 0.956208 0.433698
C28   C     C_2   0.148071 0.626382 0.831168 0.412943
C29   C     C_2   0.059985 0.630453 0.072258 0.402129
C30   C     C_R   0.541833 0.458466 0.028617 0.071990
C31   C     C_R   0.663441 0.383241 0.971151 0.116329
C32   C     C_R   0.661893 0.322409 0.875096 -0.017310
C33   C     C_R   0.561470 0.358061 0.827448 -0.213917
C34   C     C_R   0.535708 0.514265 0.126326 -0.229816
C35   C     C_R   0.752588 0.410800 0.122656 -0.273406
H1    H     H_    0.829819 0.389636 0.162237 0.160941
H2    H     H_    0.698187 0.682725 0.648912 0.104857
H3    H     H_    0.978352 0.266567 0.000088 0.042029
H4    H     H_    0.200079 0.686657 0.762627 0.054656
H5    H     H_    0.995814 0.686586 0.038107 0.127674
H6    H     H_    0.318215 0.880808 0.444917 0.166409
H7    H     H_    0.938548 0.390336 0.356456 0.139991
H8    H     H_    0.191472 0.394368 0.354179 0.147144
H9    H     H_    0.066800 0.611877 0.640158 0.177672
H10   H     H_    0.452747 0.580669 0.167454 0.149699
H11   H     H_    0.263541 0.538225 0.137121 0.178040
H12   H     H_    0.564679 0.312747 0.752263 0.163437
H13   H     H_    0.688720 0.884505 0.547666 0.153145
N1    N     N_R   0.142790 0.500030 0.500030 -0.109515
N2    N     N_R   0.857180 0.499940 0.500010 -0.126225
N3    N     N_1   0.823919 0.166121 0.566377 -0.168287
N4    N     N_1   0.205397 0.157718 0.396796 -0.215014
N5    N     N_1   0.817241 0.126906 0.795513 -0.163115
O1    O     O_R   0.385370 0.683250 0.500010 -0.633580
O2    O     O_2   0.981635 0.337130 0.859347 -0.515284
O3    O     O_2   0.017970 0.609044 0.859192 -0.511808
O4    O     O_2   0.017194 0.618215 0.171182 -0.595695
O5    O     O_R   0.614700 0.683220 0.500010 -0.643757
O6    O     O_R   0.328400 0.499990 0.653620 -0.593832
O7    O     O_R   0.557730 0.499960 0.653620 -0.632090
O8    O     O_R   0.385300 0.316780 0.499990 -0.592573
O9    O     O_R   0.614630 0.316750 0.499990 -0.619946
O10   O     O_R   0.442270 0.500040 0.346380 -0.629621
O11   O     O_R   0.671600 0.500010 0.346380 -0.589346
O12   O     O_2   0.803441 0.661051 0.750962 -0.536504
Zn1   Zn    Zn3+2 0.346870 0.500020 0.500000 0.975202
Zn2   Zn    Zn3+2 0.653130 0.499980 0.500000 0.963533

loop_
_geom_bond_atom_site_label_1
_geom_bond_atom_site_label_2
_ccdc_geom_bond_type
C24   N4    T    
C2    C4    S    
C1    O1    A    
C26   N5    T    
C11   H8    S    
C6    C7    A    
O1    Zn1   S    
C16   O10   A    
C13   C14   A    
C10   H7    S    
C16   O11   A    
N2    Zn2   S    
O5    Zn2   S    
C31   C32   A    
C30   C31   A    
C12   C30   A    
C32   C33   A    
C4    O7    A    
C33   H12   S    
C28   O3    D    
O10   Zn1   S    
C25   O12   D    
C7    C8    A    
O6    Zn1   S    
C34   H10   S    
C1    O5    A    
C8    H6    S    
C26   C32   S    
C19   C28   S    
C18   C34   A    
C12   C23   A    
C14   N2    A    
O9    Zn2   S    
C13   N1    A    
O8    Zn1   S    
C4    O6    A    
C3    C9    A    
C15   O9    A    
C29   O4    D    
C20   C29   S    
C14   C25   S    
C15   O8    A    
C5    C6    A    
C17   C31   A    
C27   O2    D    
C10   C11   A    
C30   C34   A    
C27   H3    S    
C7    C24   S    
C17   C27   S    
O11   Zn2   S    
C3    C5    A    
C3    H13   S    
C1    C9    S    
C20   C21   A    
C29   H5    S    
C8    C9    A    
C16   C18   S    
C21   H11   S    
C18   C35   A    
C2    C23   A    
C22   N3    T    
C11   N1    A    
C17   C35   A    
C28   H4    S    
C25   H2    S    
C6    C15   S    
C2    C19   A    
C12   C21   A    
C13   H9    S    
C5    C22   S    
C19   C20   A    
O7    Zn2   S    
N1    Zn1   S    
C23   C33   A    
C35   H1    S    
C10   N2    A    
