data_mof_unit_7944.cif
_audit_creation_date              2012-12-11T14:57:53-0500
_audit_creation_method            fapswitch 2.2
_symmetry_space_group_name_H-M    P1
_symmetry_Int_Tables_number       1
_space_group_crystal_system       triclinic
_cell_length_a                    6.938301
_cell_length_b                    16.777141
_cell_length_c                    17.021752
_cell_angle_alpha                 100.502024
_cell_angle_beta                  90.318716
_cell_angle_gamma                 90.546724
_cell_volume                      1948.0804139

loop_
_atom_site_label
_atom_site_type_symbol
_atom_type_description
_atom_site_fract_x
_atom_site_fract_y
_atom_site_fract_z
_atom_type_partial_charge
O1    O     O_R   0.506180 0.438940 0.579430 -0.540590
O2    O     O_R   0.170520 0.406230 0.413590 -0.537414
O3    O     O_R   0.005180 0.561060 0.420570 -0.541631
C1    C     C_R   0.339159 0.383044 0.385331 0.692973
O4    O     O_R   0.176140 0.429310 0.578370 -0.544656
O5    O     O_R   0.010830 0.584300 0.586530 -0.534405
C2    C     C_R   0.343293 0.413523 0.605189 0.693568
O6    O     O_R   0.500520 0.415700 0.413470 -0.537022
O7    O     O_3   0.340830 0.550820 0.502480 -0.363504
V1    V     V_3+5 0.064040 0.490570 0.499540 1.420533
O8    O     O_R   0.681400 0.593770 0.586410 -0.536844
C3    C     C_R   0.851232 0.616416 0.614845 0.700180
O9    O     O_R   0.675790 0.570690 0.421630 -0.540458
C4    C     C_R   0.842858 0.586533 0.394863 0.698496
V2    V     V_3+5 0.564650 0.509430 0.500460 1.428730
O10   O     O_3   0.837730 0.449180 0.497520 -0.369604
C5    C     C_R   0.927487 0.861528 0.167385 -0.075800
C6    C     C_R   0.838748 0.639592 0.333500 -0.069824
C7    C     C_R   0.648366 0.696636 0.235893 -0.185329
C8    C     C_R   0.669170 0.641478 0.287633 -0.145570
C9    C     C_R   0.989857 0.693690 0.325048 -0.220383
C10   C     C_R   0.969013 0.750060 0.273226 0.163548
C11   C     C_R   0.796527 0.751799 0.228478 0.169832
C12   C     C_R   0.775930 0.807872 0.176375 -0.236556
C13   C     C_R   0.096741 0.860026 0.213549 -0.153672
C14   C     C_R   0.117113 0.805286 0.265795 -0.173429
H1    H     H_    0.645550 0.807716 0.140944 0.121481
H2    H     H_    0.216082 0.900841 0.208420 0.132730
H3    H     H_    0.515358 0.696523 0.202177 0.114791
H4    H     H_    0.249973 0.805562 0.299650 0.146319
H5    H     H_    0.549923 0.600539 0.292511 0.124359
H6    H     H_    0.120245 0.693752 0.360455 0.133367
H7    H     H_    0.080657 0.628025 0.969046 0.112851
C15   C     C_R   0.802755 0.909645 0.727417 -0.181373
C16   C     C_R   0.747903 0.924224 0.652439 -0.135889
C17   C     C_R   0.731875 0.860334 0.587895 0.218025
C18   C     C_R   0.769877 0.781429 0.598164 -0.157094
C19   C     C_R   0.824238 0.764724 0.673747 0.033634
C20   C     C_R   0.841601 0.830154 0.739706 0.072628
C21   C     C_R   0.865120 0.684609 0.683866 -0.169577
C22   C     C_R   0.924507 0.669944 0.759811 0.070700
C23   C     C_R   0.942293 0.735376 0.825766 0.066330
C24   C     C_R   0.900644 0.815491 0.815760 -0.172639
C25   C     C_R   0.963878 0.590417 0.771901 -0.140218
C26   C     C_R   0.020633 0.575845 0.846597 -0.123136
C27   C     C_R   0.037715 0.639699 0.910989 -0.118078
C28   C     C_R   0.998401 0.718594 0.901132 -0.136906
H8    H     H_    0.816235 0.961447 0.775327 0.109483
H9    H     H_    0.719234 0.985583 0.644471 0.141323
H10   H     H_    0.757750 0.733839 0.546110 0.125621
H11   H     H_    0.949803 0.538602 0.724038 0.096471
H12   H     H_    0.050333 0.514587 0.854631 0.115535
H13   H     H_    0.011523 0.765965 0.953348 0.101620
H14   H     H_    0.079087 0.459641 0.140887 0.114333
C29   C     C_R   0.501188 0.229061 0.404636 -0.133356
C30   C     C_R   0.588677 0.157420 0.415541 -0.106340
C31   C     C_R   0.619209 0.095661 0.350562 -0.097780
C32   C     C_R   0.562212 0.104972 0.274167 -0.155202
C33   C     C_R   0.474364 0.177256 0.260994 0.066107
C34   C     C_R   0.443289 0.240768 0.327680 0.072999
C35   C     C_R   0.414078 0.186207 0.183329 -0.185489
C36   C     C_R   0.323144 0.259037 0.172610 0.072003
C37   C     C_R   0.292043 0.322543 0.239290 0.066988
C38   C     C_R   0.352473 0.313630 0.316947 -0.185258
C39   C     C_R   0.265010 0.270688 0.095664 -0.126102
C40   C     C_R   0.177116 0.342234 0.084772 -0.120772
C41   C     C_R   0.146571 0.403998 0.149742 -0.123853
C42   C     C_R   0.203921 0.394770 0.226118 -0.149511
H15   H     H_    0.477548 0.274595 0.457376 0.100783
H16   H     H_    0.631888 0.149610 0.474867 0.127608
H17   H     H_    0.686454 0.039972 0.359415 0.153502
H18   H     H_    0.587388 0.054714 0.225850 0.113700
H19   H     H_    0.288695 0.225174 0.042914 0.098775
H20   H     H_    0.133634 0.349967 0.025456 0.111565
H21   H     H_    0.178742 0.445044 0.274414 0.108646
C43   C     C_R   0.427055 0.139556 0.833520 -0.062989
C44   C     C_R   0.338634 0.360427 0.666546 -0.062954
C45   C     C_R   0.148677 0.302294 0.763590 -0.207477
C46   C     C_R   0.169146 0.357169 0.711493 -0.161996
C47   C     C_R   0.489709 0.307769 0.676095 -0.246220
C48   C     C_R   0.468910 0.251473 0.728034 0.163710
C49   C     C_R   0.296671 0.248431 0.771950 0.165148
C50   C     C_R   0.275925 0.192172 0.823933 -0.246189
C51   C     C_R   0.596457 0.142752 0.788503 -0.159018
C52   C     C_R   0.616875 0.197589 0.736368 -0.200673
H22   H     H_    0.145625 0.191249 0.858639 0.119704
H23   H     H_    0.716088 0.103293 0.794434 0.122327
H24   H     H_    0.015872 0.301456 0.796669 0.119970
H25   H     H_    0.749642 0.198398 0.703258 0.124208
H26   H     H_    0.049511 0.396624 0.705551 0.121693
H27   H     H_    0.620030 0.308706 0.641405 0.120577
O11   O     O_R   0.265840 0.084300 0.086750 -0.535514
O12   O     O_R   0.589750 0.070740 0.921690 -0.544967
O13   O     O_R   0.755020 0.915730 0.913400 -0.535363
C53   C     C_R   0.422530 0.086520 0.894934 0.695843
O14   O     O_R   0.595830 0.093740 0.086480 -0.537199
O15   O     O_R   0.761150 0.938890 0.079360 -0.539867
C54   C     C_R   0.427286 0.116830 0.114918 0.695881
O16   O     O_R   0.259710 0.061140 0.920790 -0.538945
O17   O     O_3   0.425260 0.949200 0.997610 -0.366994
V3    V     V_3+5 0.702060 0.009430 0.000450 1.415609
O18   O     O_R   0.090530 0.929220 0.078150 -0.544389
C55   C     C_R   0.923564 0.913819 0.105345 0.693845
O19   O     O_R   0.084440 0.906220 0.913360 -0.537412
C56   C     C_R   0.914562 0.883669 0.884879 0.699050
V4    V     V_3+5 0.201450 0.990520 0.999290 1.418595
O20   O     O_3   0.928380 0.050800 0.002390 -0.367897
I1    I     I_    0.652836 0.882663 0.473917 -0.466970

loop_
_geom_bond_atom_site_label_1
_geom_bond_atom_site_label_2
_ccdc_geom_bond_type
V3    O20   S    
C29   C30   A    
O13   C56   A    
C17   I1    S    
C6    C9    A    
C22   C23   A    
C4    C6    S    
O2    C1    A    
C7    C8    A    
C12   H1    S    
C1    O6    A    
C43   C51   A    
O19   V4    S    
C48   C49   A    
O11   C54   A    
C26   C27   A    
C13   H2    S    
C36   C37   A    
C9    C10   A    
C17   C18   A    
C43   C53   S    
O5    C3    A    
C19   C20   A    
C53   O16   A    
V4    O20   S    
V2    O10   S    
C40   H20   S    
C39   H19   S    
C30   C31   A    
C15   C16   A    
C24   C56   S    
C46   H26   S    
C37   C42   A    
O8    V2    S    
C16   C17   A    
O13   V3    S    
O14   C54   A    
C16   H9    S    
C11   C12   A    
C51   H23   S    
O1    V2    S    
O9    C4    A    
O7    V1    S    
C2    C44   S    
C40   C41   A    
C33   C34   A    
O12   C53   A    
C29   C34   A    
H7    C27   S    
C35   C36   A    
C43   C50   A    
O19   C56   A    
C44   C46   A    
C9    H6    S    
C33   C35   A    
C5    C12   A    
C41   C42   A    
C51   C52   A    
O12   V3    S    
O4    C2    A    
C52   H25   S    
C45   C46   A    
C20   C24   A    
H14   C41   S    
C26   H12   S    
C32   C33   A    
C15   C20   A    
C42   H21   S    
C3    C21   S    
C7    C11   A    
C18   C19   A    
C45   C49   A    
C5    C55   S    
C29   H15   S    
C31   H17   S    
O15   C55   A    
O3    C4    A    
C25   H11   S    
O11   V4    S    
C21   C22   A    
C14   H4    S    
O6    V2    S    
C30   H16   S    
O9    V2    S    
C22   C25   A    
C15   H8    S    
C23   C24   A    
O2    V1    S    
C25   C26   A    
C44   C47   A    
C45   H24   S    
O16   V4    S    
C27   C28   A    
C36   C39   A    
O1    C2    A    
C47   C48   A    
O5    V1    S    
O8    C3    A    
C1    C38   S    
O17   V4    S    
C28   H13   S    
C34   C38   A    
C5    C13   A    
C47   H27   S    
C13   C14   A    
O4    V1    S    
O3    V1    S    
V1    O10   S    
C19   C21   A    
C18   H10   S    
C35   C54   S    
C32   H18   S    
C31   C32   A    
O17   V3    S    
O18   V4    S    
C6    C8    A    
C23   C28   A    
C39   C40   A    
O7    V2    S    
O18   C55   A    
O15   V3    S    
C37   C38   A    
C50   H22   S    
C49   C50   A    
C10   C14   A    
C10   C11   A    
O14   V3    S    
C48   C52   A    
C8    H5    S    
C7    H3    S    
