data_mof_unit_17534.cif
_audit_creation_date              2012-12-11T17:09:33-0500
_audit_creation_method            fapswitch 2.2
_symmetry_space_group_name_H-M    P1
_symmetry_Int_Tables_number       1
_space_group_crystal_system       triclinic
_cell_length_a                    14.744898
_cell_length_b                    6.98449
_cell_length_c                    13.567857
_cell_angle_alpha                 90.000012
_cell_angle_beta                  100.03151
_cell_angle_gamma                 90.0
_cell_volume                      1375.93211408

loop_
_atom_site_label
_atom_site_type_symbol
_atom_type_description
_atom_site_fract_x
_atom_site_fract_y
_atom_site_fract_z
_atom_type_partial_charge
O1    O     O_R   0.586930 0.505770 0.416350 -0.536820
O2    O     O_R   0.413070 0.005770 0.583650 -0.536820
O3    O     O_R   0.397900 0.173100 0.389630 -0.536536
O4    O     O_R   0.602100 0.673100 0.610370 -0.536536
C1    C     C_R   0.364252 0.345349 0.363209 0.723241
C2    C     C_R   0.635748 0.845349 0.636791 0.723241
O5    O     O_R   0.585280 0.175870 0.404330 -0.543865
O6    O     O_R   0.414720 0.675870 0.595670 -0.543866
O7    O     O_R   0.601790 0.008380 0.598460 -0.534186
O8    O     O_R   0.398210 0.508380 0.401540 -0.534186
C3    C     C_R   0.615729 0.344993 0.384385 0.691402
C4    C     C_R   0.384271 0.844993 0.615615 0.691402
O9    O     O_3   0.505200 0.340120 0.563670 -0.368482
O10   O     O_3   0.494800 0.840120 0.436330 -0.368482
V1    V     V_3+5 0.499040 0.064180 0.488190 1.404567
V2    V     V_3+5 0.500960 0.564180 0.511810 1.404566
C5    C     C_R   0.302403 0.023986 0.735490 0.088037
C6    C     C_R   0.697597 0.523985 0.264509 0.088034
C7    C     C_R   0.315579 0.855729 0.683457 -0.106490
C8    C     C_R   0.684421 0.355729 0.316543 -0.106489
C9    C     C_R   0.256309 0.701681 0.692219 -0.202095
C10   C     C_R   0.743692 0.201683 0.307782 -0.202096
H1    H     H_    0.256612 0.578736 0.644381 0.134417
H2    H     H_    0.743391 0.078741 0.355622 0.134417
C11   C     C_R   0.190468 0.712719 0.755760 -0.171814
C12   C     C_R   0.809532 0.212721 0.244240 -0.171815
H3    H     H_    0.142450 0.599032 0.755865 0.119669
H4    H     H_    0.857550 0.099035 0.244135 0.119668
C13   C     C_R   0.180292 0.877894 0.811287 -0.100299
C14   C     C_R   0.819707 0.377895 0.188712 -0.100298
C15   C     C_R   0.233261 0.035568 0.794478 0.066234
C16   C     C_R   0.766738 0.535567 0.205521 0.066235
C17   C     C_3   0.197928 0.220183 0.747871 -0.169365
C18   C     C_3   0.802071 0.720183 0.252128 -0.169364
C19   C     C_3   0.277632 0.215360 0.690132 -0.437424
C20   C     C_3   0.722367 0.715358 0.309866 -0.437431
H5    H     H_    0.205426 0.330794 0.807205 0.125419
H6    H     H_    0.794572 0.830794 0.192795 0.125421
H7    H     H_    0.332957 0.319858 0.718148 0.170213
H8    H     H_    0.667041 0.819852 0.281851 0.170216
H9    H     H_    0.257878 0.212809 0.607249 0.159902
H10   H     H_    0.742121 0.712808 0.392748 0.159905
C21   C     C_1   0.783905 0.877168 0.782453 -0.187088
C22   C     C_1   0.216095 0.377168 0.217547 -0.187089
C23   C     C_1   0.716496 0.860074 0.716324 -0.193011
C24   C     C_1   0.283504 0.360074 0.283676 -0.193012
O11   O     O_R   0.101720 0.231700 0.098560 -0.538025
O12   O     O_R   0.898280 0.731700 0.901440 -0.538025
O13   O     O_R   0.914700 0.558980 0.095690 -0.539637
O14   O     O_R   0.085300 0.058980 0.904310 -0.539638
C25   C     C_R   0.887496 0.389435 0.119507 0.701364
C26   C     C_R   0.112503 0.889435 0.880492 0.701364
O15   O     O_R   0.102080 0.561590 0.110390 -0.533420
O16   O     O_R   0.897920 0.061590 0.889610 -0.533421
O17   O     O_R   0.086950 0.728940 0.916330 -0.545533
O18   O     O_R   0.913050 0.228940 0.083670 -0.545533
C27   C     C_R   0.135685 0.391937 0.137622 0.743316
C28   C     C_R   0.864315 0.891937 0.862378 0.743314
O19   O     O_3   0.994770 0.394510 0.936380 -0.381298
O20   O     O_3   0.005230 0.894510 0.063620 -0.381297
V3    V     V_3+5 0.000970 0.670520 0.011800 1.390987
V4    V     V_3+5 0.999030 0.170520 0.988200 1.390986
C29   C     C_R   0.101337 0.202489 0.684191 0.115885
C30   C     C_R   0.082237 0.078457 0.600857 -0.120291
C31   C     C_R   0.992014 0.056133 0.549221 -0.142651
C32   C     C_R   0.919514 0.154311 0.580047 -0.134063
C33   C     C_R   0.937141 0.276915 0.662160 -0.124933
C34   C     C_R   0.027193 0.300901 0.713413 -0.124272
H11   H     H_    0.136359 0.996494 0.576305 0.125431
H12   H     H_    0.977875 0.962225 0.485386 0.148803
H13   H     H_    0.849832 0.135924 0.540100 0.108717
H14   H     H_    0.881026 0.353318 0.686356 0.119651
H15   H     H_    0.038518 0.394145 0.777158 0.134345
C35   C     C_R   0.898662 0.702489 0.315807 0.115880
C36   C     C_R   0.917762 0.578455 0.399138 -0.120292
C37   C     C_R   0.007985 0.556124 0.450770 -0.142652
C38   C     C_R   0.080486 0.654298 0.419945 -0.134067
C39   C     C_R   0.062858 0.776906 0.337837 -0.124931
C40   C     C_R   0.972806 0.800899 0.286586 -0.124269
H16   H     H_    0.863640 0.496493 0.423690 0.125434
H17   H     H_    0.022125 0.462214 0.514600 0.148808
H18   H     H_    0.150169 0.635907 0.459890 0.108718
H19   H     H_    0.118974 0.853309 0.313642 0.119651
H20   H     H_    0.961480 0.894147 0.222843 0.134342

loop_
_geom_bond_atom_site_label_1
_geom_bond_atom_site_label_2
_ccdc_geom_bond_type
C14   C25   S    
C2    C23   S    
C20   H10   S    
O1    C3    A    
O2    C4    A    
O11   V4    S    
C38   C39   A    
O5    C3    A    
C10   H2    S    
C7    C9    A    
C25   O18   A    
C40   H20   S    
C31   H12   S    
O20   V4    S    
C33   H14   S    
C21   C28   S    
C17   C19   S    
O15   V3    S    
C39   H19   S    
O13   C25   A    
O14   C26   A    
C15   C17   S    
C36   H16   S    
C6    C8    A    
C26   O17   A    
O6    C4    A    
O5    V1    S    
C32   C33   A    
O6    V2    S    
C2    O7    A    
C22   C24   T    
C11   C13   A    
C3    C8    S    
O19   V3    S    
O13   V3    S    
C35   C36   A    
C33   C34   A    
C20   H8    S    
C37   C38   A    
O4    C2    A    
O15   C27   A    
C39   C40   A    
O16   V4    S    
C34   H15   S    
C17   H5    S    
O20   V3    S    
C16   C18   S    
O4    V2    S    
C19   H7    S    
C36   C37   A    
O11   C27   A    
C32   H13   S    
C22   C27   S    
C17   C29   S    
O1    V2    S    
C30   H11   S    
O2    V1    S    
C21   C23   T    
C18   C35   S    
C8    C10   A    
C12   C14   A    
C35   C40   A    
O9    V1    S    
C5    C15   A    
O18   V4    S    
C6    C16   A    
O3    V1    S    
O16   C28   A    
C9    C11   A    
C29   C34   A    
O19   V4    S    
C18   H6    S    
O3    C1    A    
C37   H17   S    
O12   C28   A    
C11   H3    S    
C1    C24   S    
C12   H4    S    
C30   C31   A    
C9    H1    S    
O7    V1    S    
C1    O8    A    
C13   C15   A    
O8    V2    S    
C14   C16   A    
O12   V3    S    
C38   H18   S    
O14   V4    S    
O17   V3    S    
C4    C7    S    
C5    C7    A    
C18   C20   S    
O10   V2    S    
C19   H9    S    
C29   C30   A    
C31   C32   A    
C10   C12   A    
O9    V2    S    
O10   V1    S    
C5    C19   S    
C6    C20   S    
C13   C26   S    
