data_mof_unit_21142.cif
_audit_creation_date              2012-12-10T20:40:55-0500
_audit_creation_method            fapswitch 2.2
_symmetry_space_group_name_H-M    P1
_symmetry_Int_Tables_number       1
_space_group_crystal_system       triclinic
_cell_length_a                    26.752416
_cell_length_b                    10.755005
_cell_length_c                    9.90098
_cell_angle_alpha                 90.646702
_cell_angle_beta                  90.212343
_cell_angle_gamma                 90.47637
_cell_volume                      2848.43292633

loop_
_atom_site_label
_atom_site_type_symbol
_atom_type_description
_atom_site_fract_x
_atom_site_fract_y
_atom_site_fract_z
_atom_type_partial_charge
C1    C     C_R   0.500358 0.260667 0.499499 0.911458
C2    C     C_R   0.268325 0.523864 0.580011 -0.118217
C3    C     C_R   0.252597 0.610193 0.484026 0.237961
C4    C     C_R   0.100205 0.690687 0.436993 -0.047061
C5    C     C_R   0.121788 0.593286 0.359782 -0.089027
C6    C     C_R   0.091263 0.524356 0.267978 -0.031176
C7    C     C_R   0.129082 0.755568 0.534391 -0.025873
C8    C     C_R   0.352506 0.536694 0.494831 -0.059254
C9    C     C_R   0.647215 0.536120 0.498406 -0.055185
C10   C     C_R   0.970837 0.697180 0.294856 -0.000921
C11   C     C_R   0.973380 0.809260 0.512217 0.070210
C12   C     C_R   0.405362 0.504069 0.499328 0.892545
C13   C     C_R   0.945811 0.753287 0.405103 0.065452
C14   C     C_R   0.943032 0.665991 0.176295 -0.065962
C15   C     C_R   0.890833 0.661543 0.183193 -0.220007
C16   C     C_R   0.866173 0.691760 0.303474 -0.039774
C17   C     C_R   0.893255 0.743840 0.412619 -0.065120
C18   C     C_R   0.868094 0.779636 0.531703 -0.070515
C19   C     C_R   0.818062 0.739408 0.547224 0.503318
C20   C     C_R   0.815056 0.668168 0.318283 0.516170
C21   C     C_R   0.733033 0.508561 0.429265 -0.139051
C22   C     C_R   0.684408 0.459359 0.440570 -0.039003
C23   C     C_R   0.499624 0.739504 0.500510 0.888998
C24   C     C_R   0.658460 0.659572 0.535131 -0.224078
C25   C     C_R   0.705886 0.708511 0.515216 -0.120023
C26   C     C_R   0.743587 0.633447 0.462607 0.290980
C27   C     C_R   0.021341 0.663537 0.314536 0.073492
C28   C     C_R   0.049471 0.722221 0.418472 0.074598
C29   C     C_R   0.026559 0.809933 0.506185 -0.012211
C30   C     C_R   0.042195 0.561832 0.245145 -0.189565
C31   C     C_R   0.108082 0.854535 0.607001 -0.166631
C32   C     C_R   0.947134 0.852845 0.626415 -0.180321
C33   C     C_R   0.895001 0.843569 0.635082 0.022012
C34   C     C_R   0.594537 0.502031 0.499879 0.858033
C35   C     C_R   0.057799 0.886292 0.589869 -0.076640
C36   C     C_R   0.505206 0.064082 0.617085 0.090572
C37   C     C_R   0.500303 0.129508 0.498153 -0.121605
C38   C     C_R   0.494681 0.063209 0.375830 -0.215552
C39   C     C_R   0.494104 0.934177 0.376641 -0.223307
C40   C     C_R   0.498778 0.870938 0.499902 -0.104294
C41   C     C_R   0.503396 0.939755 0.618379 0.095836
C42   C     C_3   0.510067 0.932960 0.768167 -0.511850
C43   C     C_3   0.512365 0.075895 0.766752 -0.204918
C44   C     C_R   0.465019 0.433848 0.070195 0.130092
C45   C     C_R   0.173333 0.570929 0.376184 0.580997
C46   C     C_R   0.538596 0.550026 0.074681 -0.181256
C47   C     C_R   0.539205 0.549572 0.931302 -0.029894
C48   C     C_R   0.463433 0.439343 0.929760 0.108986
C49   C     C_3   0.406710 0.444428 0.928976 -0.067552
C50   C     C_3   0.409871 0.436336 0.084123 -0.526515
C51   C     C_R   0.179347 0.724085 0.552134 0.597254
C52   C     C_R   0.287195 0.661884 0.392236 0.007620
C53   C     C_R   0.336983 0.623572 0.399117 -0.270468
C54   C     C_R   0.318089 0.487424 0.585609 -0.182618
H1    H     H_    0.329376 0.419354 0.658621 0.173537
H2    H     H_    0.131527 0.911080 0.673255 0.224080
H3    H     H_    0.966821 0.890012 0.713391 0.148192
H4    H     H_    0.629513 0.721116 0.571422 0.181420
H5    H     H_    0.713090 0.805619 0.538788 0.154005
H6    H     H_    0.490767 0.110122 0.280146 0.179377
H7    H     H_    0.490038 0.884860 0.281168 0.182183
H8    H     H_    0.476611 0.895911 0.820332 0.189449
H9    H     H_    0.241555 0.483173 0.648747 0.159307
H10   H     H_    0.545646 0.889986 0.798669 0.252863
H11   H     H_    0.479733 0.119252 0.817399 0.190660
H12   H     H_    0.568717 0.593833 0.131536 0.178791
H13   H     H_    0.397283 0.521200 0.139014 0.226367
H14   H     H_    0.395422 0.348191 0.127470 0.219934
H15   H     H_    0.762938 0.450606 0.391544 0.146581
H16   H     H_    0.869526 0.632339 0.094894 0.226980
H17   H     H_    0.019037 0.503543 0.180324 0.163897
H18   H     H_    0.364252 0.663447 0.331042 0.183887
N1    N     N_R   0.200330 0.634826 0.472029 -0.338711
N2    N     N_R   0.792893 0.683820 0.441552 -0.347048
N3    N     N_R   0.499670 0.499140 0.142800 -0.100550
N4    N     N_R   0.499670 0.499180 0.857150 -0.157589
O1    O     O_R   0.500010 0.316790 0.614690 -0.578833
O2    O     O_2   0.787994 0.625793 0.211727 -0.561254
O3    O     O_2   0.207452 0.783988 0.646210 -0.582512
O4    O     O_2   0.795805 0.747910 0.668959 -0.550804
O5    O     O_R   0.500000 0.316760 0.385350 -0.621748
O6    O     O_R   0.428760 0.500040 0.614660 -0.592282
O7    O     O_R   0.428750 0.500000 0.385310 -0.621755
O8    O     O_R   0.500000 0.683240 0.614650 -0.593552
O9    O     O_R   0.499990 0.683210 0.385310 -0.631012
O10   O     O_R   0.571250 0.500000 0.614690 -0.587267
O11   O     O_R   0.571240 0.499960 0.385340 -0.610072
O12   O     O_2   0.197119 0.489741 0.294481 -0.528654
Zn1   Zn    Zn3+2 0.500000 0.500020 0.653130 0.991345
Zn2   Zn    Zn3+2 0.500000 0.499980 0.346870 0.951791
C55   C     C_2   0.272568 0.754341 0.288277 0.927048
O13   O     O_2   0.301182 0.778633 0.195941 -0.633953
O14   O     O_R   0.226700 0.815321 0.295708 -0.797999
H19   H     H_    0.221501 0.875463 0.218899 0.361643
C56   C     C_R   0.869914 0.908490 0.749257 0.180911
C57   C     C_R   0.833375 0.998667 0.723685 -0.079035
C58   C     C_R   0.809763 0.060095 0.830813 -0.125975
C59   C     C_R   0.822683 0.032886 0.964074 -0.090256
C60   C     C_R   0.859440 0.944730 0.990394 -0.102466
C61   C     C_R   0.883106 0.883137 0.883497 -0.115373
H20   H     H_    0.823120 0.020947 0.620874 0.117424
H21   H     H_    0.781524 0.128973 0.810531 0.123234
H22   H     H_    0.804358 0.080453 0.046875 0.126067
H23   H     H_    0.869632 0.924232 0.093625 0.145016
H24   H     H_    0.911435 0.815292 0.905022 0.149102
C62   C     C_2   0.041688 0.009170 0.643614 0.919614
O15   O     O_2   0.060138 0.051443 0.747824 -0.588079
O16   O     O_R   0.006347 0.078304 0.572788 -0.784362
H25   H     H_    0.998536 0.160367 0.619134 0.357774
C63   C     C_R   0.562685 0.130129 0.809150 0.183136
C64   C     C_R   0.607690 0.090025 0.750003 -0.159565
C65   C     C_R   0.653298 0.144234 0.788449 -0.169498
C66   C     C_R   0.654624 0.237675 0.887396 -0.103414
C67   C     C_R   0.610521 0.274455 0.950767 -0.082242
C68   C     C_R   0.564810 0.220917 0.912008 -0.145257
H26   H     H_    0.607571 0.016779 0.674341 0.133533
H27   H     H_    0.687566 0.113991 0.741046 0.142894
H28   H     H_    0.689923 0.280129 0.916559 0.142644
H29   H     H_    0.611786 0.344179 0.030371 0.172555
H30   H     H_    0.531124 0.249481 0.963044 0.117776
C69   C     C_2   0.583090 0.607383 0.868177 0.939131
O17   O     O_2   0.577807 0.686130 0.782206 -0.652887
O18   O     O_R   0.631021 0.576951 0.913031 -0.825663
H31   H     H_    0.658247 0.623567 0.863129 0.358843
C70   C     C_R   0.379338 0.563255 0.888970 0.088764
C71   C     C_R   0.327437 0.570404 0.912980 -0.163632
C72   C     C_R   0.300356 0.675400 0.876484 -0.043489
C73   C     C_R   0.324552 0.775557 0.816171 -0.023755
C74   C     C_R   0.376034 0.772016 0.795339 -0.188597
C75   C     C_R   0.403496 0.667992 0.833982 -0.094997
H32   H     H_    0.307659 0.494246 0.959945 0.192478
H33   H     H_    0.260495 0.678670 0.894336 0.174839
H34   H     H_    0.303494 0.856379 0.786617 0.174939
H35   H     H_    0.394620 0.850389 0.749231 0.138703
H36   H     H_    0.443241 0.670769 0.819585 0.169453
C76   C     C_2   0.384598 0.327747 0.864402 0.874775
O19   O     O_2   0.346454 0.281025 0.909890 -0.628530
O20   O     O_R   0.407550 0.273827 0.751853 -0.802765
H37   H     H_    0.389253 0.196748 0.717556 0.331273
C77   C     C_2   0.107000 0.406758 0.201844 1.009708
O21   O     O_2   0.099877 0.390785 0.080768 -0.588621
O22   O     O_R   0.127559 0.311818 0.279231 -0.744381
H38   H     H_    0.136053 0.235539 0.223039 0.363556
C78   C     C_R   0.673631 0.331745 0.385490 0.112312
C79   C     C_R   0.696331 0.291538 0.264401 -0.152927
C80   C     C_R   0.687390 0.171793 0.213018 -0.146151
C81   C     C_R   0.654614 0.091710 0.279088 -0.090627
C82   C     C_R   0.631489 0.130339 0.398156 -0.146912
C83   C     C_R   0.641408 0.248739 0.452435 -0.153519
H39   H     H_    0.720794 0.352909 0.208673 0.158664
H40   H     H_    0.705627 0.141330 0.121225 0.134094
H41   H     H_    0.647198 0.999610 0.238175 0.139358
H42   H     H_    0.606030 0.067842 0.448420 0.134846
H43   H     H_    0.624138 0.274735 0.546987 0.130928
C84   C     C_2   0.966944 0.648743 0.042057 0.870837
O23   O     O_2   0.947345 0.581294 0.956395 -0.616328
O24   O     O_R   0.011265 0.712509 0.012250 -0.774020
H44   H     H_    0.023502 0.694563 0.917261 0.355261

loop_
_geom_bond_atom_site_label_1
_geom_bond_atom_site_label_2
_ccdc_geom_bond_type
C10   C27   A    
C21   C26   A    
O14   H19   S    
C14   C84   S    
C84   O24   S    
C56   C57   A    
C1    O1    A    
C41   C42   S    
C48   N4    A    
C81   C82   A    
C73   C74   A    
C30   H17   S    
O18   H31   S    
C2    H9    S    
O1    Zn1   S    
C61   H24   S    
O24   H44   S    
O6    Zn1   S    
C71   H32   S    
C36   C37   A    
C77   O22   S    
C47   N4    A    
C66   C67   A    
C79   C80   A    
C65   H27   S    
C3    C52   A    
C9    C22   A    
C47   C69   S    
C62   O15   D    
C1    O5    A    
C23   C40   S    
C58   C59   A    
C23   O9    A    
O16   H25   S    
C45   N1    A    
C18   C19   A    
C34   O10   A    
C15   H16   S    
C72   H33   S    
C65   C66   A    
N3    Zn2   S    
C63   C64   A    
C79   H39   S    
C70   C75   A    
C75   H36   S    
C16   C17   A    
C24   C25   A    
C64   H26   S    
C43   C63   S    
C31   H2    S    
C18   C33   A    
C50   H13   S    
C42   H8    S    
C58   H21   S    
C43   H11   S    
N4    Zn1   S    
C66   H28   S    
C60   H23   S    
C21   C22   A    
C27   C30   A    
C36   C41   A    
C70   C71   A    
C32   H3    S    
C4    C7    A    
C8    C12   S    
C33   C56   S    
C46   N3    A    
C4    C28   A    
C67   C68   A    
C38   C39   A    
C39   H7    S    
C7    C31   A    
C23   O8    A    
C20   N2    A    
C45   O12   S    
C82   C83   A    
C76   O20   S    
C2    C54   A    
C8    C54   A    
C55   O13   D    
C56   C61   A    
C78   C79   A    
C25   C26   A    
C5    C45   A    
C10   C13   A    
C80   H40   S    
C12   O7    A    
C21   H15   S    
C44   N3    A    
C83   H43   S    
C37   C38   A    
C55   O14   S    
C60   C61   A    
C16   C20   A    
C57   C58   A    
C17   C18   A    
C12   O6    A    
C77   O21   D    
C69   O17   D    
C38   H6    S    
O5    Zn2   S    
C40   C41   A    
C6    C30   A    
C49   C76   S    
C11   C32   A    
C49   C50   S    
C10   C14   A    
C9    C34   S    
C31   C35   A    
C42   C43   S    
C72   C73   A    
C28   C29   A    
C42   H10   S    
C39   C40   A    
C52   C53   A    
C80   C81   A    
C44   C50   S    
C54   H1    S    
O7    Zn2   S    
C46   C47   A    
C48   C49   S    
C64   C65   A    
C14   C15   A    
C19   N2    A    
C51   N1    A    
C4    C5    A    
C36   C43   S    
O10   Zn1   S    
C8    C53   A    
O9    Zn2   S    
C68   H30   S    
C9    C24   A    
C46   H12   S    
C1    C37   S    
C49   C70   S    
C29   C35   A    
C13   C17   A    
C32   C33   A    
C81   H41   S    
C74   C75   A    
C7    C51   A    
C35   C62   S    
C73   H34   S    
C11   C13   A    
C5    C6    A    
C67   H29   S    
C62   O16   S    
C20   O2    S    
C71   C72   A    
C15   C16   A    
C26   N2    S    
C2    C3    A    
C34   O11   A    
C6    C77   S    
C19   O4    S    
C3    N1    S    
C78   C83   A    
C51   O3    S    
C69   O18   S    
O20   H37   S    
C74   H35   S    
C44   C48   A    
C11   C29   A    
C24   H4    S    
C59   C60   A    
O8    Zn1   S    
O11   Zn2   S    
C22   C78   S    
C84   O23   D    
O22   H38   S    
C76   O19   D    
C52   C55   S    
C25   H5    S    
C82   H42   S    
C57   H20   S    
C53   H18   S    
C50   H14   S    
C63   C68   A    
C59   H22   S    
C27   C28   A    
