data_mof_unit_13927.cif
_audit_creation_date              2012-10-26T19:58:21-0400
_audit_creation_method            fapswitch 2.2
_symmetry_space_group_name_H-M    P1
_symmetry_Int_Tables_number       1
_space_group_crystal_system       triclinic
_cell_length_a                    7.414697
_cell_length_b                    8.766415
_cell_length_c                    13.393286
_cell_angle_alpha                 93.78963
_cell_angle_beta                  77.113616
_cell_angle_gamma                 102.825603
_cell_volume                      827.342429902

loop_
_atom_site_label
_atom_site_type_symbol
_atom_type_description
_atom_site_fract_x
_atom_site_fract_y
_atom_site_fract_z
_atom_type_partial_charge
C1    C     C_R   0.543829 0.799557 0.504031 0.535705
C2    C     C_R   0.336303 0.495987 0.807239 0.009834
C3    C     C_2   0.560163 0.966268 0.515510 0.174347
C4    C     C_R   0.398962 0.497783 0.694621 0.525767
C5    C     C_2   0.445488 0.035730 0.477005 0.037608
C6    C     C_R   0.457224 0.200529 0.494340 0.569702
C7    C     C_R   0.603033 0.516195 0.305740 0.547226
C8    C     C_R   0.885405 0.686202 0.048306 0.283745
C9    C     C_R   0.666400 0.549717 0.195313 -0.023207
C10   C     C_R   0.152592 0.415825 0.850593 -0.111001
C11   C     C_R   0.099966 0.387216 0.954925 -0.111364
C12   C     C_R   0.419320 0.512306 0.975747 0.048568
C13   C     C_R   0.231624 0.431656 0.016761 -0.083363
C14   C     C_2   0.315429 0.956668 0.410012 0.551173
C15   C     C_R   0.465062 0.556809 0.871686 0.040272
C16   C     C_R   0.562419 0.552108 0.034613 -0.021401
C17   C     C_R   0.741913 0.646266 0.991555 0.046050
C18   C     C_R   0.774426 0.703454 0.892752 -0.106723
C19   C     C_R   0.637445 0.662252 0.834838 -0.129677
C20   C     C_R   0.532778 0.499365 0.134603 -0.157730
C21   C     C_R   0.844997 0.643629 0.152027 0.216352
Cu1   Cu    Cu3+1 0.321300 0.483160 0.488710 1.037241
Cu2   Cu    Cu3+1 0.678700 0.516840 0.511290 1.006711
H1    H     H_    0.011225 0.617306 0.578699 0.238239
H2    H     H_    0.052582 0.916295 0.382046 0.347186
H3    H     H_    0.151026 0.782752 0.047135 0.381310
H4    H     H_    0.740617 0.981058 0.605057 0.344642
H5    H     H_    0.988784 0.382791 0.421259 0.257299
H6    H     H_    0.906284 0.781703 0.859433 0.173502
H7    H     H_    0.403710 0.419790 0.168358 0.142726
H8    H     H_    0.050840 0.371058 0.803291 0.143473
H9    H     H_    0.180121 0.404645 0.096738 0.131172
H10   H     H_    0.957148 0.326281 0.987825 0.127028
H11   H     H_    0.667765 0.717279 0.761347 0.135989
H12   H     H_    0.912194 0.744178 0.273967 0.340042
N1    N     N_2   0.947230 0.542220 0.528320 -0.243146
N2    N     N_2   0.052770 0.457780 0.471680 -0.223464
O1    O     O_R   0.383920 0.714220 0.492660 -0.499034
O2    O     O_2   0.374885 0.884022 0.333072 -0.494125
O3    O     O_R   0.126288 0.970441 0.434131 -0.666425
O4    O     O_3   0.060377 0.773505 0.001735 -0.706603
O5    O     O_3   0.681973 0.051935 0.574092 -0.677405
O6    O     O_R   0.685730 0.742660 0.511730 -0.518904
O7    O     O_R   0.275440 0.478800 0.636790 -0.514373
O8    O     O_R   0.577250 0.507240 0.655860 -0.504943
O9    O     O_R   0.314270 0.257340 0.488270 -0.472689
O10   O     O_R   0.616080 0.285780 0.507340 -0.448659
O11   O     O_R   0.422750 0.492760 0.344140 -0.485001
O12   O     O_R   0.724560 0.521200 0.363210 -0.504643
O13   O     O_3   0.978448 0.701228 0.209589 -0.689028

loop_
_geom_bond_atom_site_label_1
_geom_bond_atom_site_label_2
_ccdc_geom_bond_type
Cu1   O11   S    
C3    O5    S    
Cu2   O8    S    
Cu2   N1    S    
C6    O9    A    
C13   H9    S    
C2    C4    S    
C8    C17   A    
C12   C15   A    
C16   C20   A    
C7    O11   A    
H12   O13   S    
C8    C21   A    
C18   H6    S    
C20   H7    S    
C8    O4    S    
C15   C19   A    
C2    C15   A    
C11   C13   A    
H4    O5    S    
C9    C21   A    
C5    C14   S    
H1    N1    S    
C1    O1    A    
H5    N2    S    
C21   O13   S    
Cu1   O9    S    
C17   C18   A    
C4    O8    A    
H2    O3    S    
C5    C6    S    
C9    C20   A    
Cu2   O12   S    
Cu2   O10   S    
C10   C11   A    
C14   O3    S    
Cu1   O1    S    
C11   H10   S    
Cu2   O6    S    
C12   C13   A    
C7    O12   A    
C18   C19   A    
C6    O10   A    
C7    C9    S    
Cu1   Cu2   S    
N1    N2    D    
C4    O7    A    
C3    C5    D    
C14   O2    D    
Cu1   N2    S    
C10   H8    S    
C1    O6    A    
Cu1   O7    S    
C12   C16   A    
H3    O4    S    
C16   C17   A    
C1    C3    S    
C19   H11   S    
C2    C10   A    
