data_mof_unit_22854.cif
_audit_creation_date              2013-03-05T16:48:43-0500
_audit_creation_method            fapswitch 2.2
_symmetry_space_group_name_H-M    P1
_symmetry_Int_Tables_number       1
_space_group_crystal_system       triclinic
_cell_length_a                    27.775198
_cell_length_b                    9.035946
_cell_length_c                    8.080793
_cell_angle_alpha                 90.223071
_cell_angle_beta                  89.99555
_cell_angle_gamma                 89.996031
_cell_volume                      2028.06317082

loop_
_atom_site_label
_atom_site_type_symbol
_atom_site_description
_atom_site_fract_x
_atom_site_fract_y
_atom_site_fract_z
_atom_type_partial_charge
O1    O     O_R   0.500000 0.285350 0.636850 -0.614452
O2    O     O_R   0.500000 0.714650 0.363150 -0.614469
O3    O     O_R   0.500000 0.714650 0.636850 -0.603727
O4    O     O_R   0.500000 0.285350 0.363150 -0.603747
C1    C     C_R   0.500023 0.217712 0.499791 0.942689
C2    C     C_R   0.500023 0.782288 0.500209 0.942670
O5    O     O_R   0.428760 0.500000 0.636860 -0.597780
O6    O     O_R   0.571240 0.500000 0.363140 -0.601203
O7    O     O_R   0.571240 0.500000 0.636860 -0.601208
O8    O     O_R   0.428760 0.500000 0.363140 -0.597750
C3    C     C_R   0.405670 0.500035 0.500011 0.916322
C4    C     C_R   0.594120 0.500003 0.499995 0.923045
Zn1   Zn    Zn3+2 0.500000 0.500000 0.682780 1.063626
Zn2   Zn    Zn3+2 0.500000 0.500000 0.317220 1.063625
C5    C     C_R   0.176250 0.368537 0.485744 0.549118
C6    C     C_R   0.822420 0.626507 0.458322 0.552426
C7    C     C_R   0.176229 0.631576 0.515563 0.549103
C8    C     C_R   0.822407 0.373425 0.542266 0.552455
O9    O     O_2   0.200820 0.239766 0.477387 -0.523469
O10   O     O_2   0.797625 0.748502 0.413626 -0.528120
O11   O     O_2   0.200775 0.760383 0.523812 -0.523527
O12   O     O_2   0.797597 0.251425 0.586822 -0.528114
N1    N     N_R   0.200424 0.500076 0.500571 -0.349156
N2    N     N_R   0.798384 0.499965 0.500232 -0.349992
C9    C     C_R   0.277205 0.566226 0.630750 -0.109777
C10   C     C_R   0.721926 0.404255 0.394734 -0.104907
C11   C     C_R   0.277147 0.434049 0.369825 -0.109863
C12   C     C_R   0.721900 0.595742 0.605472 -0.104912
C13   C     C_R   0.327211 0.570286 0.630105 0.126007
C14   C     C_R   0.671903 0.402282 0.394933 0.112642
C15   C     C_R   0.327155 0.430023 0.370152 0.125997
C16   C     C_R   0.671878 0.597759 0.605121 0.112675
C17   C     C_R   0.252013 0.500117 0.500381 0.201328
C18   C     C_R   0.746948 0.499983 0.500147 0.204505
C19   C     C_R   0.100563 0.500006 0.500788 -0.061712
C20   C     C_R   0.898112 0.499974 0.500503 -0.059843
C21   C     C_R   0.125928 0.366735 0.480889 -0.041396
C22   C     C_R   0.872763 0.629479 0.460291 -0.047413
C23   C     C_R   0.125909 0.633305 0.520644 -0.041354
C24   C     C_R   0.872752 0.370464 0.540582 -0.047386
C25   C     C_R   0.100658 0.235923 0.450129 -0.297013
C26   C     C_R   0.898082 0.757085 0.417011 -0.291318
C27   C     C_R   0.100622 0.764080 0.551519 -0.297110
C28   C     C_R   0.898061 0.242874 0.584035 -0.291433
C29   C     C_R   0.352930 0.500132 0.500070 -0.167852
C30   C     C_R   0.646488 0.500023 0.500000 -0.154649
H1    H     H_    0.257551 0.383161 0.268593 0.182821
H2    H     H_    0.741524 0.669867 0.686680 0.181750
H3    H     H_    0.257658 0.617097 0.732106 0.182865
H4    H     H_    0.741571 0.330118 0.313581 0.181753
H5    H     H_    0.119990 0.134811 0.421596 0.192367
H6    H     H_    0.878796 0.854581 0.376145 0.194554
H7    H     H_    0.119940 0.865205 0.580064 0.192316
H8    H     H_    0.878761 0.145378 0.624821 0.194550
C31   C     C_R   0.974132 0.365640 0.522136 0.042377
C32   C     C_R   0.024508 0.635406 0.508613 0.047441
C33   C     C_R   0.974132 0.634320 0.479252 0.042381
C34   C     C_R   0.024520 0.364554 0.492948 0.047435
C35   C     C_R   0.948846 0.499978 0.500631 -0.101565
C36   C     C_R   0.049802 0.499986 0.500795 -0.101819
C37   C     C_R   0.948523 0.240448 0.579742 0.501412
C38   C     C_R   0.050147 0.764438 0.554117 0.493305
C39   C     C_R   0.948541 0.759525 0.421574 0.501394
C40   C     C_R   0.050182 0.235516 0.447551 0.493277
C41   C     C_1   0.500056 0.064946 0.499707 -0.132898
C42   C     C_1   0.500055 0.935054 0.500293 -0.132868
N3    N     N_1   0.500000 0.500000 0.073640 0.001907
N4    N     N_1   0.500000 0.500000 0.926360 0.001915
I1    I     I_    0.359015 0.305536 0.173818 -0.237639
I2    I     I_    0.638052 0.758600 0.759141 -0.238497
I3    I     I_    0.359149 0.694902 0.826173 -0.237606
I4    I     I_    0.638111 0.241501 0.240786 -0.238482
O13   O     O_3   0.973219 0.124146 0.649220 -0.694061
H9    H     H_    0.950008 0.049152 0.689852 0.357166
O14   O     O_3   0.025634 0.882996 0.620147 -0.686809
H10   H     H_    0.049085 0.956908 0.662246 0.359636
O15   O     O_3   0.973260 0.875860 0.352278 -0.694141
H11   H     H_    0.950071 0.950956 0.311779 0.357272
O16   O     O_3   0.025691 0.116903 0.381582 -0.686808
H12   H     H_    0.049153 0.042876 0.339820 0.359716

loop_
_geom_bond_atom_site_label_1
_geom_bond_atom_site_label_2
_geom_bond_distance
_ccdc_geom_bond_type
C31   C35   1.413671 A    
O13   H9    0.992174 S    
C20   C35   1.409158 A    
O15   H11   0.991999 S    
C11   C17   1.397020 A    
C5    O9    1.350344 S    
C7    N1    1.370003 A    
C2    C42   1.380383 S    
O1    C1    1.262898 A    
C19   C21   1.403816 A    
C22   C26   1.396283 A    
C10   H4    1.083052 S    
C33   C35   1.413653 A    
C34   C36   1.412169 A    
C32   C33   1.419226 A    
C7    C23   1.398349 A    
C8    C24   1.398644 A    
C5    C21   1.398370 A    
C20   C24   1.404826 A    
O7    Zn1   2.013167 S    
C27   H7    1.083750 S    
N1    C17   1.432915 S    
Zn2   N3    1.968320 S    
C8    N2    1.367828 A    
O3    Zn1   1.976176 S    
C6    O10   1.350167 S    
O3    C2    1.264109 A    
C5    N1    1.369999 A    
C12   C18   1.396862 A    
C6    N2    1.367809 A    
C21   C25   1.396217 A    
O2    C2    1.262898 A    
C10   C18   1.396881 A    
C33   C39   1.416496 A    
C9    C13   1.389404 A    
C11   C15   1.389465 A    
N3    N4    1.190138 T    
C12   C16   1.389476 A    
C4    C30   1.454540 S    
O8    Zn2   2.013170 S    
C16   I2    2.128264 S    
C34   C40   1.413728 A    
C37   O13   1.376479 S    
N2    C18   1.428631 S    
C32   C36   1.412142 A    
C13   C29   1.418071 A    
C19   C36   1.409900 A    
C19   C23   1.403832 A    
O14   H10   0.992152 S    
C15   I1    2.133354 S    
O5    C3    1.278403 A    
O5    Zn1   2.013227 S    
O6    C4    1.275533 A    
C1    C41   1.380384 S    
C10   C14   1.389515 A    
C40   O16   1.375247 S    
C32   C38   1.413695 A    
C38   O14   1.375252 S    
C3    C29   1.464873 S    
O1    Zn1   1.973338 S    
C39   O15   1.376440 S    
C11   H1    1.083520 S    
C12   H2    1.083066 S    
O6    Zn2   2.013224 S    
C8    O12   1.350158 S    
C16   C30   1.411801 A    
C14   C30   1.411780 A    
O4    C1    1.264109 A    
C14   I4    2.128255 S    
C28   C37   1.402192 A    
C20   C22   1.404835 A    
C31   C37   1.416502 A    
O4    Zn2   1.976177 S    
O2    Zn2   1.973337 S    
O7    C4    1.275513 A    
C9    H3    1.083452 S    
C9    C17   1.396982 A    
O8    C3    1.278465 A    
O16   H12   0.992031 S    
C28   H8    1.083689 S    
C24   C28   1.396317 A    
C23   C27   1.396224 A    
C41   C42   1.173731 T    
C15   C29   1.418102 A    
C31   C34   1.419284 A    
C6    C22   1.398615 A    
C25   C40   1.402139 A    
C26   C39   1.402155 A    
C25   H5    1.083752 S    
C27   C38   1.402106 A    
C26   H6    1.083673 S    
C13   I3    2.133443 S    
Zn1   N4    1.968320 S    
C7    O11   1.350325 S    
