data_mof_unit_6313.cif
_audit_creation_date              2012-12-11T15:56:00-0500
_audit_creation_method            fapswitch 2.2
_symmetry_space_group_name_H-M    P1
_symmetry_Int_Tables_number       1
_space_group_crystal_system       triclinic
_cell_length_a                    11.080458
_cell_length_b                    11.128572
_cell_length_c                    18.765004
_cell_angle_alpha                 90.371666
_cell_angle_beta                  90.949855
_cell_angle_gamma                 58.801389
_cell_volume                      1978.98406683

loop_
_atom_site_label
_atom_site_type_symbol
_atom_type_description
_atom_site_fract_x
_atom_site_fract_y
_atom_site_fract_z
_atom_type_partial_charge
C1    C     C_R   0.361921 0.763909 0.394987 0.522317
C2    C     C_R   0.241160 0.445886 0.197135 -0.154494
C3    C     C_R   0.243000 0.452663 0.271230 -0.043021
C4    C     C_R   0.388760 0.358750 0.385811 0.540514
C5    C     C_R   0.855706 0.765404 0.369220 -0.128912
C6    C     C_R   0.869962 0.641952 0.343150 -0.101290
C7    C     C_R   0.997638 0.535909 0.314174 -0.099494
C8    C     C_R   0.109499 0.559033 0.306391 0.032538
C9    C     C_R   0.370091 0.357000 0.308317 -0.002450
C10   C     C_R   0.867972 0.329972 0.183759 0.026798
C11   C     C_R   0.951479 0.221692 0.232189 0.002928
C12   C     C_R   0.619381 0.149230 0.159953 0.046242
C13   C     C_R   0.922158 0.237315 0.303956 -0.022280
C14   C     C_R   0.725683 0.470655 0.280121 -0.164095
C15   C     C_R   0.757887 0.457541 0.208347 -0.165341
C16   C     C_R   0.771637 0.381738 0.402014 0.542210
C17   C     C_3   0.983038 0.073977 0.232821 -0.250686
C18   C     C_3   0.948851 0.092810 0.311112 -0.291277
C19   C     C_R   0.808380 0.360949 0.328304 0.022464
C20   C     C_R   0.367509 0.835799 0.173506 0.013752
C21   C     C_R   0.395573 0.912382 0.223571 0.016705
C22   C     C_R   0.396330 0.888887 0.295848 -0.002388
C23   C     C_R   0.359105 0.342799 0.159502 -0.012795
C24   C     C_R   0.377063 0.688839 0.269695 -0.179165
C25   C     C_R   0.369993 0.715429 0.196560 -0.174416
C26   C     C_3   0.327171 0.066577 0.234092 -0.254380
C27   C     C_3   0.328891 0.040764 0.313555 -0.297957
C28   C     C_R   0.346013 0.763207 0.605116 0.550633
C29   C     C_R   0.366650 0.789153 0.319584 0.004903
C30   C     C_R   0.302412 0.324859 0.813447 0.014678
C31   C     C_R   0.434594 0.250486 0.784056 0.013498
C32   C     C_R   0.451279 0.253984 0.712858 0.003491
C33   C     C_R   0.200103 0.395552 0.693961 -0.192438
C34   C     C_R   0.493207 0.270799 0.269441 -0.159614
C35   C     C_R   0.182580 0.391493 0.767786 -0.168773
C36   C     C_3   0.562977 0.255576 0.802158 -0.275113
C37   C     C_3   0.581165 0.259416 0.722674 -0.230900
C38   C     C_R   0.337138 0.330407 0.666796 0.015670
C39   C     C_R   0.829956 0.320652 0.832961 0.018040
C40   C     C_R   0.370492 0.350577 0.595724 0.540056
C41   C     C_R   0.743216 0.452182 0.802036 -0.000235
C42   C     C_R   0.732211 0.465830 0.729462 0.027776
C43   C     C_R   0.881181 0.215735 0.713937 -0.182699
C44   C     C_R   0.893685 0.200946 0.788297 -0.155951
C45   C     C_R   0.490413 0.261613 0.195562 -0.038662
C46   C     C_3   0.734517 0.590464 0.811288 -0.273434
C47   C     C_3   0.724802 0.603596 0.730861 -0.258679
C48   C     C_R   0.805020 0.350457 0.684118 0.013253
C49   C     C_R   0.301621 0.854299 0.824195 0.002917
C50   C     C_R   0.270890 0.757693 0.795746 -0.003875
C51   C     C_R   0.279015 0.736077 0.723059 0.016640
C52   C     C_R   0.766113 0.375961 0.609498 0.531710
C53   C     C_R   0.349704 0.906314 0.705023 -0.059718
C54   C     C_R   0.343627 0.926917 0.778668 -0.150134
C55   C     C_3   0.136890 0.757134 0.800875 -0.274859
C56   C     C_R   0.085664 0.691828 0.324948 -0.045631
C57   C     C_3   0.141152 0.741860 0.720857 -0.262223
C58   C     C_R   0.320820 0.807003 0.677940 0.031388
C59   C     C_R   0.913122 0.314546 0.111624 0.539002
C60   C     C_R   0.329710 0.296637 0.091193 0.534512
C61   C     C_R   0.310741 0.896690 0.104141 0.537908
C62   C     C_R   0.884389 0.308536 0.904600 0.542261
C63   C     C_R   0.293637 0.289275 0.885637 0.541417
C64   C     C_R   0.843384 0.930056 0.084648 -0.108703
C65   C     C_R   0.273835 0.898183 0.897405 0.543493
C66   C     C_R   0.799976 0.901380 0.148460 -0.124651
C67   C     C_R   0.965160 0.789276 0.361090 -0.106926
C68   C     C_R   0.688469 0.010084 0.185946 -0.105280
C69   C     C_3   0.375705 0.996321 0.655239 -0.248252
C70   C     C_3   0.246358 0.086977 0.605776 -0.284765
C71   C     C_3   0.289283 0.092601 0.529489 -0.437043
C72   C     C_R   0.666686 0.177391 0.096724 -0.061491
C73   C     C_R   0.776351 0.067639 0.058702 -0.080224
Cr1   Cr    Cr6+3 0.601740 0.606840 0.505840 0.990519
Cr2   Cr    Cr6+3 0.291500 0.601560 0.495070 1.012163
Cr3   Cr    Cr6+3 0.606780 0.291630 0.499130 0.990355
Cr4   Cr    Cr6+3 0.062440 0.063060 0.008240 0.979282
Cr5   Cr    Cr6+3 0.062950 0.375000 0.998920 0.997466
Cr6   Cr    Cr6+3 0.374550 0.061770 0.992470 1.019109
H1    H     H_    0.593391 0.206068 0.296889 0.139559
H2    H     H_    0.041623 0.026374 0.346224 0.135497
H3    H     H_    0.384199 0.593391 0.287511 0.133784
H4    H     H_    0.808934 0.089108 0.008833 0.135853
H5    H     H_    0.358236 0.647684 0.159028 0.126340
H6    H     H_    0.220664 0.127846 0.209339 0.145521
H7    H     H_    0.399649 0.100741 0.219078 0.160890
H8    H     H_    0.401473 0.063472 0.344247 0.145082
H9    H     H_    0.222309 0.085862 0.336406 0.136447
H10   H     H_    0.108718 0.452756 0.659148 0.118555
H11   H     H_    0.077225 0.439291 0.788825 0.134931
H12   H     H_    0.758539 0.843922 0.393843 0.109656
H13   H     H_    0.646676 0.156936 0.827905 0.141145
H14   H     H_    0.538312 0.354260 0.829859 0.135274
H15   H     H_    0.563613 0.361403 0.703599 0.156451
H16   H     H_    0.955221 0.884283 0.381756 0.109870
H17   H     H_    0.674095 0.162792 0.701632 0.152187
H18   H     H_    0.931646 0.123585 0.680253 0.111583
H19   H     H_    0.962263 0.097333 0.810418 0.140163
H20   H     H_    0.832211 0.582732 0.832828 0.158306
H21   H     H_    0.635749 0.669486 0.837913 0.144332
H22   H     H_    0.621812 0.690774 0.711073 0.159646
H23   H     H_    0.779447 0.632962 0.345489 0.158841
H24   H     H_    0.818766 0.597932 0.706874 0.134419
H25   H     H_    0.362119 0.006904 0.799820 0.153099
H26   H     H_    0.045777 0.857993 0.819292 0.143953
H27   H     H_    0.928899 0.845725 0.055283 0.107892
H28   H     H_    0.152809 0.662545 0.829317 0.143249
H29   H     H_    0.152551 0.642743 0.702171 0.161872
H30   H     H_    0.056521 0.837025 0.692882 0.132157
H31   H     H_    0.851978 0.794820 0.168655 0.122193
H32   H     H_    0.654374 0.984815 0.234379 0.106218
H33   H     H_    0.157112 0.723042 0.310750 0.137169
H34   H     H_    0.008215 0.438758 0.295820 0.124219
H35   H     H_    0.615198 0.283295 0.075624 0.094599
H36   H     H_    0.141804 0.513671 0.169468 0.143325
H37   H     H_    0.365944 0.128071 0.528567 0.176870
H38   H     H_    0.338004 0.987069 0.504681 0.173917
H39   H     H_    0.194616 0.166788 0.497368 0.138546
H40   H     H_    0.172697 0.047350 0.603554 0.163277
H41   H     H_    0.184061 0.194962 0.627046 0.161230
H42   H     H_    0.398978 0.065286 0.686814 0.144008
H43   H     H_    0.472381 0.928471 0.624265 0.163627
H44   H     H_    0.638232 0.567895 0.298891 0.140331
H45   H     H_    0.695847 0.544711 0.172281 0.131776
H46   H     H_    0.095383 0.995994 0.222978 0.163326
H47   H     H_    0.907521 0.060354 0.199894 0.173198
H48   H     H_    0.850938 0.092944 0.323201 0.143582
O1    O     O_R   0.748670 0.497520 0.427970 -0.535266
O2    O     O_R   0.417470 0.174910 0.067830 -0.502658
O3    O     O_R   0.375160 0.946380 0.070880 -0.493118
O4    O     O_R   0.476470 0.723930 0.429450 -0.508981
O5    O     O_R   0.160500 0.919670 0.926690 -0.528191
O6    O     O_R   0.933140 0.190380 0.936050 -0.528577
O7    O     O_R   0.909010 0.403210 0.925030 -0.524912
O8    O     O_R   0.179590 0.361290 0.918480 -0.512940
O9    O     O_R   0.391360 0.170840 0.907510 -0.524700
O10   O     O_R   0.350950 0.942600 0.922260 -0.515335
O11   O     O_3   0.166650 0.166610 0.999880 -0.249697
O12   O     O_R   0.300170 0.471020 0.567120 -0.500763
O13   O     O_R   0.264730 0.744140 0.416740 -0.537483
O14   O     O_R   0.309440 0.472410 0.418220 -0.491327
O15   O     O_R   0.501630 0.260530 0.414310 -0.540969
O16   O     O_R   0.727920 0.305730 0.428950 -0.506836
O17   O     O_R   0.738670 0.496020 0.588600 -0.516987
O18   O     O_R   0.467190 0.722540 0.578350 -0.512529
O19   O     O_R   0.254720 0.742640 0.577370 -0.525967
O20   O     O_R   0.491630 0.259030 0.574940 -0.528434
O21   O     O_R   0.718640 0.304340 0.577850 -0.509033
O22   O     O_3   0.500010 0.500010 0.500020 -0.252817
O23   O     O_R   0.186620 0.923750 0.087000 -0.524195
O24   O     O_R   0.957350 0.194160 0.084660 -0.507925
O25   O     O_R   0.935120 0.407280 0.085350 -0.521298
O26   O     O_R   0.203800 0.365060 0.067090 -0.510924

loop_
_geom_bond_atom_site_label_1
_geom_bond_atom_site_label_2
_ccdc_geom_bond_type
C66   C68   A    
C46   H20   S    
C23   C45   A    
C22   C29   A    
C41   C42   A    
Cr1   O18   S    
C5    C67   A    
C53   C69   S    
Cr4   O24   S    
Cr5   O25   S    
C7    C8    A    
C39   C41   A    
C53   C54   A    
Cr6   O9    S    
C12   C68   A    
C28   O18   A    
C52   O17   A    
C49   C65   S    
C13   C18   S    
C55   H26   S    
C47   H22   S    
C69   H43   S    
C62   O6    A    
C54   H25   S    
C36   C37   S    
C10   C15   A    
C16   C19   S    
C4    O15   A    
C30   C31   A    
C73   H4    S    
C17   H47   S    
C20   C25   A    
C49   C54   A    
Cr6   O2    S    
C40   O12   A    
C72   H35   S    
C18   H2    S    
C20   C61   S    
C24   H3    S    
C60   O26   A    
C46   H21   S    
Cr2   O14   S    
C34   H1    S    
C21   C22   A    
C24   C29   A    
C44   H19   S    
C36   H14   S    
C57   H30   S    
Cr3   O20   S    
C70   H41   S    
C71   H37   S    
C25   H5    S    
C41   C46   S    
Cr1   O22   S    
C70   C71   S    
C51   C57   S    
C32   C38   A    
C61   O23   A    
C71   H39   S    
C65   O10   A    
C36   H13   S    
C12   C72   A    
C52   O21   A    
Cr1   O4    S    
C67   H16   S    
C8    C56   A    
C69   C70   S    
Cr4   O6    S    
Cr5   O11   S    
C21   C26   S    
C50   C51   A    
C6    C7    A    
Cr2   O19   S    
C23   C60   S    
Cr1   O1    S    
C47   H24   S    
C15   H45   S    
C71   H38   S    
C16   O16   A    
C24   C25   A    
C3    C8    S    
C4    O14   A    
C51   C58   A    
C13   C19   A    
C72   C73   A    
C59   O25   A    
Cr6   O3    S    
C66   H31   S    
C37   H17   S    
C55   H28   S    
Cr4   O5    S    
C63   O8    A    
C60   O2    A    
C43   C44   A    
C17   H46   S    
C3    C9    A    
C33   H10   S    
C18   H48   S    
Cr5   O7    S    
C2    H36   S    
C31   C32   A    
C69   H42   S    
C70   H40   S    
C26   H7    S    
C57   H29   S    
C1    C29   S    
C17   C18   S    
C26   C27   S    
C34   C45   A    
C42   C48   A    
C32   C37   S    
Cr4   O11   S    
C27   H8    S    
C16   O1    A    
C5    H12   S    
C1    O13   A    
C61   O3    A    
C30   C35   A    
Cr6   O10   S    
C64   C73   A    
C59   O24   A    
C22   C27   S    
C55   C57   S    
C9    C34   A    
Cr5   O8    S    
C35   H11   S    
C65   O5    A    
C43   C48   A    
C39   C62   S    
Cr1   O17   S    
C46   C47   S    
C11   C17   S    
C14   H44   S    
C40   O20   A    
C31   C36   S    
C14   C19   A    
C43   H18   S    
C12   C45   S    
C1    O4    A    
Cr4   O23   S    
C53   C58   A    
Cr5   O26   S    
C64   H27   S    
C39   C44   A    
C28   C58   S    
C56   C67   A    
C28   O19   A    
C50   C55   S    
Cr2   O13   S    
C63   O9    A    
C7    H34   S    
C2    C3    A    
Cr2   O12   S    
C38   C40   S    
C11   C13   A    
C62   O7    A    
C5    C6    A    
Cr3   O22   S    
Cr2   O22   S    
C26   H6    S    
C33   C35   A    
C56   H33   S    
C37   H15   S    
C10   C59   S    
C42   C47   S    
C6    H23   S    
C27   H9    S    
C10   C11   A    
Cr3   O16   S    
C48   C52   S    
Cr6   O11   S    
C20   C21   A    
Cr3   O21   S    
C49   C50   A    
C2    C23   A    
C14   C15   A    
C33   C38   A    
C4    C9    S    
C30   C63   S    
C68   H32   S    
C64   C66   A    
Cr3   O15   S    
