data_mof_unit_31511.cif
_audit_creation_date              2012-12-10T17:05:25-0500
_audit_creation_method            fapswitch 2.2
_symmetry_space_group_name_H-M    P1
_symmetry_Int_Tables_number       1
_space_group_crystal_system       triclinic
_cell_length_a                    10.036641
_cell_length_b                    10.725941
_cell_length_c                    15.508613
_cell_angle_alpha                 89.795666
_cell_angle_beta                  67.758918
_cell_angle_gamma                 89.772081
_cell_volume                      1545.30894404

loop_
_atom_site_label
_atom_site_type_symbol
_atom_type_description
_atom_site_fract_x
_atom_site_fract_y
_atom_site_fract_z
_atom_type_partial_charge
C1    C     C_R   0.502395 0.737245 0.495700 0.933834
C2    C     C_R   0.705154 0.399408 0.039371 0.113558
C3    C     C_R   0.573174 0.457948 0.092053 0.098958
C4    C     C_R   0.410217 0.504858 0.676094 0.874763
C5    C     C_R   0.800593 0.365757 0.081812 -0.198321
C6    C     C_R   0.767324 0.391117 0.176515 -0.006322
C7    C     C_R   0.555497 0.505173 0.178900 -0.204819
C8    C     C_2   0.611959 0.066904 0.488003 -0.269119
C9    C     C_2   0.489196 0.132371 0.526444 -0.142447
C10   C     C_2   0.615233 0.933232 0.493308 -0.176624
C11   C     C_2   0.509640 0.868609 0.482668 -0.357386
C12   C     C_R   0.406711 0.488066 0.917495 0.004245
C13   C     C_2   0.045992 0.426138 0.549847 -0.114662
C14   C     C_2   0.899206 0.420334 0.544790 -0.049454
C15   C     C_R   0.497247 0.262800 0.505503 0.921680
C16   C     C_R   0.590299 0.492648 0.324345 0.849605
C17   C     C_R   0.355031 0.509567 0.778185 -0.137393
C18   C     C_R   0.645427 0.467519 0.224181 -0.181081
C19   C     C_R   0.158739 0.498254 0.929153 -0.162553
C20   C     C_R   0.207176 0.498877 0.831971 -0.190425
C21   C     C_R   0.452885 0.519706 0.823124 -0.052943
C22   C     C_2   0.354732 0.081810 0.599196 0.382074
C23   C     C_R   0.258411 0.491766 0.972551 0.073771
C24   C     C_2   0.854218 0.328161 0.223433 0.350834
C25   C     C_2   0.582291 0.600631 0.783340 0.408439
C26   C     C_3   0.251645 0.349513 0.236895 -0.270069
C27   C     C_R   0.505496 0.456545 0.958501 -0.006609
C28   C     C_R   0.463893 0.468388 0.055602 -0.066675
C29   C     C_R   0.313937 0.480017 0.111894 0.490489
C30   C     C_R   0.213252 0.488747 0.069442 -0.252360
C31   C     C_R   0.640331 0.402852 0.905316 -0.124198
C32   C     C_R   0.737129 0.370903 0.946145 -0.236199
H1    H     H_    0.099620 0.493797 0.112677 0.184100
H2    H     H_    0.467543 0.568517 0.213785 0.212453
H3    H     H_    0.837396 0.325269 0.904574 0.155287
H4    H     H_    0.044294 0.498942 0.969929 0.147562
H5    H     H_    0.129243 0.494944 0.799209 0.175321
H6    H     H_    0.667345 0.376894 0.833374 0.190920
H7    H     H_    0.355206 0.992534 0.632127 0.091896
H8    H     H_    0.828350 0.335837 0.297367 0.115163
H9    H     H_    0.573309 0.698558 0.801974 0.058061
H10   H     H_    0.359890 0.306429 0.217733 0.167796
H11   H     H_    0.186120 0.293522 0.207509 0.212289
H12   H     H_    0.896544 0.312907 0.042252 0.186373
H13   H     H_    0.198021 0.345998 0.313909 0.193189
H14   H     H_    0.712615 0.111703 0.445507 0.184864
H15   H     H_    0.705867 0.888969 0.503356 0.195089
H16   H     H_    0.424834 0.913804 0.466307 0.165733
H17   H     H_    0.067202 0.363792 0.598409 0.194245
H18   H     H_    0.131825 0.552311 0.449041 0.180593
H19   H     H_    0.826922 0.347609 0.584462 0.167664
H20   H     H_    0.917322 0.572052 0.466010 0.167364
N1    N     N_2   0.148330 0.498670 0.499030 -0.195404
N2    N     N_2   0.852680 0.498640 0.499000 -0.184770
O1    O     O_R   0.386950 0.680940 0.500010 -0.611997
O2    O     O_2   0.955694 0.261237 0.179322 -0.605793
O3    O     O_2   0.698591 0.559087 0.732020 -0.568639
O4    O     O_3   0.261417 0.475299 0.208187 -0.631886
O5    O     O_R   0.613110 0.680900 0.499990 -0.606696
O6    O     O_R   0.322330 0.500030 0.632270 -0.604349
O7    O     O_R   0.548480 0.499990 0.632240 -0.560338
O8    O     O_R   0.386890 0.319100 0.500010 -0.569707
O9    O     O_R   0.613050 0.319060 0.499990 -0.646261
O10   O     O_R   0.451520 0.500010 0.367760 -0.593120
O11   O     O_R   0.677670 0.499970 0.367730 -0.634388
O12   O     O_2   0.242425 0.141206 0.625051 -0.574649
Zn1   Zn    Zn3+2 0.349000 0.500030 0.500020 0.977979
Zn2   Zn    Zn3+2 0.651000 0.499970 0.499980 0.961462

loop_
_geom_bond_atom_site_label_1
_geom_bond_atom_site_label_2
_ccdc_geom_bond_type
O1    Zn1   S    
C32   H3    S    
C29   C30   A    
O5    Zn2   S    
C24   O2    D    
C13   N1    D    
C14   H19   S    
O7    Zn2   S    
C31   H6    S    
O11   Zn2   S    
C6    C24   S    
C7    C18   A    
C19   C20   A    
C2    C3    A    
C1    O1    A    
C13   C14   S    
C20   H5    S    
C26   O4    S    
C12   C23   A    
C4    O6    A    
C11   H16   S    
N1    Zn1   S    
C25   O3    D    
O8    Zn1   S    
C13   H17   S    
C4    C17   S    
C12   C21   A    
C2    C32   A    
C28   C29   A    
C14   N2    D    
C5    H12   S    
H20   N2    S    
C26   H11   S    
C3    C7    A    
C19   H4    S    
C1    O5    A    
C9    C15   S    
C5    C6    A    
C6    C18   A    
C7    H2    S    
C8    H14   S    
C9    C22   S    
C1    C11   S    
C2    C5    A    
N2    Zn2   S    
C10   C11   D    
C22   H7    S    
C12   C27   A    
C27   C31   A    
H18   N1    S    
C23   C30   A    
C10   H15   S    
C17   C20   A    
C29   O4    S    
C26   H10   S    
C3    C28   A    
C16   C18   S    
C25   H9    S    
C27   C28   A    
C21   C25   S    
C19   C23   A    
C22   O12   D    
C15   O9    A    
C16   O11   A    
C16   O10   A    
C30   H1    S    
C24   H8    S    
O9    Zn2   S    
C4    O7    A    
C15   O8    A    
C8    C10   S    
O10   Zn1   S    
C31   C32   A    
O6    Zn1   S    
C8    C9    D    
C26   H13   S    
C17   C21   A    
