data_mof_unit_46072.cif
_audit_creation_date              2012-12-10T16:36:48-0500
_audit_creation_method            fapswitch 2.2
_symmetry_space_group_name_H-M    P1
_symmetry_Int_Tables_number       1
_space_group_crystal_system       triclinic
_cell_length_a                    14.159682
_cell_length_b                    16.474464
_cell_length_c                    15.092112
_cell_angle_alpha                 90.162673
_cell_angle_beta                  91.614514
_cell_angle_gamma                 89.883089
_cell_volume                      3519.16623919

loop_
_atom_site_label
_atom_site_type_symbol
_atom_type_description
_atom_site_fract_x
_atom_site_fract_y
_atom_site_fract_z
_atom_type_partial_charge
C1    C     C_R   0.679686 0.844616 0.518943 0.481103
C2    C     C_R   0.959454 0.480432 0.110155 -0.128494
C3    C     C_R   0.596372 0.069378 0.128084 0.239574
C4    C     C_R   0.096376 0.569372 0.128083 0.239584
C5    C     C_R   0.586710 0.088906 0.037213 0.277291
C6    C     C_R   0.086707 0.588908 0.037216 0.277306
C7    C     C_2   0.246675 0.218105 0.478766 -0.063694
C8    C     C_2   0.246590 0.782084 0.477319 -0.060450
C9    C     C_2   0.746673 0.718104 0.478768 -0.063691
C10   C     C_2   0.746591 0.282084 0.477319 -0.060447
C11   C     C_2   0.755021 0.785901 0.528185 0.264838
C12   C     C_R   0.679847 0.155423 0.519285 0.518510
C13   C     C_2   0.753785 0.215079 0.527567 0.254084
C14   C     C_2   0.255019 0.285901 0.528186 0.264839
C15   C     C_2   0.253784 0.715079 0.527567 0.254084
C16   C     C_R   0.320170 0.156273 0.481063 0.528048
C17   C     C_R   0.320190 0.843761 0.480737 0.525517
C18   C     C_R   0.820169 0.656273 0.481063 0.528051
C19   C     C_R   0.820190 0.343761 0.480737 0.525518
C20   C     C_R   0.521201 0.003077 0.260610 0.540032
C21   C     C_R   0.021201 0.503075 0.260610 0.540022
C22   C     C_R   0.478442 0.999971 0.738624 0.558243
C23   C     C_R   0.179685 0.344616 0.518942 0.481108
C24   C     C_R   0.978444 0.499971 0.738625 0.558234
C25   C     C_R   0.529501 0.015527 0.164700 -0.041575
C26   C     C_R   0.029502 0.515524 0.164699 -0.041576
C27   C     C_R   0.472700 0.999320 0.834418 -0.024056
C28   C     C_R   0.972702 0.499322 0.834417 -0.024072
C29   C     C_R   0.389397 0.953291 0.962697 0.234193
C30   C     C_R   0.889401 0.453288 0.962693 0.234218
C31   C     C_R   0.396089 0.960230 0.871274 -0.169857
C32   C     C_R   0.896093 0.460228 0.871271 -0.169830
C33   C     C_R   0.544096 0.034218 0.888445 0.245860
C34   C     C_R   0.179847 0.655423 0.519285 0.518512
C35   C     C_R   0.044093 0.534227 0.888445 0.245836
C36   C     C_3   0.328124 0.358988 0.643785 0.025813
C37   C     C_3   0.420961 0.364740 0.697577 -0.251420
C38   C     C_3   0.412881 0.423605 0.775283 -0.431324
C39   C     C_3   0.321311 0.681652 0.662462 0.035850
C40   C     C_3   0.415029 0.689375 0.714603 -0.280823
C41   C     C_3   0.401604 0.681243 0.814128 -0.407686
C42   C     C_3   0.828138 0.859011 0.643763 0.025825
C43   C     C_3   0.920978 0.864764 0.697551 -0.251416
C44   C     C_3   0.912918 0.923663 0.775231 -0.431312
C45   C     C_R   0.531131 0.038064 0.980931 -0.048910
C46   C     C_3   0.821312 0.181643 0.662459 0.035846
C47   C     C_3   0.915027 0.189378 0.714603 -0.280831
C48   C     C_3   0.901600 0.181241 0.814128 -0.407682
C49   C     C_R   0.031128 0.538069 0.980931 -0.048912
C50   C     C_R   0.459266 0.990169 0.018321 -0.048461
C51   C     C_R   0.959267 0.490170 0.018319 -0.048461
C52   C     C_R   0.459455 0.980431 0.110156 -0.128500
H1    H     H_    0.407277 0.942590 0.140534 0.220463
H2    H     H_    0.308876 0.693129 0.181179 0.376667
H3    H     H_    0.180871 0.922872 0.905139 0.337505
H4    H     H_    0.680813 0.422828 0.905208 0.337599
H5    H     H_    0.597893 0.309524 0.065001 0.405328
H6    H     H_    0.097978 0.809518 0.065072 0.405398
H7    H     H_    0.676276 0.930889 0.792550 0.328046
H8    H     H_    0.176284 0.430923 0.792533 0.328036
H9    H     H_    0.272172 0.336316 0.687917 0.137593
H10   H     H_    0.309224 0.420681 0.619005 0.165904
H11   H     H_    0.440689 0.303659 0.723317 0.211653
H12   H     H_    0.907276 0.442593 0.140532 0.220472
H13   H     H_    0.477842 0.385912 0.653957 0.180183
H14   H     H_    0.393751 0.485186 0.750878 0.167279
H15   H     H_    0.481737 0.427173 0.812152 0.170461
H16   H     H_    0.358394 0.402359 0.821336 0.196439
H17   H     H_    0.292499 0.619537 0.671702 0.185834
H18   H     H_    0.271128 0.727442 0.689150 0.167891
H19   H     H_    0.464662 0.641555 0.692443 0.167226
H20   H     H_    0.446800 0.749628 0.701252 0.208656
H21   H     H_    0.352541 0.728790 0.837863 0.230462
H22   H     H_    0.470748 0.688514 0.849766 0.157461
H23   H     H_    0.342766 0.933041 0.827775 0.147433
H24   H     H_    0.373050 0.620428 0.829535 0.221925
H25   H     H_    0.772184 0.836358 0.687904 0.137622
H26   H     H_    0.809251 0.920700 0.618962 0.165903
H27   H     H_    0.940689 0.803690 0.723321 0.211644
H28   H     H_    0.977865 0.885902 0.653920 0.180188
H29   H     H_    0.893803 0.985237 0.750795 0.167218
H30   H     H_    0.981776 0.927232 0.812095 0.170458
H31   H     H_    0.858425 0.902448 0.821296 0.196503
H32   H     H_    0.792514 0.119522 0.671693 0.185810
H33   H     H_    0.771119 0.227422 0.689150 0.167904
H34   H     H_    0.842773 0.433034 0.827772 0.147483
H35   H     H_    0.964671 0.141566 0.692443 0.167215
H36   H     H_    0.946787 0.249636 0.701255 0.208660
H37   H     H_    0.852526 0.228779 0.837862 0.230478
H38   H     H_    0.970742 0.188524 0.849769 0.157463
H39   H     H_    0.873060 0.120422 0.829534 0.221919
H40   H     H_    0.683644 0.707400 0.437498 0.075229
H41   H     H_    0.684150 0.292524 0.435208 0.101210
H42   H     H_    0.183647 0.207402 0.437495 0.075229
H43   H     H_    0.184150 0.792524 0.435207 0.101205
H44   H     H_    0.808837 0.193174 0.181213 0.376664
O1    O     O_3   0.500000 0.000000 0.500000 -0.475647
O2    O     O_R   0.885830 0.337110 0.539910 -0.501632
O3    O     O_R   0.692160 0.095230 0.468550 -0.489661
O4    O     O_R   0.692160 0.904770 0.468550 -0.525254
O5    O     O_R   0.192160 0.595230 0.468550 -0.489660
O6    O     O_R   0.192160 0.404770 0.468550 -0.525240
O7    O     O_R   0.316720 0.904790 0.427870 -0.533116
O8    O     O_R   0.316720 0.095210 0.427870 -0.536504
O9    O     O_R   0.816720 0.404790 0.427870 -0.533115
O10   O     O_R   0.816720 0.595210 0.427870 -0.536504
O11   O     O_R   0.594900 0.000000 0.310900 -0.464020
O12   O     O_3   0.000000 0.500000 0.500000 -0.475649
O13   O     O_R   0.094900 0.500000 0.310900 -0.464023
O14   O     O_R   0.483090 0.932320 0.697550 -0.556585
O15   O     O_R   0.483090 0.067680 0.697550 -0.488942
O16   O     O_R   0.983090 0.432320 0.697550 -0.556602
O17   O     O_R   0.983090 0.567680 0.697550 -0.488924
O18   O     O_R   0.438930 0.000000 0.294000 -0.534168
O19   O     O_R   0.938930 0.500000 0.294000 -0.534167
O20   O     O_2   0.649827 0.161897 0.267597 -0.276087
O21   O     O_2   0.749051 0.044130 0.234312 -0.245826
O22   O     O_3   0.763806 0.170110 0.136518 -0.400498
O23   O     O_R   0.605310 0.837110 0.563680 -0.560875
O24   O     O_2   0.149868 0.661891 0.267584 -0.276058
O25   O     O_2   0.249056 0.544099 0.234301 -0.245830
O26   O     O_3   0.263833 0.670069 0.136491 -0.400561
O27   O     O_2   0.326424 0.825154 0.051031 -0.212550
O28   O     O_2   0.240182 0.952644 0.068689 -0.279445
O29   O     O_3   0.215876 0.872648 0.921194 -0.486659
O30   O     O_2   0.826440 0.325156 0.051032 -0.212514
O31   O     O_2   0.740195 0.452641 0.068686 -0.279466
O32   O     O_3   0.715880 0.372633 0.921196 -0.486762
O33   O     O_2   0.703762 0.201733 0.970882 -0.103288
O34   O     O_R   0.605310 0.162890 0.563680 -0.544260
O35   O     O_2   0.535715 0.213204 0.930090 -0.277461
O36   O     O_3   0.588922 0.254372 0.089267 -0.448181
O37   O     O_2   0.203733 0.701756 0.970886 -0.103307
O38   O     O_2   0.035678 0.713221 0.930124 -0.277380
O39   O     O_3   0.088910 0.754366 0.089303 -0.448227
O40   O     O_2   0.657569 0.135705 0.801944 -0.226889
O41   O     O_2   0.734117 0.046460 0.912702 -0.275517
O42   O     O_3   0.679464 0.984295 0.762815 -0.577141
O43   O     O_2   0.157551 0.635736 0.801953 -0.226872
O44   O     O_2   0.234113 0.546488 0.912700 -0.275519
O45   O     O_R   0.105310 0.337110 0.563680 -0.560888
O46   O     O_3   0.179468 0.484334 0.762806 -0.577148
O47   O     O_3   0.340514 0.305301 0.571795 -0.545113
O48   O     O_3   0.337881 0.694796 0.571791 -0.552765
O49   O     O_3   0.840519 0.805301 0.571790 -0.545119
O50   O     O_3   0.837882 0.194796 0.571789 -0.552766
O51   O     O_R   0.105310 0.662890 0.563680 -0.544259
O52   O     O_R   0.385830 0.162890 0.539910 -0.488173
O53   O     O_R   0.385830 0.837110 0.539910 -0.501636
O54   O     O_R   0.885830 0.662890 0.539910 -0.488167
S1    S     S_3+6 0.690712 0.111848 0.194505 0.101038
S2    S     S_3+6 0.190732 0.611826 0.194494 0.101023
S3    S     S_3+6 0.291363 0.900065 0.004009 0.018906
S4    S     S_3+6 0.791372 0.400062 0.004004 0.018906
S5    S     S_3+6 0.605270 0.191158 0.003283 0.150523
S6    S     S_3+6 0.105248 0.691167 0.003303 0.150542
S7    S     S_3+6 0.656965 0.052595 0.842554 0.018926
S8    S     S_3+6 0.156959 0.552622 0.842553 0.018919
Zn1   Zn    Zn3+2 0.493670 0.096680 0.574000 1.009888
Zn2   Zn    Zn3+2 0.493670 0.903320 0.574000 0.941706
Zn3   Zn    Zn3+2 0.993670 0.596680 0.574000 1.009898
Zn4   Zn    Zn3+2 0.993670 0.403320 0.574000 0.941696
Zn5   Zn    Zn3+2 0.617760 0.000000 0.438070 1.047662
Zn6   Zn    Zn3+2 0.117760 0.500000 0.438070 1.047665
Zn7   Zn    Zn3+2 0.394920 0.000000 0.413930 0.984469
Zn8   Zn    Zn3+2 0.894920 0.500000 0.413930 0.984470

loop_
_geom_bond_atom_site_label_1
_geom_bond_atom_site_label_2
_ccdc_geom_bond_type
C20   O18   A    
C30   C51   A    
C40   H19   S    
O37   S6    D    
C33   C45   A    
H5    O36   S    
C24   O16   A    
C21   O19   A    
C44   H31   S    
C49   C51   A    
C27   C33   A    
O12   Zn6   S    
C12   O34   A    
O1    Zn1   S    
H44   O22   S    
C36   C37   S    
C36   O47   S    
C44   H30   S    
C23   O6    A    
C20   C25   S    
C43   H27   S    
O36   S5    S    
O9    Zn8   S    
C1    O4    A    
C1    O23   A    
C7    H42   S    
O15   Zn1   S    
C12   O3    A    
H8    O46   S    
O8    Zn7   S    
C37   H11   S    
C16   O8    A    
C7    C14   D    
O38   S6    D    
H3    O29   S    
O43   S8    D    
C2    H12   S    
O23   Zn2   S    
C22   O14   A    
C48   H39   S    
C37   H13   S    
C35   C49   A    
C50   C52   A    
C15   C34   S    
O29   S3    S    
O32   S4    S    
C20   O11   A    
O44   S8    D    
C41   H22   S    
C24   O17   A    
C48   H38   S    
O28   S3    D    
C39   O48   S    
C30   S4    S    
C8    H43   S    
C13   O50   S    
O46   S8    S    
C36   H10   S    
C9    H40   S    
O2    Zn4   S    
C19   O2    A    
C33   S7    S    
C29   C50   A    
C4    S2    S    
O24   S2    D    
C34   O5    A    
C27   C31   A    
O1    Zn2   S    
C38   H14   S    
C3    C25   A    
C28   C35   A    
C2    C26   A    
C44   H29   S    
O51   Zn3   S    
C39   C40   S    
O33   S5    D    
O31   S4    D    
C11   O49   S    
H7    O42   S    
O1    Zn5   S    
C43   H28   S    
C5    S5    S    
O12   Zn4   S    
C10   C13   D    
O39   S6    S    
O34   Zn1   S    
O52   Zn1   S    
C47   H35   S    
C14   C23   S    
C43   C44   S    
C18   O10   A    
C37   C38   S    
C34   O51   A    
C31   H23   S    
C47   C48   S    
C28   C32   A    
C10   C19   S    
C32   H34   S    
C39   H17   S    
O21   S1    D    
C12   C13   S    
O19   Zn8   S    
C9    C11   D    
H2    O26   S    
C46   H32   S    
O40   S7    D    
C19   O9    A    
C4    C6    A    
C40   C41   S    
O11   Zn5   S    
O7    Zn7   S    
C8    C15   D    
C48   H37   S    
O3    Zn5   S    
O17   Zn3   S    
C42   C43   S    
C36   H9    S    
O30   S4    D    
O14   Zn2   S    
C52   H1    S    
O18   Zn7   S    
C29   S3    S    
O27   S3    D    
O54   Zn3   S    
O12   Zn8   S    
C46   C47   S    
C7    C16   S    
C40   H20   S    
O5    Zn6   S    
C17   O53   A    
C24   C28   S    
C38   H16   S    
C3    C5    A    
O13   Zn6   S    
C4    C26   A    
C42   H26   S    
H6    O39   S    
O16   Zn4   S    
O12   Zn3   S    
C3    S1    S    
C8    C17   S    
C10   H41   S    
O25   S2    D    
O41   S7    D    
C22   C27   S    
C47   H36   S    
C46   H33   S    
O35   S5    D    
C14   O47   S    
C25   C52   A    
C29   C31   A    
C41   H24   S    
C30   C32   A    
O42   S7    S    
C16   O52   A    
C46   O50   S    
C5    C45   A    
C45   C50   A    
O10   Zn8   S    
O1    Zn7   S    
C21   C26   S    
C39   H18   S    
O4    Zn5   S    
H4    O32   S    
C6    C49   A    
C17   O7    A    
O22   S1    S    
O53   Zn2   S    
C35   S8    S    
C2    C51   A    
C41   H21   S    
C15   O48   S    
C9    C18   S    
O45   Zn4   S    
C38   H15   S    
C42   H25   S    
O6    Zn6   S    
C22   O15   A    
C23   O45   A    
C1    C11   S    
C18   O54   A    
C42   O49   S    
O20   S1    D    
C6    S6    S    
O26   S2    S    
C21   O13   A    
