data_mof_unit_31812.cif
_audit_creation_date              2012-12-10T17:02:16-0500
_audit_creation_method            fapswitch 2.2
_symmetry_space_group_name_H-M    P1
_symmetry_Int_Tables_number       1
_space_group_crystal_system       triclinic
_cell_length_a                    10.624399
_cell_length_b                    10.644419
_cell_length_c                    10.102075
_cell_angle_alpha                 89.808124
_cell_angle_beta                  89.923755
_cell_angle_gamma                 89.895865
_cell_volume                      1142.43996869

loop_
_atom_site_label
_atom_site_type_symbol
_atom_type_description
_atom_site_fract_x
_atom_site_fract_y
_atom_site_fract_z
_atom_type_partial_charge
C1    C     C_R   0.499918 0.262483 0.499901 0.898830
C2    C     C_2   0.495609 0.129436 0.498077 -0.345509
C3    C     C_2   0.511848 0.598742 0.927805 -0.039129
C4    C     C_R   0.260748 0.497131 0.500082 0.873586
C5    C     C_2   0.543148 0.591700 0.072733 0.202301
C6    C     C_R   0.486415 0.736496 0.499927 0.961239
C7    C     C_R   0.739161 0.496756 0.499930 0.857828
C8    C     C_R   0.131601 0.280228 0.609082 -0.180016
C9    C     C_R   0.066058 0.178306 0.661979 -0.121056
C10   C     C_R   0.935034 0.178350 0.662302 -0.136877
C11   C     C_R   0.869075 0.280217 0.609521 -0.186603
C12   C     C_R   0.066119 0.384825 0.556317 0.088855
C13   C     C_R   0.934129 0.384741 0.556365 0.102812
C14   C     C_3   0.556051 0.381818 0.894557 -0.586548
C15   C     C_3   0.629341 0.691112 0.125432 -0.793393
C16   C     C_2   0.368496 0.883095 0.272494 0.927343
C17   C     C_R   0.128324 0.489025 0.499983 -0.099651
C18   C     C_R   0.063920 0.588214 0.440985 -0.195605
C19   C     C_R   0.935314 0.587889 0.440445 -0.217852
C20   C     C_R   0.871492 0.488639 0.499606 -0.083829
C21   C     C_2   0.416765 0.936163 0.398776 0.007579
C22   C     C_2   0.454616 0.867297 0.503492 -0.434141
C23   C     C_2   0.420251 0.072643 0.410731 -0.186279
H1    H     H_    0.113361 0.667170 0.397711 0.196901
H2    H     H_    0.464186 0.909468 0.600572 0.159600
H3    H     H_    0.363355 0.128224 0.342678 0.183034
H4    H     H_    0.614348 0.343137 0.813661 0.237706
H5    H     H_    0.623623 0.389163 0.977748 0.181718
H6    H     H_    0.480106 0.313764 0.917848 0.192760
H7    H     H_    0.711413 0.701232 0.058086 0.205821
H8    H     H_    0.579248 0.782346 0.129906 0.245467
H9    H     H_    0.667128 0.667026 0.223842 0.272778
H10   H     H_    0.271397 0.746243 0.180214 0.335888
H11   H     H_    0.556943 0.080558 0.566724 0.140362
H12   H     H_    0.503915 0.691163 0.882978 0.146399
H13   H     H_    0.434636 0.443715 0.106194 0.168474
H14   H     H_    0.233245 0.275414 0.608467 0.148283
H15   H     H_    0.117098 0.098661 0.701886 0.145550
H16   H     H_    0.884319 0.098751 0.702498 0.137238
H17   H     H_    0.767451 0.275366 0.609172 0.132623
H18   H     H_    0.885196 0.666400 0.396327 0.148056
N1    N     N_2   0.501340 0.501330 0.852150 -0.071971
N2    N     N_2   0.501380 0.501360 0.147810 -0.191865
O1    O     O_R   0.499980 0.319060 0.613040 -0.634766
O2    O     O_R   0.299276 0.771593 0.272265 -0.803045
O3    O     O_R   0.500020 0.319100 0.386900 -0.600058
O4    O     O_R   0.316750 0.499980 0.613090 -0.609842
O5    O     O_R   0.316790 0.500020 0.386950 -0.589082
O6    O     O_R   0.499980 0.680900 0.613100 -0.623818
O7    O     O_R   0.500020 0.680940 0.386960 -0.582592
O8    O     O_R   0.683210 0.499980 0.613050 -0.613955
O9    O     O_R   0.683250 0.500020 0.386910 -0.619862
O10   O     O_2   0.384275 0.940796 0.168888 -0.658143
Zn1   Zn    Zn3+2 0.499970 0.499970 0.650990 0.943559
Zn2   Zn    Zn3+2 0.500030 0.500030 0.349010 0.962895

loop_
_geom_bond_atom_site_label_1
_geom_bond_atom_site_label_2
_ccdc_geom_bond_type
C12   C17   A    
C16   O2    S    
O5    Zn2   S    
C3    N1    D    
C15   H8    S    
C16   C21   S    
O3    Zn2   S    
C8    C12   A    
H10   O2    S    
C9    C10   A    
C1    O1    A    
C19   C20   A    
O9    Zn2   S    
C3    H12   S    
C14   N1    S    
O8    Zn1   S    
C2    H11   S    
C17   C18   A    
C5    N2    D    
C7    O8    A    
C15   H9    S    
C21   C22   D    
N1    Zn1   S    
C11   C13   A    
C4    O4    A    
C19   H18   S    
O4    Zn1   S    
C18   H1    S    
C4    C17   S    
N2    Zn2   S    
C9    H15   S    
C7    O9    A    
C1    C2    S    
C21   C23   S    
C6    O6    A    
C4    O5    A    
C11   H17   S    
C14   H4    S    
C1    O3    A    
C5    C15   S    
C10   C11   A    
C14   H6    S    
O6    Zn1   S    
C6    C22   S    
O1    Zn1   S    
C12   C13   A    
C15   H7    S    
C18   C19   A    
C8    H14   S    
C23   H3    S    
C2    C23   D    
C16   O10   D    
C8    C9    A    
H13   N2    S    
C13   C20   A    
C14   H5    S    
C7    C20   S    
C6    O7    A    
O7    Zn2   S    
C10   H16   S    
C3    C5    S    
C22   H2    S    
