data_mof_unit_67564.cif
_audit_creation_date              2012-10-26T18:48:19-0400
_audit_creation_method            fapswitch 2.2
_symmetry_space_group_name_H-M    P1
_symmetry_Int_Tables_number       1
_space_group_crystal_system       triclinic
_cell_length_a                    10.750619
_cell_length_b                    8.97359
_cell_length_c                    7.504268
_cell_angle_alpha                 102.160466
_cell_angle_beta                  93.291209
_cell_angle_gamma                 95.476483
_cell_volume                      702.235777228

loop_
_atom_site_label
_atom_site_type_symbol
_atom_type_description
_atom_site_fract_x
_atom_site_fract_y
_atom_site_fract_z
_atom_type_partial_charge
C1    C     C_R   0.492103 0.200084 0.454624 0.595768
C2    C     C_3   0.120411 0.488524 0.505677 -0.011427
C3    C     C_3   0.976251 0.612247 0.635469 -0.051197
C4    C     C_3   0.022635 0.384630 0.363130 -0.052193
C5    C     C_2   0.494968 0.033979 0.428992 -0.082413
C6    C     C_2   0.508936 0.966634 0.570795 -0.074359
C7    C     C_R   0.933289 0.733290 0.781208 0.055741
C8    C     C_R   0.957208 0.729404 0.964961 -0.054619
C9    C     C_R   0.887282 0.808850 0.096787 -0.116785
C10   C     C_R   0.798124 0.898803 0.047343 -0.128177
C11   C     C_R   0.781663 0.913818 0.867101 -0.055995
C12   C     C_R   0.510006 0.800072 0.545284 0.568853
C13   C     C_R   0.847653 0.829578 0.733556 -0.013991
C14   C     C_R   0.062746 0.262630 0.214849 0.026271
C15   C     C_R   0.023177 0.253846 0.031421 -0.075343
C16   C     C_R   0.082088 0.164755 0.892649 -0.088745
C17   C     C_R   0.178919 0.082847 0.935951 -0.094335
C18   C     C_R   0.213642 0.083727 0.117458 -0.058369
C19   C     C_R   0.154997 0.171912 0.256916 -0.049287
C20   C     C_R   0.258821 0.488586 0.501703 0.588554
C21   C     C_R   0.740917 0.510858 0.498084 0.588587
C22   C     C_3   0.038049 0.469039 0.663684 -0.185386
C23   C     C_3   0.960235 0.526698 0.334966 -0.165194
C24   C     C_3   0.939984 0.366626 0.518912 0.226618
C25   C     C_3   0.057885 0.630064 0.478897 0.281798
C26   C     C_3   0.878619 0.508500 0.493075 -0.019410
Cu1   Cu    Cu3+1 0.514140 0.517380 0.684380 1.027021
Cu2   Cu    Cu3+1 0.485860 0.482620 0.315620 1.013229
H1    H     H_    0.077057 0.446643 0.793787 0.115050
H2    H     H_    0.898878 0.796465 0.236393 0.164145
H3    H     H_    0.739417 0.953194 0.147329 0.181783
H4    H     H_    0.712412 0.983386 0.829814 0.163334
H5    H     H_    0.822812 0.826982 0.591445 0.152247
H6    H     H_    0.951367 0.321084 0.995179 0.152001
H7    H     H_    0.057009 0.164861 0.751825 0.208948
H8    H     H_    0.229589 0.022473 0.829689 0.199981
H9    H     H_    0.290021 0.021914 0.149596 0.125383
H10   H     H_    0.187691 0.177953 0.397579 0.129539
H11   H     H_    0.918348 0.541861 0.203499 0.109372
H12   H     H_    0.399526 0.379844 0.950719 0.233265
H13   H     H_    0.600435 0.620134 0.049336 0.232197
H14   H     H_    0.489344 0.966590 0.289838 0.095901
H15   H     H_    0.515212 0.034508 0.709810 0.129838
H16   H     H_    0.937006 0.048905 0.367316 0.368919
H17   H     H_    0.297651 0.803201 0.259730 0.363262
H18   H     H_    0.023292 0.656591 0.004175 0.161596
N1    N     N_2   0.464560 0.456420 0.038510 -0.256280
N2    N     N_2   0.535440 0.543580 0.961490 -0.258219
O1    O     O_R   0.509190 0.286130 0.619780 -0.484687
O2    O     O_2   0.734993 0.188856 0.370148 -0.317385
O3    O     O_3   0.902828 0.047031 0.486039 -0.546101
O4    O     O_2   0.099540 0.934180 0.489436 -0.328915
O5    O     O_2   0.265883 0.809691 0.599592 -0.331791
O6    O     O_3   0.210225 0.755388 0.245350 -0.540717
O7    O     O_R   0.490810 0.713870 0.380220 -0.521226
O8    O     O_R   0.485310 0.256770 0.308360 -0.500045
O9    O     O_R   0.514690 0.743230 0.691640 -0.499566
O10   O     O_R   0.328790 0.514640 0.655680 -0.494953
O11   O     O_R   0.671210 0.485360 0.344320 -0.490975
O12   O     O_R   0.304910 0.485280 0.344260 -0.469957
O13   O     O_R   0.695090 0.514720 0.655740 -0.469602
O14   O     O_2   0.775250 0.224936 0.703493 -0.287244
S1    S     S_3+6 0.833448 0.204784 0.524046 -0.044981
S2    S     S_3+6 0.159880 0.790436 0.456398 -0.039330

loop_
_geom_bond_atom_site_label_1
_geom_bond_atom_site_label_2
_ccdc_geom_bond_type
Cu1   N2    S    
C2    C22   S    
H12   N1    S    
C2    C4    S    
C21   C26   S    
Cu2   N1    S    
C13   H5    S    
O14   S1    D    
C19   H10   S    
C2    C25   S    
C9    C10   A    
C15   H6    S    
C21   O13   A    
N1    N2    D    
C1    C5    S    
C7    C13   A    
C5    H14   S    
Cu1   O9    S    
C23   C25   S    
C17   C18   A    
Cu2   O8    S    
C7    C8    A    
C16   H7    S    
C6    C12   S    
O2    S1    D    
C11   C13   A    
O6    S2    S    
C9    H2    S    
H13   N2    S    
C23   H11   S    
C12   O9    A    
C10   H3    S    
H16   O3    S    
C25   S2    S    
C22   H1    S    
Cu2   O7    S    
C24   C26   S    
C11   H4    S    
C21   O11   A    
C24   S1    S    
C3    C7    S    
C6    H15   S    
Cu2   O12   S    
C17   H8    S    
C4    C14   S    
C5    C6    D    
C4    C24   S    
O5    S2    D    
C22   C24   S    
Cu2   O11   S    
C12   O7    A    
C20   O12   A    
C10   C11   A    
C2    C20   S    
C15   C16   A    
C3    C25   S    
O3    S1    S    
C8    C9    A    
C1    O8    A    
O4    S2    D    
C23   C26   S    
Cu1   Cu2   S    
C4    C23   S    
C14   C15   A    
C18   C19   A    
C3    C22   S    
Cu1   O13   S    
C8    H18   S    
C20   O10   A    
C14   C19   A    
C18   H9    S    
C3    C26   S    
Cu1   O1    S    
C16   C17   A    
H17   O6    S    
Cu1   O10   S    
C1    O1    A    
