data_mof_unit_65948.cif
_audit_creation_date              2012-12-10T20:19:11-0500
_audit_creation_method            fapswitch 2.2
_symmetry_space_group_name_H-M    P1
_symmetry_Int_Tables_number       1
_space_group_crystal_system       triclinic
_cell_length_a                    41.483505
_cell_length_b                    35.531118
_cell_length_c                    21.514337
_cell_angle_alpha                 90.000213
_cell_angle_beta                  58.826526
_cell_angle_gamma                 89.99922
_cell_volume                      27132.2049117

loop_
_atom_site_label
_atom_site_type_symbol
_atom_type_description
_atom_site_fract_x
_atom_site_fract_y
_atom_site_fract_z
_atom_type_partial_charge
Br1   Br    Br    0.503638 0.699021 0.131461 -0.464724
Br2   Br    Br    0.496370 0.699020 0.868530 -0.464744
Br3   Br    Br    0.003203 0.199021 0.131926 -0.464696
Br4   Br    Br    0.996832 0.199021 0.868038 -0.464674
C1    C     C_R   0.926539 0.499953 0.573166 0.931313
C2    C     C_R   0.326253 0.502187 0.117832 -0.153601
C3    C     C_R   0.999998 0.806909 0.000000 0.154433
C4    C     C_1   0.499998 0.266868 0.000000 -0.056798
C5    C     C_1   0.999998 0.766868 0.000000 -0.056796
C6    C     C_1   0.999998 0.733214 0.000000 -0.057860
C7    C     C_1   0.499998 0.233214 0.000000 -0.057859
C8    C     C_R   0.034168 0.673708 0.964929 -0.156015
C9    C     C_R   0.965829 0.673709 0.035071 -0.156008
C10   C     C_R   0.534172 0.173708 0.965547 -0.156019
C11   C     C_R   0.465824 0.173709 0.034453 -0.156015
C12   C     C_R   0.034215 0.634535 0.964891 -0.194891
C13   C     C_R   0.173745 0.002124 0.882183 -0.153484
C14   C     C_R   0.965782 0.634536 0.035110 -0.194889
C15   C     C_R   0.534220 0.134536 0.965502 -0.194887
C16   C     C_R   0.465778 0.134536 0.034498 -0.194887
C17   C     C_R   0.999999 0.614650 0.000000 -0.041346
C18   C     C_R   0.499999 0.114650 0.000000 -0.041344
C19   C     C_3   0.966081 0.524618 0.248349 -0.418419
C20   C     C_3   0.033942 0.524590 0.751621 -0.418351
C21   C     C_3   0.466075 0.024610 0.248356 -0.418362
C22   C     C_3   0.533942 0.024587 0.751625 -0.418327
C23   C     C_R   0.999998 0.693173 0.000000 0.153458
C24   C     C_R   0.826262 0.002137 0.117791 -0.153394
C25   C     C_R   0.499998 0.193173 1.000000 0.153471
C26   C     C_R   0.501502 0.673372 0.055094 0.267322
C27   C     C_R   0.498506 0.673372 0.944898 0.267320
C28   C     C_R   0.001325 0.173373 0.055281 0.267315
C29   C     C_R   0.998701 0.173373 0.944690 0.267316
C30   C     C_R   0.501470 0.634247 0.054905 -0.213744
C31   C     C_R   0.498534 0.634246 0.945092 -0.213750
C32   C     C_R   0.001292 0.134247 0.055093 -0.213751
C33   C     C_R   0.998721 0.134247 0.944892 -0.213753
C34   C     C_R   0.500001 0.614469 0.999999 -0.150572
C35   C     C_R   0.634550 0.501465 0.921714 -0.181920
C36   C     C_R   0.000004 0.114470 0.999996 -0.150585
C37   C     C_R   0.500005 0.692904 0.999995 -0.020515
C38   C     C_R   0.000016 0.192905 0.999983 -0.020526
C39   C     C_1   0.500006 0.732872 0.999994 0.099912
C40   C     C_1   0.000018 0.232872 0.999981 0.099904
C41   C     C_1   0.000017 0.266423 0.999983 0.044109
C42   C     C_1   0.500006 0.766422 0.999993 0.044110
C43   C     C_R   0.029616 0.325500 0.998131 -0.159349
C44   C     C_R   0.970404 0.325494 0.001855 -0.159330
C45   C     C_R   0.529615 0.825497 0.998111 -0.159361
C46   C     C_R   0.365445 0.501485 0.078299 -0.181885
C47   C     C_R   0.470392 0.825496 0.001878 -0.159357
C48   C     C_R   0.029859 0.364756 0.999406 -0.031758
C49   C     C_R   0.970150 0.364750 0.000594 -0.031712
C50   C     C_R   0.529862 0.864753 0.999379 -0.031739
C51   C     C_R   0.470141 0.864752 0.000616 -0.031680
C52   C     C_R   0.000003 0.385006 0.000001 -0.151963
C53   C     C_R   0.500000 0.885005 0.999998 -0.151936
C54   C     C_3   0.037387 0.517100 0.249267 -0.194940
C55   C     C_3   0.962624 0.517138 0.750726 -0.194900
C56   C     C_3   0.537383 0.017112 0.249271 -0.194922
C57   C     C_R   0.134553 0.001420 0.921710 -0.181921
C58   C     C_3   0.462626 0.017144 0.750723 -0.194883
C59   C     C_R   0.000013 0.306299 0.999988 0.092184
C60   C     C_R   0.500005 0.806299 0.999993 0.092149
C61   C     C_3   0.994103 0.459232 0.290277 -0.385631
C62   C     C_3   0.005858 0.459229 0.709764 -0.385619
C63   C     C_3   0.494116 0.959231 0.290264 -0.385610
C64   C     C_3   0.505849 0.959228 0.709772 -0.385599
C65   C     C_3   0.999412 0.499957 0.311134 -0.038433
C66   C     C_3   0.000584 0.499958 0.688870 -0.038432
C67   C     C_3   0.499413 0.999957 0.311133 -0.038436
C68   C     C_R   0.865454 0.001433 0.078277 -0.181957
C69   C     C_3   0.500583 0.999958 0.688871 -0.038443
C70   C     C_3   0.999701 0.500774 0.189834 0.033477
C71   C     C_3   0.000300 0.500778 0.810164 0.033462
C72   C     C_3   0.499701 0.000775 0.189834 0.033462
C73   C     C_3   0.500299 0.000778 0.810167 0.033459
C74   C     C_3   0.036918 0.518370 0.178005 -0.460378
C75   C     C_3   0.963097 0.518407 0.821985 -0.460415
C76   C     C_3   0.536914 0.018379 0.178008 -0.460406
C77   C     C_3   0.463098 0.018411 0.821983 -0.460448
C78   C     C_2   0.072418 0.497626 0.238913 0.913756
C79   C     C_R   0.614513 0.500929 0.885389 -0.044255
C80   C     C_2   0.927573 0.497697 0.761103 0.913689
C81   C     C_2   0.572420 0.997651 0.238915 0.913697
C82   C     C_2   0.427574 0.997710 0.761098 0.913667
C83   C     C_2   0.806766 0.427591 0.682562 0.922667
C84   C     C_2   0.193228 0.427611 0.318074 0.922754
C85   C     C_2   0.306764 0.927594 0.682559 0.922638
C86   C     C_2   0.693234 0.927564 0.317040 0.922634
C87   C     C_2   0.928464 0.518143 0.385809 0.909315
C88   C     C_2   0.071551 0.518081 0.614157 0.909307
C89   C     C_2   0.428460 0.018125 0.385814 0.909343
C90   C     C_R   0.385487 0.500924 0.114615 -0.044247
C91   C     C_2   0.571552 0.018069 0.614171 0.909377
C92   C     C_2   0.061084 0.382982 0.002999 0.962266
C93   C     C_2   0.938917 0.382969 0.997014 0.962306
C94   C     C_2   0.561094 0.882979 0.002945 0.962287
C95   C     C_2   0.438904 0.882975 0.997058 0.962318
C96   C     C_2   0.966369 0.435814 0.217160 0.945869
C97   C     C_2   0.033576 0.435789 0.782894 0.945840
C98   C     C_2   0.466385 0.935807 0.217144 0.945852
C99   C     C_2   0.533571 0.935788 0.782897 0.945825
C100  C     C_R   0.114513 0.000928 0.885390 -0.044254
C101  C     C_R   0.073460 0.499953 0.426842 0.931437
C102  C     C_R   0.885487 0.000930 0.114610 -0.044259
C103  C     C_R   0.634237 0.501260 0.809075 -0.187870
C104  C     C_R   0.365767 0.501227 0.190928 -0.187941
C105  C     C_R   0.134233 0.001301 0.809079 -0.187876
C106  C     C_R   0.865760 0.001297 0.190925 -0.187805
C107  C     C_R   0.673397 0.501964 0.769752 -0.135242
C108  C     C_R   0.326607 0.501927 0.230260 -0.135114
C109  C     C_R   0.173393 0.002004 0.769751 -0.135248
C110  C     C_R   0.826599 0.002000 0.230241 -0.135340
C111  C     C_R   0.692999 0.502390 0.806402 0.145502
C112  C     C_R   0.426539 0.999953 0.573165 0.931346
C113  C     C_R   0.307001 0.502378 0.193621 0.145466
C114  C     C_R   0.192998 0.002387 0.806395 0.145506
C115  C     C_R   0.807001 0.002390 0.193582 0.145524
C116  C     C_1   0.732989 0.502008 0.765949 -0.004850
C117  C     C_1   0.267011 0.501996 0.234085 -0.004867
C118  C     C_1   0.232988 0.002005 0.765937 -0.004882
C119  C     C_1   0.767012 0.002000 0.234027 -0.004866
C120  C     C_1   0.766617 0.500990 0.731422 0.029226
C121  C     C_1   0.233383 0.500981 0.268627 0.029274
C122  C     C_1   0.266617 0.000989 0.731409 0.029185
C123  C     C_R   0.573461 0.999952 0.426829 0.931406
C124  C     C_1   0.733384 0.000978 0.268544 0.029208
C125  C     C_R   0.826262 0.464732 0.667596 -0.017582
C126  C     C_R   0.173735 0.464740 0.332734 -0.017594
C127  C     C_R   0.326262 0.964733 0.667591 -0.017535
C128  C     C_R   0.673740 0.964714 0.332194 -0.017596
C129  C     C_R   0.999539 0.499904 0.379082 0.853720
C130  C     C_R   0.000455 0.499904 0.620923 0.853706
C131  C     C_R   0.499540 0.999904 0.379081 0.853709
C132  C     C_R   0.500456 0.999905 0.620922 0.853728
C133  C     C_R   0.865728 0.465537 0.629541 -0.221316
C134  C     C_3   0.997323 0.459301 0.215817 -0.191364
C135  C     C_R   0.134269 0.465545 0.370762 -0.221268
C136  C     C_R   0.365728 0.965537 0.629543 -0.221318
C137  C     C_R   0.634273 0.965525 0.370266 -0.221459
C138  C     C_R   0.885310 0.499784 0.613455 -0.068774
C139  C     C_R   0.114690 0.499782 0.386580 -0.069009
C140  C     C_R   0.385310 0.999784 0.613451 -0.068793
C141  C     C_R   0.614691 0.999778 0.386521 -0.068691
C142  C     C_R   0.865319 0.533707 0.635870 -0.153434
C143  C     C_R   0.134682 0.533697 0.363929 -0.153163
C144  C     C_R   0.365319 0.033708 0.635857 -0.153442
C145  C     C_3   0.002641 0.459303 0.784221 -0.191334
C146  C     C_R   0.634682 0.033703 0.364247 -0.153406
C147  C     C_R   0.826244 0.533430 0.674023 -0.183192
C148  C     C_R   0.173758 0.533420 0.325786 -0.183237
C149  C     C_R   0.326243 0.033432 0.674005 -0.183192
C150  C     C_R   0.673758 0.033423 0.326086 -0.183159
C151  C     C_R   0.806691 0.499361 0.690048 0.060836
C152  C     C_R   0.193309 0.499359 0.310019 0.060747
C153  C     C_R   0.306690 0.999362 0.690034 0.060843
C154  C     C_R   0.693311 0.999347 0.309903 0.060844
C155  C     C_R   1.000000 0.573405 0.000000 0.844127
C156  C     C_3   0.497335 0.959301 0.215805 -0.191367
C157  C     C_R   0.500000 0.073405 0.000000 0.844132
C158  C     C_R   0.999968 0.501319 0.121468 0.871200
C159  C     C_R   0.000033 0.501324 0.878531 0.871167
C160  C     C_R   0.499968 0.001320 0.121468 0.871173
C161  C     C_R   0.500032 0.001323 0.878532 0.871162
C162  C     C_R   0.000000 0.426467 0.000000 1.002183
C163  C     C_R   0.500000 0.926466 0.999999 1.002096
C164  C     C_R   0.500000 0.426718 1.000000 0.867293
C165  C     C_R   1.000000 0.926718 1.000000 0.867296
C166  C     C_R   0.573273 0.500239 0.926729 0.869299
C167  C     C_3   0.502635 0.959302 0.784227 -0.191338
C168  C     C_R   0.426727 0.500238 0.073272 0.869299
C169  C     C_R   0.073273 0.000239 0.926729 0.869305
C170  C     C_R   0.926727 0.000240 0.073271 0.869302
C171  C     C_3   0.966896 0.525897 0.319194 -0.189740
C172  C     C_3   0.033125 0.525870 0.680776 -0.189795
C173  C     C_3   0.466890 0.025889 0.319201 -0.189776
C174  C     C_3   0.533127 0.025865 0.680779 -0.189806
C175  C     C_R   0.500000 0.573330 0.000000 0.913045
C176  C     C_R   0.000000 0.073331 1.000000 0.913046
C177  C     C_R   0.499845 0.326374 0.943778 -0.154362
C178  C     C_R   0.673742 0.502170 0.882192 -0.153479
C179  C     C_R   0.500152 0.326374 0.056222 -0.154358
C180  C     C_R   0.999846 0.826374 0.943777 -0.154359
C181  C     C_R   0.000151 0.826374 0.056224 -0.154360
C182  C     C_R   0.499846 0.365547 0.943697 -0.188254
C183  C     C_R   0.500152 0.365547 0.056302 -0.188261
C184  C     C_R   0.999847 0.865547 0.943696 -0.188252
C185  C     C_R   0.000151 0.865547 0.056304 -0.188257
C186  C     C_R   0.499999 0.385448 1.000000 -0.042533
C187  C     C_R   0.999999 0.885448 1.000000 -0.042535
C188  C     C_R   0.499998 0.306909 0.000000 0.154434
H1    H     H_    0.973900 0.555405 0.325489 0.155102
H2    H     H_    0.938190 0.503354 0.866170 0.213688
H3    H     H_    0.614061 0.037477 0.518477 0.345606
H4    H     H_    0.077304 0.422314 0.048907 0.346579
H5    H     H_    0.922680 0.422297 0.951128 0.346580
H6    H     H_    0.577321 0.922290 0.048877 0.346593
H7    H     H_    0.422667 0.922293 0.951156 0.346578
H8    H     H_    0.910778 0.426820 0.260087 0.356462
H9    H     H_    0.089159 0.426740 0.739961 0.356476
H10   H     H_    0.410797 0.926800 0.260070 0.356468
H11   H     H_    0.589154 0.926741 0.739965 0.356471
H12   H     H_    0.561812 0.003308 0.133839 0.213685
H13   H     H_    0.438189 0.003360 0.866165 0.213697
H14   H     H_    0.688997 0.502352 0.910599 0.144176
H15   H     H_    0.310994 0.502389 0.089433 0.144163
H16   H     H_    0.189004 0.002272 0.910583 0.144175
H17   H     H_    0.811010 0.002291 0.089376 0.144179
H18   H     H_    0.620014 0.501259 0.980477 0.165071
H19   H     H_    0.379977 0.501302 0.019537 0.165062
H20   H     H_    0.120021 0.001181 0.980470 0.165064
H21   H     H_    0.026144 0.555383 0.674457 0.155101
H22   H     H_    0.879993 0.001200 0.019513 0.165075
H23   H     H_    0.619482 0.500892 0.779748 0.166097
H24   H     H_    0.380526 0.500838 0.220248 0.166109
H25   H     H_    0.119475 0.000968 0.779758 0.166111
H26   H     H_    0.880512 0.000956 0.220259 0.166088
H27   H     H_    0.688375 0.501981 0.710903 0.149106
H28   H     H_    0.311634 0.501923 0.289109 0.149176
H29   H     H_    0.188367 0.002055 0.710904 0.149108
H30   H     H_    0.811616 0.002044 0.289091 0.149055
H31   H     H_    0.881298 0.439348 0.611632 0.205378
H32   H     H_    0.473886 0.055399 0.325504 0.155109
H33   H     H_    0.118697 0.439365 0.388870 0.205402
H34   H     H_    0.381296 0.939347 0.611642 0.205354
H35   H     H_    0.618704 0.939332 0.388051 0.205415
H36   H     H_    0.879842 0.560460 0.624152 0.181647
H37   H     H_    0.120160 0.560443 0.375438 0.181642
H38   H     H_    0.379842 0.060461 0.624134 0.181659
H39   H     H_    0.620160 0.060460 0.376095 0.181617
H40   H     H_    0.811172 0.559931 0.691462 0.153582
H41   H     H_    0.188831 0.559912 0.308149 0.153590
H42   H     H_    0.311172 0.059932 0.691438 0.153588
H43   H     H_    0.526153 0.055380 0.674452 0.155097
H44   H     H_    0.688830 0.059926 0.308770 0.153569
H45   H     H_    0.499724 0.311288 0.900120 0.141512
H46   H     H_    0.500272 0.311288 0.099881 0.141513
H47   H     H_    0.999727 0.811288 0.900117 0.141514
H48   H     H_    0.000269 0.811288 0.099884 0.141513
H49   H     H_    0.499724 0.380181 0.899666 0.163201
H50   H     H_    0.500274 0.380181 0.100333 0.163201
H51   H     H_    0.999727 0.880181 0.899664 0.163203
H52   H     H_    0.000271 0.880181 0.100336 0.163202
H53   H     H_    0.060700 0.688794 0.937686 0.143190
H54   H     H_    0.024557 0.445493 0.176809 0.194384
H55   H     H_    0.939296 0.688794 0.062315 0.143191
H56   H     H_    0.560708 0.188793 0.938791 0.143184
H57   H     H_    0.439288 0.188794 0.061209 0.143186
H58   H     H_    0.060965 0.619880 0.937418 0.163856
H59   H     H_    0.939034 0.619881 0.062583 0.163858
H60   H     H_    0.560973 0.119882 0.938525 0.163852
H61   H     H_    0.439025 0.119882 0.061475 0.163855
H62   H     H_    0.502656 0.619419 0.097660 0.198216
H63   H     H_    0.497347 0.619419 0.902337 0.198215
H64   H     H_    0.002328 0.119420 0.098009 0.198229
H65   H     H_    0.975396 0.445519 0.823246 0.194357
H66   H     H_    0.997681 0.119420 0.901981 0.198229
H67   H     H_    0.052123 0.309701 0.997696 0.176365
H68   H     H_    0.947901 0.309690 0.002286 0.176376
H69   H     H_    0.552126 0.809697 0.997663 0.176388
H70   H     H_    0.447883 0.809694 0.002325 0.176401
H71   H     H_    0.938824 0.513380 0.258365 0.246918
H72   H     H_    0.061190 0.513328 0.741609 0.246924
H73   H     H_    0.438821 0.013366 0.258369 0.246922
H74   H     H_    0.561187 0.013324 0.741619 0.246911
H75   H     H_    0.968121 0.553832 0.227829 0.149372
H76   H     H_    0.524571 0.945500 0.176791 0.194385
H77   H     H_    0.031928 0.553807 0.772112 0.149393
H78   H     H_    0.468108 0.053825 0.227845 0.149415
H79   H     H_    0.531929 0.053804 0.772114 0.149427
H80   H     H_    0.039088 0.546767 0.264187 0.152497
H81   H     H_    0.960948 0.546806 0.735784 0.152538
H82   H     H_    0.539074 0.046780 0.264197 0.152522
H83   H     H_    0.460957 0.046812 0.735775 0.152533
H84   H     H_    0.039250 0.548120 0.159811 0.169484
H85   H     H_    0.960791 0.548159 0.840155 0.169459
H86   H     H_    0.539240 0.048129 0.159818 0.169449
H87   H     H_    0.475390 0.945521 0.823255 0.194367
H88   H     H_    0.460795 0.048163 0.840150 0.169423
H89   H     H_    0.015556 0.439689 0.288172 0.216533
H90   H     H_    0.984386 0.439707 0.711891 0.216519
H91   H     H_    0.515576 0.939695 0.288150 0.216535
H92   H     H_    0.484372 0.939711 0.711906 0.216509
H93   H     H_    0.966709 0.447484 0.333181 0.228948
H94   H     H_    0.033242 0.447457 0.666869 0.228983
H95   H     H_    0.466726 0.947475 0.333164 0.228954
H96   H     H_    0.533229 0.947448 0.666878 0.228983
H97   H     H_    0.119493 0.501878 0.243886 0.349802
H98   H     H_    0.061812 0.503293 0.133838 0.213677
H99   H     H_    0.880496 0.502001 0.756152 0.349808
H100  H     H_    0.619493 0.001923 0.243892 0.349810
H101  H     H_    0.380502 0.002019 0.756127 0.349802
H102  H     H_    0.759717 0.398380 0.708087 0.354963
H103  H     H_    0.240276 0.398457 0.292777 0.354962
H104  H     H_    0.259728 0.898382 0.708004 0.354960
H105  H     H_    0.740281 0.898306 0.291354 0.354959
H106  H     H_    0.885987 0.537588 0.481506 0.345615
H107  H     H_    0.114040 0.537487 0.518431 0.345653
H108  H     H_    0.385974 0.037562 0.481508 0.345625
O1    O     O_R   0.944550 0.531270 0.555450 -0.602846
O2    O     O_R   0.444590 0.500090 0.003140 -0.620601
O3    O     O_R   0.055410 0.000090 0.996860 -0.620586
O4    O     O_R   0.944590 0.000090 0.003140 -0.620592
O5    O     O_R   0.500010 0.555520 0.947680 -0.618328
O6    O     O_R   0.499990 0.555520 0.052320 -0.618322
O7    O     O_R   0.000010 0.055520 0.947680 -0.618333
O8    O     O_R   0.999990 0.055520 0.052320 -0.618332
O9    O     O_R   0.944500 0.468660 0.555500 -0.621402
O10   O     O_R   0.055500 0.468660 0.444500 -0.621363
O11   O     O_R   0.444500 0.968660 0.555500 -0.621402
O12   O     O_R   0.055450 0.531270 0.444550 -0.602871
O13   O     O_R   0.555500 0.968660 0.444500 -0.621398
O14   O     O_R   0.999990 0.531270 0.407410 -0.619144
O15   O     O_R   0.000010 0.531270 0.592590 -0.619133
O16   O     O_R   0.499990 0.031270 0.407410 -0.619132
O17   O     O_R   0.500010 0.031270 0.592590 -0.619160
O18   O     O_R   0.999940 0.468660 0.407460 -0.618024
O19   O     O_R   0.000060 0.468660 0.592540 -0.618047
O20   O     O_R   0.499940 0.968660 0.407460 -0.618040
O21   O     O_R   0.500060 0.968660 0.592540 -0.618025
O22   O     O_R   0.968670 0.555400 0.031330 -0.629660
O23   O     O_R   0.444550 0.031270 0.555450 -0.602843
O24   O     O_R   0.031330 0.555400 0.968670 -0.629663
O25   O     O_R   0.468670 0.055400 0.031330 -0.629660
O26   O     O_R   0.531330 0.055400 0.968670 -0.629662
O27   O     O_R   0.968670 0.499940 0.123930 -0.619566
O28   O     O_R   0.031330 0.499940 0.876070 -0.619569
O29   O     O_R   0.468670 0.999940 0.123930 -0.619526
O30   O     O_R   0.531330 0.999940 0.876070 -0.619538
O31   O     O_R   0.031270 0.499990 0.061330 -0.613670
O32   O     O_R   0.968730 0.499990 0.938670 -0.613654
O33   O     O_R   0.531270 0.999990 0.061330 -0.613715
O34   O     O_R   0.555450 0.031270 0.444550 -0.602870
O35   O     O_R   0.468730 0.999990 0.938670 -0.613704
O36   O     O_R   0.968660 0.444490 0.031330 -0.595065
O37   O     O_R   0.031340 0.444490 0.968670 -0.595120
O38   O     O_R   0.468660 0.944490 0.031330 -0.595098
O39   O     O_R   0.531340 0.944490 0.968670 -0.595139
O40   O     O_R   0.499920 0.444610 0.947830 -0.621198
O41   O     O_R   0.500080 0.444610 0.052170 -0.621203
O42   O     O_R   0.999920 0.944610 0.947830 -0.621197
O43   O     O_R   0.000080 0.944610 0.052170 -0.621200
O44   O     O_2   0.079908 0.465326 0.216183 -0.621309
O45   O     O_R   0.555400 0.500060 0.892310 -0.620401
O46   O     O_R   0.096742 0.517350 0.253978 -0.814657
O47   O     O_2   0.920055 0.465403 0.783857 -0.621303
O48   O     O_R   0.903264 0.517447 0.746036 -0.814542
O49   O     O_2   0.579921 0.965352 0.216180 -0.621259
O50   O     O_R   0.596737 0.017386 0.253986 -0.814515
O51   O     O_2   0.420048 0.965418 0.783863 -0.621297
O52   O     O_R   0.403271 0.017462 0.746013 -0.814542
O53   O     O_2   0.823729 0.398713 0.678931 -0.603824
O54   O     O_R   0.769431 0.425208 0.699453 -0.800760
O55   O     O_2   0.176258 0.398695 0.321964 -0.603838
O56   O     O_R   0.444600 0.500060 0.107690 -0.620404
O57   O     O_R   0.230567 0.425283 0.301184 -0.800800
O58   O     O_2   0.323714 0.898720 0.679010 -0.603817
O59   O     O_R   0.269445 0.925209 0.699356 -0.800727
O60   O     O_2   0.676268 0.898714 0.320524 -0.603817
O61   O     O_R   0.730569 0.925137 0.300138 -0.800713
O62   O     O_2   0.911902 0.488644 0.391975 -0.582586
O63   O     O_R   0.911743 0.545492 0.440180 -0.806932
O64   O     O_2   0.088086 0.488567 0.608011 -0.582595
O65   O     O_R   0.088293 0.545416 0.559760 -0.806879
O66   O     O_2   0.411908 0.988619 0.391977 -0.582580
O67   O     O_R   0.055400 0.000060 0.892310 -0.620417
O68   O     O_R   0.411729 0.045473 0.440186 -0.806933
O69   O     O_2   0.588077 0.988547 0.608026 -0.582542
O70   O     O_R   0.588310 0.045408 0.559787 -0.807017
O71   O     O_2   0.093255 0.371106 0.965305 -0.608996
O72   O     O_R   0.053698 0.412548 0.051391 -0.785548
O73   O     O_2   0.906750 0.371077 0.034692 -0.608994
O74   O     O_R   0.946289 0.412544 0.948647 -0.785453
O75   O     O_2   0.593270 0.871123 0.965187 -0.608955
O76   O     O_R   0.553711 0.912524 0.051378 -0.785504
O77   O     O_2   0.406733 0.871106 0.034796 -0.608981
O78   O     O_R   0.944600 0.000060 0.107690 -0.620412
O79   O     O_R   0.446278 0.912530 0.948650 -0.785443
O80   O     O_2   0.974732 0.408632 0.176806 -0.607800
O81   O     O_R   0.928474 0.444691 0.264715 -0.757300
O82   O     O_2   0.025192 0.408613 0.823267 -0.607783
O83   O     O_R   0.071479 0.444632 0.735327 -0.757309
O84   O     O_2   0.474754 0.908627 0.176784 -0.607771
O85   O     O_R   0.428488 0.944675 0.264702 -0.757302
O86   O     O_2   0.525186 0.908614 0.823277 -0.607779
O87   O     O_R   0.571473 0.944628 0.735325 -0.757308
O88   O     O_R   0.555410 0.500090 0.996860 -0.620604
Zn1   Zn    Zn3+2 0.000000 0.541770 0.500000 1.021818
Zn2   Zn    Zn3+2 0.500040 0.500060 0.069780 0.976027
Zn3   Zn    Zn3+2 0.999960 0.000060 0.930220 0.976027
Zn4   Zn    Zn3+2 0.000040 0.000060 0.069780 0.976028
Zn5   Zn    Zn3+2 0.500000 0.041770 0.500000 1.021818
Zn6   Zn    Zn3+2 0.000000 0.458160 0.500000 1.029649
Zn7   Zn    Zn3+2 0.500000 0.958160 0.500000 1.029633
Zn8   Zn    Zn3+2 0.958170 0.499940 0.041830 1.009448
Zn9   Zn    Zn3+2 0.041830 0.499940 0.958170 1.009418
Zn10  Zn    Zn3+2 0.458170 0.999940 0.041830 1.009444
Zn11  Zn    Zn3+2 0.541830 0.999940 0.958170 1.009420
Zn12  Zn    Zn3+2 0.499960 0.500060 0.930220 0.976026

loop_
_geom_bond_atom_site_label_1
_geom_bond_atom_site_label_2
_ccdc_geom_bond_type
C137  H35   S    
C31   H63   S    
C169  O67   A    
C14   C17   A    
C138  C142  A    
H8    O81   S    
C166  O45   A    
O12   Zn1   S    
C16   H61   S    
C75   H2    S    
C82   O52   S    
C9    C14   A    
C184  C187  A    
C150  C154  A    
C54   C78   S    
C101  O12   A    
C131  O20   A    
C181  H48   S    
C160  O29   A    
C8    H53   S    
C54   H80   S    
C164  C186  S    
C61   H93   S    
C62   H90   S    
C170  O78   A    
C127  C136  A    
C90   C168  S    
C36   C176  S    
C158  O27   A    
C148  C152  A    
C147  C151  A    
H106  O63   S    
C137  C141  A    
O29   Zn10  S    
H99   O48   S    
O37   Zn9   S    
C176  O7    A    
C37   C39   S    
C38   C40   S    
C129  O14   A    
C78   O44   D    
H7    O79   S    
H103  O57   S    
O14   Zn1   S    
C11   C16   A    
C47   H70   S    
C8    C23   A    
O9    Zn6   S    
C22   C73   S    
C57   C100  A    
C55   C80   S    
C62   C145  S    
C63   H91   S    
C98   C156  S    
C18   C157  S    
C44   C59   A    
C11   H57   S    
C24   H17   S    
H6    O76   S    
C182  C186  A    
C134  H54   S    
C98   O85   S    
C157  O25   A    
C158  O31   A    
C73   C167  S    
C20   C71   S    
C109  H29   S    
O27   Zn8   S    
C13   C114  A    
C123  C141  S    
C58   C77   S    
C68   C102  A    
C51   C53   A    
C165  O43   A    
O19   Zn6   S    
C159  O32   A    
C144  C149  A    
C20   C172  S    
H10   O85   S    
C44   H68   S    
C166  O88   A    
C34   C175  S    
C10   C15   A    
C13   H16   S    
C47   C60   A    
C130  O19   A    
C43   C48   A    
C115  C119  S    
C136  H34   S    
C85   C127  S    
C135  H33   S    
C83   O54   S    
C21   C72   S    
O36   Zn8   S    
C143  H37   S    
O17   Zn5   S    
O10   Zn6   S    
H4    O72   S    
C19   H75   S    
C149  H42   S    
C47   C51   A    
C173  H32   S    
C15   H60   S    
C96   O81   S    
H100  O50   S    
C103  H23   S    
C66   C130  S    
C172  H21   S    
C184  H51   S    
C126  C152  A    
C65   C171  S    
C66   C172  S    
C171  H1    S    
C22   H74   S    
C6    C23   S    
C133  C138  A    
C12   C17   A    
O3    Zn4   S    
C81   O50   S    
O4    Zn3   S    
C74   H84   S    
O67   Zn3   S    
C97   O82   D    
C62   C66   S    
C58   C82   S    
H105  O61   S    
C29   C38   A    
C28   C32   A    
H11   O87   S    
C33   C36   A    
C64   C167  S    
O35   Zn10  S    
C73   C161  S    
O11   Zn7   S    
C71   C159  S    
C114  C118  S    
C185  C187  A    
C112  C140  S    
C135  C139  A    
C161  O30   A    
C26   C37   A    
C175  O6    A    
C5    C6    T    
C106  C110  A    
C141  C146  A    
C78   O46   S    
O16   Zn5   S    
C13   C57   A    
C45   C60   A    
C99   C167  S    
C107  H27   S    
C91   O69   D    
C183  H50   S    
C160  O33   A    
O32   Zn8   S    
C44   C49   A    
C26   C30   A    
C8    C12   A    
H5    O74   S    
O24   Zn9   S    
C31   C34   A    
C70   C158  S    
C89   C173  S    
C46   C90   A    
O15   Zn1   S    
H101  O52   S    
C178  H14   S    
C57   H20   S    
C117  C121  T    
C85   O58   D    
C14   H59   S    
C145  H65   S    
C84   O57   S    
C108  H28   S    
C125  C133  A    
C132  O21   A    
C2    C46   A    
O78   Zn4   S    
C69   C174  S    
C1    O9    A    
C123  O13   A    
C156  H76   S    
C88   O65   S    
C144  H38   S    
C165  C187  S    
C19   C70   S    
C111  C178  A    
C122  C153  S    
C177  H45   S    
C128  C137  A    
Br4   C29   S    
C56   C76   S    
C27   C37   A    
C103  C107  A    
O43   Zn4   S    
C3    C181  A    
C72   C76   S    
C177  C182  A    
C92   O71   D    
C181  C185  A    
C80   O47   D    
C89   O66   D    
C30   H62   S    
C83   C125  S    
H97   O46   S    
O39   Zn11  S    
C87   O62   D    
C1    C138  S    
C1    O1    A    
C71   C145  S    
C159  O28   A    
C35   C178  A    
C105  H25   S    
C142  C147  A    
O21   Zn7   S    
C112  O11   A    
O22   Zn8   S    
C120  C151  S    
C51   C95   S    
C10   C25   A    
C112  O23   A    
C130  O15   A    
C163  O38   A    
C64   H92   S    
C50   C53   A    
C68   H22   S    
O30   Zn11  S    
C176  O8    A    
C17   C155  S    
H102  O54   S    
C179  C188  A    
C88   C172  S    
C70   C134  S    
C32   H64   S    
C179  H46   S    
C43   C59   A    
C108  C113  A    
C21   C173  S    
C49   C52   A    
C19   C171  S    
O5    Zn12  S    
C93   O74   S    
C95   O79   S    
C127  C153  A    
C183  C186  A    
C43   H67   S    
C74   H98   S    
C164  O40   A    
C2    C113  A    
C121  C152  S    
C140  C144  A    
C86   C128  S    
C76   H86   S    
C165  O42   A    
C161  O35   A    
C24   C68   A    
C126  C135  A    
H3    O70   S    
C11   C25   A    
C99   O86   D    
C82   O51   D    
C94   O75   D    
C163  O39   A    
C33   H66   S    
O6    Zn2   S    
C55   C75   S    
C125  C151  A    
C45   H69   S    
O2    Zn12  S    
C148  H41   S    
C89   O68   S    
C56   C67   S    
O25   Zn10  S    
C29   C33   A    
C146  H39   S    
C104  C108  A    
C35   H18   S    
C83   O53   D    
C179  C183  A    
C168  O56   A    
C91   C174  S    
C69   C132  S    
C73   C77   S    
C86   O60   D    
C102  C170  S    
C110  H30   S    
C104  H24   S    
C96   C134  S    
C61   C134  S    
H108  O68   S    
C9    H55   S    
C16   C18   A    
C98   O84   D    
C155  O24   A    
C27   C31   A    
C40   C41   T    
H9    O83   S    
C81   O49   D    
C88   O64   D    
C136  C140  A    
C164  O41   A    
C182  H49   S    
C56   C81   S    
C54   C65   S    
C100  C169  S    
C53   C163  S    
C62   H94   S    
C133  H31   S    
O1    Zn1   S    
C20   H77   S    
C95   O77   D    
C35   C79   A    
H104  O59   S    
C76   H12   S    
C157  O26   A    
C61   C65   S    
Br1   C26   S    
C177  C188  A    
C63   C67   S    
C58   H83   S    
C149  C153  A    
Br3   C28   S    
C4    C188  S    
C128  C154  A    
C54   C74   S    
C55   C66   S    
C87   O63   S    
C131  O16   A    
O88   Zn2   S    
C70   C74   S    
C52   C162  S    
C28   C38   A    
C61   H89   S    
C175  O5    A    
C77   H88   S    
C84   C126  S    
O38   Zn10  S    
C124  C154  S    
C139  C143  A    
C90   C104  A    
O26   Zn11  S    
C142  H36   S    
C3    C180  A    
C109  C114  A    
C129  O18   A    
C67   C131  S    
C174  H43   S    
O40   Zn12  S    
C45   C50   A    
C79   C166  S    
O13   Zn7   S    
C113  C117  S    
C63   H95   S    
O31   Zn9   S    
C64   H96   S    
C86   O61   S    
C155  O22   A    
C94   O76   S    
C63   C156  S    
C19   H71   S    
C180  H47   S    
C21   H78   S    
C105  C109  A    
O41   Zn2   S    
O7    Zn3   S    
C106  H26   S    
C97   O83   S    
O56   Zn2   S    
C10   H56   S    
C22   C174  S    
C93   O73   D    
O28   Zn9   S    
C84   O55   D    
C32   C36   A    
C15   C18   A    
C12   H58   S    
C92   O72   S    
C80   O48   S    
C49   C93   S    
C64   C69   S    
C162  O36   A    
C99   O87   S    
C41   C59   S    
C180  C184  A    
C42   C60   S    
Br2   C27   S    
C118  C122  T    
O33   Zn11  S    
C101  O10   A    
C147  H40   S    
C132  O17   A    
C75   H85   S    
C20   H72   S    
C185  H52   S    
C87   C171  S    
C58   C69   S    
O18   Zn6   S    
C2    H15   S    
C168  O2    A    
C46   H19   S    
C169  O3    A    
O8    Zn4   S    
C170  O4    A    
C72   C160  S    
C71   C75   S    
C91   O70   S    
O34   Zn5   S    
C167  H87   S    
C77   H13   S    
C102  C106  A    
C3    C5    S    
C72   C156  S    
C65   C129  S    
C30   C34   A    
C9    C23   A    
C110  C115  A    
C24   C115  A    
C101  C139  S    
C21   H73   S    
O45   Zn12  S    
C56   H82   S    
C67   C173  S    
C143  C148  A    
C85   O59   S    
C119  C124  T    
C4    C7    T    
C55   H81   S    
C97   C145  S    
C123  O34   A    
C79   C103  A    
C48   C92   S    
C162  O37   A    
O23   Zn5   S    
C39   C42   T    
C22   H79   S    
C116  C120  T    
O42   Zn3   S    
C7    C25   S    
C111  C116  S    
C146  C150  A    
C150  H44   S    
C100  C105  A    
C50   C94   S    
C107  C111  A    
H107  O65   S    
C96   O80   D    
C48   C52   A    
O20   Zn7   S    
