data_mof_unit_66937.cif
_audit_creation_date              2013-03-05T15:57:29-0500
_audit_creation_method            fapswitch 2.2
_symmetry_space_group_name_H-M    P1
_symmetry_Int_Tables_number       1
_space_group_crystal_system       triclinic
_cell_length_a                    17.562102
_cell_length_b                    18.83833
_cell_length_c                    8.579684
_cell_angle_alpha                 90.418724
_cell_angle_beta                  102.56284
_cell_angle_gamma                 90.138875
_cell_volume                      2770.4515565

loop_
_atom_site_label
_atom_site_type_symbol
_atom_site_description
_atom_site_fract_x
_atom_site_fract_y
_atom_site_fract_z
_atom_type_partial_charge
P1    P     P_3+3 0.834140 0.419320 0.003900 1.014000
P2    P     P_3+3 0.834140 0.580680 0.503900 1.013815
P3    P     P_3+3 0.334140 0.919320 0.003900 1.002444
P4    P     P_3+3 0.334140 0.080680 0.503900 1.004980
O1    O     O_2   0.841960 0.394640 0.833410 -0.433770
O2    O     O_2   0.841960 0.605360 0.333410 -0.443490
O3    O     O_2   0.341960 0.894640 0.833410 -0.431240
O4    O     O_2   0.341960 0.105360 0.333410 -0.446775
O5    O     O_3   0.907950 0.463080 0.102990 -0.515967
O6    O     O_3   0.907950 0.536920 0.602990 -0.521134
O7    O     O_3   0.407950 0.963080 0.102990 -0.514658
O8    O     O_3   0.407950 0.036920 0.602990 -0.509693
O9    O     O_3   0.972780 0.329600 0.629720 -0.479159
O10   O     O_3   0.972780 0.670400 0.129720 -0.483922
O11   O     O_3   0.472780 0.829600 0.629720 -0.520003
O12   O     O_3   0.472780 0.170400 0.129720 -0.456056
O13   O     O_2   0.841904 0.266960 0.667959 -0.484091
O14   O     O_2   0.834739 0.710770 0.181246 -0.455338
O15   O     O_2   0.336058 0.777663 0.676172 -0.468920
O16   O     O_2   0.334775 0.210557 0.182941 -0.458815
O17   O     O_3   0.751204 0.469546 0.959161 -0.661000
O18   O     O_3   0.753306 0.526660 0.453971 -0.608755
O19   O     O_3   0.251199 0.969358 0.959144 -0.670285
O20   O     O_3   0.253503 0.026709 0.456859 -0.634315
O21   O     O_3   0.944957 0.180225 0.589259 -0.609979
O22   O     O_3   0.924891 0.812329 0.161846 -0.588544
O23   O     O_3   0.429103 0.683602 0.597385 -0.628747
O24   O     O_3   0.425427 0.311138 0.162582 -0.604823
C1    C     C_3   0.063506 0.122651 0.557598 -0.335879
C2    C     C_3   0.979718 0.919282 0.096699 -0.236241
C3    C     C_3   0.568859 0.701638 0.642439 -0.292542
C4    C     C_3   0.490879 0.415977 0.119072 -0.286991
H1    H     H_    0.612355 0.730866 0.731417 0.139291
H2    H     H_    0.538812 0.437014 0.067840 0.119081
H3    H     H_    0.127514 0.129685 0.577892 0.095002
H4    H     H_    0.029161 0.941866 0.052434 0.104894
H5    H     H_    0.047708 0.073594 0.613363 0.145139
H6    H     H_    0.984068 0.935758 0.221988 0.108225
H7    H     H_    0.596089 0.654174 0.602989 0.143946
H8    H     H_    0.504958 0.423162 0.249303 0.057099
P5    P     P_3+3 0.165830 0.418670 0.685610 1.046603
P6    P     P_3+3 0.165830 0.581330 0.185610 1.043499
P7    P     P_3+3 0.665830 0.918670 0.685610 1.032593
P8    P     P_3+3 0.665830 0.081330 0.185610 1.036055
P9    P     P_3+3 0.103428 0.269076 0.121884 1.104650
P10   P     P_3+3 0.102226 0.734030 0.612804 1.094731
P11   P     P_3+3 0.598584 0.764652 0.122265 1.046979
P12   P     P_3+3 0.602873 0.233421 0.613996 1.054547
O25   O     O_2   0.157990 0.394030 0.856030 -0.454513
O26   O     O_2   0.157990 0.605970 0.356030 -0.457898
O27   O     O_2   0.657990 0.894030 0.856030 -0.466757
O28   O     O_2   0.657990 0.105970 0.356030 -0.459654
O29   O     O_3   0.027110 0.329490 0.059550 -0.392575
O30   O     O_3   0.027110 0.670510 0.559550 -0.446615
O31   O     O_3   0.527110 0.829490 0.059550 -0.431841
O32   O     O_3   0.527110 0.170510 0.559550 -0.450593
O33   O     O_2   0.159239 0.276714 0.006620 -0.419467
O34   O     O_2   0.161008 0.718784 0.507075 -0.442202
O35   O     O_2   0.654698 0.770606 0.007230 -0.481694
O36   O     O_2   0.660327 0.219580 0.504645 -0.457555
O37   O     O_3   0.249455 0.473669 0.728483 -0.634116
O38   O     O_3   0.249668 0.527666 0.223390 -0.635459
O39   O     O_3   0.749218 0.973281 0.727963 -0.640278
O40   O     O_3   0.748301 0.026160 0.224756 -0.632018
O41   O     O_3   0.065612 0.182542 0.087583 -0.607445
O42   O     O_3   0.062997 0.817510 0.543617 -0.544369
O43   O     O_3   0.553428 0.680755 0.082039 -0.569060
O44   O     O_3   0.564014 0.318023 0.552453 -0.604809
C5    C     C_3   0.988176 0.174817 0.110000 0.542487
C6    C     C_3   0.013587 0.843332 0.641589 0.544565
C7    C     C_3   0.484272 0.672377 0.143021 0.633868
C8    C     C_3   0.513966 0.341349 0.651405 0.560982
C9    C     C_3   0.973372 0.095269 0.136609 -0.344985
C10   C     C_3   0.976425 0.914988 0.581436 -0.189459
C11   C     C_3   0.475254 0.593409 0.180394 -0.135042
C12   C     C_3   0.481342 0.416522 0.607975 -0.227284
H9    H     H_    0.413955 0.581089 0.186388 -0.037481
H10   H     H_    0.454026 0.419645 0.479232 0.055491
H11   H     H_    0.957505 0.066696 0.021006 0.054591
H12   H     H_    0.937727 0.909066 0.461996 0.092682
H13   H     H_    0.027259 0.069116 0.201169 0.147708
H14   H     H_    0.020820 0.954204 0.571310 0.140276
H15   H     H_    0.490052 0.560464 0.084053 0.100216
H16   H     H_    0.528776 0.456352 0.637071 0.098720
C13   C     C_3   0.239005 0.456311 0.264861 0.948547
C14   C     C_3   0.238663 0.544929 0.773212 0.957035
C15   C     C_3   0.736411 0.954598 0.263693 0.961181
C16   C     C_3   0.738141 0.045051 0.767907 0.944358
C17   C     C_3   0.295096 0.410508 0.196231 -0.142586
C18   C     C_3   0.285697 0.593875 0.687996 -0.173810
C19   C     C_3   0.788148 0.908407 0.184528 -0.144526
C20   C     C_3   0.784652 0.091590 0.677854 -0.174568
H17   H     H_    0.355802 0.426549 0.249917 0.035891
H18   H     H_    0.348989 0.586595 0.732951 0.131315
H19   H     H_    0.849798 0.921781 0.233855 0.074045
H20   H     H_    0.847225 0.080713 0.716804 0.109311
H21   H     H_    0.287165 0.353714 0.222878 0.123226
H22   H     H_    0.272150 0.650146 0.708652 0.087463
H23   H     H_    0.778339 0.851334 0.205352 0.108896
H24   H     H_    0.774171 0.148430 0.699223 0.084043
H25   H     H_    0.285065 0.417501 0.065505 0.074985
H26   H     H_    0.272618 0.582834 0.558722 0.095496
H27   H     H_    0.776663 0.918840 0.055228 0.076338
H28   H     H_    0.769532 0.079594 0.549341 0.114814
Ba1   Ba    Ba6+2 0.000000 0.447380 0.844850 1.757983
Ba2   Ba    Ba6+2 0.000000 0.552620 0.344850 1.770347
Ba3   Ba    Ba6+2 0.500000 0.947380 0.844850 1.727115
Ba4   Ba    Ba6+2 0.500000 0.052620 0.344850 1.759139
C21   C     C_3   0.768239 0.537215 0.914033 0.298526
C22   C     C_3   0.773498 0.458749 0.411843 0.319595
C23   C     C_3   0.269639 0.038908 0.932659 0.293338
C24   C     C_3   0.271855 0.960146 0.402780 0.289093
H29   H     H_    0.793957 0.534901 0.806871 -0.002086
H30   H     H_    0.799565 0.461061 0.305513 -0.030837
H31   H     H_    0.298334 0.041562 0.829688 -0.011643
H32   H     H_    0.300550 0.965798 0.300692 -0.015868
H33   H     H_    0.808687 0.564763 0.014238 0.036676
H34   H     H_    0.814599 0.433427 0.513123 0.023116
H35   H     H_    0.306937 0.063327 0.041157 0.053466
H36   H     H_    0.310731 0.931316 0.501691 0.026292
C25   C     C_3   0.690591 0.575944 0.873490 0.156306
C26   C     C_3   0.697283 0.416684 0.372317 0.163467
C27   C     C_3   0.191968 0.076016 0.891148 0.175103
C28   C     C_3   0.194207 0.919945 0.348201 0.204959
H37   H     H_    0.660164 0.560518 0.750557 0.068573
H38   H     H_    0.664017 0.433072 0.252931 0.077703
H39   H     H_    0.162394 0.054272 0.774314 0.071513
H40   H     H_    0.169275 0.931989 0.220924 0.065532
O45   O     O_3   0.092100 0.536880 0.086720 -0.482117
O46   O     O_3   0.092100 0.463120 0.586720 -0.470555
O47   O     O_3   0.592100 0.036880 0.086720 -0.479000
O48   O     O_3   0.592100 0.963120 0.586720 -0.466348
P13   P     P_3+3 0.893807 0.729645 0.079858 0.983592
P14   P     P_3+3 0.901727 0.264382 0.560325 0.982897
P15   P     P_3+3 0.393406 0.228987 0.080549 0.999976
P16   P     P_3+3 0.394250 0.770193 0.565806 0.952459
C29   C     C_3   0.027018 0.187254 0.620196 0.744194
C30   C     C_3   0.980846 0.839331 0.084728 0.756339
C31   C     C_3   0.499008 0.683670 0.713281 0.696949
C32   C     C_3   0.478561 0.338149 0.078637 0.711085
H41   H     H_    0.047782 0.234393 0.565888 -0.028158
H42   H     H_    0.966498 0.826239 0.955737 -0.106946
H43   H     H_    0.498066 0.723084 0.808088 0.123871
H44   H     H_    0.453770 0.334561 0.948830 -0.015551
H45   H     H_    0.551797 0.737534 0.541929 0.101956
H46   H     H_    0.436334 0.445228 0.071203 0.085590
H47   H     H_    0.043097 0.116325 0.430356 0.106929
H48   H     H_    0.923974 0.939612 0.024740 0.045180
C33   C     C_R   0.135120 0.680613 0.928871 -0.218062
C34   C     C_R   0.139571 0.322174 0.433214 -0.222753
C35   C     C_R   0.635895 0.180313 0.930045 -0.111374
C36   C     C_R   0.639311 0.821750 0.431170 -0.205195
C37   C     C_R   0.859040 0.325981 0.261146 -0.144939
C38   C     C_R   0.851514 0.670979 0.771937 -0.187804
C39   C     C_R   0.354310 0.828769 0.263919 -0.252184
C40   C     C_R   0.350968 0.170531 0.772971 -0.194994
C41   C     C_R   0.790546 0.216761 0.295843 -0.042330
C42   C     C_R   0.788848 0.783515 0.804040 -0.072380
C43   C     C_R   0.288511 0.717884 0.296265 -0.027536
C44   C     C_R   0.288123 0.282894 0.806205 -0.079047
C45   C     C_R   0.846856 0.269014 0.354437 0.071200
C46   C     C_R   0.840920 0.729055 0.867380 -0.017408
C47   C     C_R   0.341600 0.772336 0.357830 0.076533
C48   C     C_R   0.340487 0.228563 0.868573 -0.031601
C49   C     C_R   0.814254 0.334489 0.107398 0.128130
C50   C     C_R   0.811775 0.664617 0.612289 0.094743
C51   C     C_R   0.312638 0.835322 0.107457 0.125661
C52   C     C_R   0.311954 0.164754 0.612783 0.086184
C53   C     C_R   0.756248 0.280433 0.044336 0.009406
C54   C     C_R   0.754993 0.718847 0.548828 0.013493
C55   C     C_R   0.254505 0.781507 0.044174 0.002342
C56   C     C_R   0.255678 0.219488 0.549617 0.011267
C57   C     C_R   0.241991 0.721638 0.141149 -0.032938
C58   C     C_R   0.243063 0.279169 0.648609 0.012448
C59   C     C_R   0.743285 0.220997 0.141667 -0.031252
C60   C     C_R   0.743618 0.779512 0.646366 -0.013931
C61   C     C_R   0.182050 0.669034 0.081234 0.073428
C62   C     C_R   0.184291 0.331884 0.586439 0.085315
C63   C     C_R   0.682753 0.168823 0.082185 0.076114
C64   C     C_R   0.684905 0.832290 0.583995 0.057866
C65   C     C_R   0.153593 0.732781 0.827027 0.023900
C66   C     C_R   0.158414 0.271203 0.331024 -0.017782
C67   C     C_R   0.655843 0.230991 0.826936 0.052207
C68   C     C_R   0.654994 0.768028 0.331211 0.047851
C69   C     C_R   0.211220 0.783695 0.885920 -0.067695
C70   C     C_R   0.213367 0.218347 0.389878 -0.114405
C71   C     C_R   0.714153 0.281397 0.885158 -0.082979
C72   C     C_R   0.710783 0.715888 0.390417 -0.048748
H49   H     H_    0.282452 0.674117 0.372844 0.085149
H50   H     H_    0.282059 0.326932 0.883032 0.065179
H51   H     H_    0.783713 0.173457 0.373109 0.084241
H52   H     H_    0.782949 0.827774 0.880312 0.062925
H53   H     H_    0.725342 0.321525 0.804538 0.143663
H54   H     H_    0.718117 0.672704 0.312152 0.161473
H55   H     H_    0.220756 0.825345 0.806658 0.129610
H56   H     H_    0.221404 0.176037 0.310363 0.160492
H57   H     H_    0.085601 0.646277 0.885248 0.046254
H58   H     H_    0.090252 0.356297 0.390454 0.034825
H59   H     H_    0.585828 0.146513 0.887042 0.026964
H60   H     H_    0.589971 0.855855 0.388802 0.035860
H61   H     H_    0.902837 0.365212 0.311385 0.002401
H62   H     H_    0.892586 0.630302 0.823396 0.005708
H63   H     H_    0.396915 0.868804 0.315386 0.016683
H64   H     H_    0.392327 0.130021 0.824093 0.014497
O49   O     O_3   0.055441 0.193050 0.782917 -0.657218
H65   H     H_    0.042545 0.146973 0.825620 0.292935
O50   O     O_3   0.054938 0.815102 0.160550 -0.660686
H66   H     H_    0.066441 0.773551 0.098519 0.291028
O51   O     O_3   0.508289 0.617028 0.783760 -0.746545
H67   H     H_    0.507391 0.582030 0.696521 0.311937
O52   O     O_3   0.550041 0.301970 0.118225 -0.702078
H68   H     H_    0.564886 0.299561 0.236431 0.350758
O53   O     O_3   0.702611 0.648991 0.879074 -0.773645
H69   H     H_    0.725683 0.661741 0.991431 0.339653
O54   O     O_3   0.709598 0.343822 0.367804 -0.771528
H70   H     H_    0.735124 0.329531 0.477622 0.322055
O55   O     O_3   0.201543 0.148986 0.879476 -0.738992
H71   H     H_    0.224492 0.166186 0.988669 0.338794
O56   O     O_3   0.203421 0.846561 0.362414 -0.724076
H72   H     H_    0.224116 0.836287 0.476975 0.323485
C73   C     C_2   0.639942 0.554888 0.986097 0.625023
H73   H     H_    0.586990 0.525053 0.941879 0.024644
O57   O     O_2   0.661667 0.566250 0.128676 -0.570619
C74   C     C_2   0.650025 0.433468 0.492800 0.640368
H74   H     H_    0.592408 0.453286 0.452628 -0.047400
O58   O     O_2   0.677484 0.427295 0.635262 -0.642531
C75   C     C_2   0.142056 0.058819 0.007660 0.530298
H75   H     H_    0.083820 0.038429 0.963516 0.007155
O59   O     O_2   0.166564 0.067758 0.150650 -0.625898
C76   C     C_2   0.138333 0.944399 0.445551 0.662269
H76   H     H_    0.087874 0.974783 0.389830 -0.068421
O60   O     O_2   0.155676 0.938275 0.590513 -0.643889
C77   C     C_2   0.524393 0.572521 0.338097 0.568768
H77   H     H_    0.497021 0.548538 0.426445 -0.070163
O61   O     O_2   0.594621 0.582403 0.368568 -0.564560
C78   C     C_2   0.422241 0.436143 0.703550 0.393764
H78   H     H_    0.369003 0.405503 0.691347 0.047255
O62   O     O_2   0.434320 0.485457 0.798027 -0.619801
C79   C     C_2   0.908951 0.084115 0.223176 0.492102
H79   H     H_    0.853575 0.109242 0.179111 0.048897
O63   O     O_2   0.918390 0.047501 0.342409 -0.605896
C80   C     C_2   0.931905 0.945473 0.695995 0.437003
H80   H     H_    0.881423 0.917840 0.719415 0.022224
O64   O     O_2   0.953654 0.000782 0.766102 -0.635890
C81   C     C_2   0.931739 0.197115 0.963124 0.613829
H81   H     H_    0.916775 0.162193 0.861510 -0.044517
O65   O     O_2   0.903445 0.255817 0.955431 -0.548704
C82   C     C_2   0.948699 0.791595 0.635721 0.560468
H82   H     H_    0.954002 0.754956 0.732565 -0.164612
O66   O     O_2   0.897404 0.784719 0.515213 -0.602457
C83   C     C_2   0.413266 0.692424 0.018513 0.422102
H83   H     H_    0.366094 0.655310 0.977636 -0.014940
O67   O     O_2   0.406722 0.751920 0.964643 -0.579520
C84   C     C_2   0.447156 0.290778 0.629786 0.542994
H84   H     H_    0.449810 0.250950 0.718924 -0.120867
O68   O     O_2   0.397118 0.289341 0.506258 -0.602025
O69   O     O_3   0.974206 0.215510 0.238244 -0.796374
H85   H     H_    0.022576 0.216923 0.319642 0.245571
O70   O     O_3   0.056049 0.852071 0.799622 -0.834581
H86   H     H_    0.095061 0.890328 0.801353 0.335907
O71   O     O_3   0.486501 0.710591 0.285010 -0.810175
H87   H     H_    0.478518 0.761476 0.260890 0.259460
O72   O     O_3   0.554263 0.342931 0.811652 -0.799639
H88   H     H_    0.596222 0.379168 0.823215 0.326713
O73   O     O_3   0.258106 0.449861 0.430613 -0.791128
H89   H     H_    0.308404 0.475115 0.468047 0.270370
O74   O     O_3   0.267473 0.552997 0.937571 -0.793656
H90   H     H_    0.319688 0.530438 0.963931 0.290919
O75   O     O_3   0.759693 0.945827 0.428720 -0.792995
H91   H     H_    0.810546 0.970373 0.463326 0.297072
O76   O     O_3   0.767785 0.055484 0.931168 -0.815232
H92   H     H_    0.818227 0.029993 0.958194 0.269425
O77   O     O_3   0.163715 0.430044 0.203784 -0.713050
H93   H     H_    0.130806 0.446243 0.277371 0.295274
O78   O     O_3   0.160909 0.567020 0.732649 -0.721415
H94   H     H_    0.134375 0.546326 0.812720 0.298690
O79   O     O_3   0.659670 0.930594 0.210073 -0.711447
H95   H     H_    0.629541 0.949156 0.286710 0.297548
O80   O     O_3   0.660425 0.067278 0.727671 -0.719203
H96   H     H_    0.634251 0.047404 0.809208 0.296879

loop_
_geom_bond_atom_site_label_1
_geom_bond_atom_site_label_2
_geom_bond_distance
_ccdc_geom_bond_type
C7    O71   1.403606 S    
Ba2   O45   3.026541 S    
C7    C11   1.539117 S    
P1    O17   1.712552 S    
C2    C30   1.509353 S    
C15   C19   1.519114 S    
O39   C16   1.416601 S    
O24   P15   1.736177 S    
O9    P14   1.754919 S    
C43   H49   1.077343 S    
P3    O19   1.710671 S    
C79   H79   1.075969 S    
O20   C24   1.396425 S    
P5    O37   1.765703 S    
C8    C12   1.546393 S    
C11   H15   1.105748 S    
P13   C46   1.857202 S    
C22   H34   1.112883 S    
C76   O60   1.220826 D    
C21   H33   1.113128 S    
C83   H83   1.079524 S    
C34   C66   1.384068 A    
C29   O49   1.380044 S    
O49   H65   0.989332 S    
P8    O40   1.758275 S    
P8    O47   1.613732 S    
O79   H95   0.991694 S    
P4    Ba4   3.514587 S    
C25   O53   1.390557 S    
P9    O33   1.543503 D    
C84   H84   1.069134 S    
P5    Ba1   3.516883 S    
C69   H55   1.078356 S    
P1    O1    1.566021 D    
O23   P16   1.745893 S    
C44   C48   1.406452 A    
P10   C65   1.863310 S    
C70   H56   1.074771 S    
P7    O48   1.623395 S    
C18   H22   1.108404 S    
C33   H57   1.080253 S    
C12   H10   1.106455 S    
C4    C32   1.508348 S    
C5    O69   1.401609 S    
P3    O3    1.566021 D    
C13   O77   1.399797 S    
C15   O79   1.398858 S    
O71   H87   0.986047 S    
P4    O20   1.714783 S    
C83   O67   1.211658 D    
C4    H46   1.106640 S    
C40   C52   1.399282 A    
P6    C61   1.934729 S    
O76   H92   0.991702 S    
C20   H20   1.097094 S    
C26   O54   1.391623 S    
C36   H60   1.079285 S    
O14   P13   1.534436 D    
C23   H35   1.110968 S    
O69   H85   0.975502 S    
C66   C70   1.406353 A    
O11   Ba3   2.847711 S    
C6    C10   1.543496 S    
O32   Ba4   2.847032 S    
Ba4   O47   3.026541 S    
C84   O68   1.220874 D    
C31   H43   1.100137 S    
P5    O25   1.571460 D    
C18   H26   1.100802 S    
C16   C20   1.521107 S    
C56   C70   1.409745 A    
O18   C22   1.394367 S    
O24   C32   1.394217 S    
P2    O18   1.719442 S    
C80   O64   1.217495 D    
O80   H96   0.991827 S    
C3    H1    1.098914 S    
P12   O36   1.541364 D    
O77   H93   0.991213 S    
C57   C61   1.451386 A    
C36   C68   1.388164 A    
O73   H89   0.991013 S    
C22   H30   1.107193 S    
O40   C15   1.417090 S    
O43   C7    1.431934 S    
P4    O4    1.572159 D    
P6    O38   1.760489 S    
C28   H40   1.109851 S    
C17   H25   1.105737 S    
C26   H38   1.109491 S    
P8    O28   1.565333 D    
O78   H94   0.991646 S    
C27   O55   1.391459 S    
C28   O56   1.395402 S    
P9    O29   1.755618 S    
O26   Ba2   2.930387 S    
C24   C28   1.537666 S    
C10   H12   1.104286 S    
C58   C62   1.452322 A    
C71   H53   1.074509 S    
C6    C82   1.489971 S    
C33   C65   1.403170 A    
O13   P14   1.542908 D    
C12   H16   1.105920 S    
P2    O2    1.572159 D    
C14   O74   1.397756 S    
C10   H14   1.090323 S    
C39   H63   1.082736 S    
O4    Ba4   2.931981 S    
P8    C63   1.930303 S    
C7    C83   1.505814 S    
C38   H62   1.082353 S    
C82   O66   1.220485 D    
P9    C66   1.843590 S    
C18   H18   1.103674 S    
C37   H61   1.082563 S    
P8    Ba4   3.517783 S    
C49   C53   1.454168 A    
O38   C13   1.415396 S    
P7    C64   1.905047 S    
P11   O35   1.543391 D    
O30   Ba2   2.847032 S    
P7    O39   1.758081 S    
O50   H66   0.989045 S    
C35   H59   1.080475 S    
P5    C62   1.898481 S    
O72   H88   0.991782 S    
P1    O5    1.608667 S    
C53   C71   1.404710 A    
O9    Ba1   2.847711 S    
C78   H78   1.082686 S    
C30   H42   1.106125 S    
C8    C84   1.488611 S    
O56   H72   0.991644 S    
C24   H36   1.112538 S    
C65   C69   1.401874 A    
Ba3   O48   3.028942 S    
O1    Ba1   2.926931 S    
O11   P16   1.763451 S    
C74   H74   1.064930 S    
P3    Ba3   3.515463 S    
O15   P16   1.542916 D    
O53   H69   0.988615 S    
C23   C27   1.507682 S    
P2    Ba2   3.514587 S    
O23   C31   1.401725 S    
P4    C52   1.916419 S    
C17   H21   1.110440 S    
C59   C63   1.451965 A    
C79   O63   1.219342 D    
C4    H2    1.104892 S    
C36   C64   1.392296 A    
O21   C29   1.413186 S    
O54   H70   0.990829 S    
C41   H51   1.077668 S    
O52   H68   0.992109 S    
C25   H37   1.109976 S    
C73   H73   1.079570 S    
C55   C69   1.405371 A    
C13   O73   1.394580 S    
Ba2   O46   2.892995 S    
O8    Ba3   2.893034 S    
C77   O61   1.217407 D    
C5    C9    1.547344 S    
C16   O76   1.396406 S    
O17   C21   1.385710 S    
C75   H75   1.079105 S    
P15   C48   1.853608 S    
P1    C49   1.901920 S    
C42   H52   1.075203 S    
O44   C8    1.416837 S    
P10   O30   1.761556 S    
C33   C61   1.404302 A    
O51   H67   0.991343 S    
C53   C59   1.448438 A    
C12   C78   1.501342 S    
P7    Ba3   3.516883 S    
P12   O44   1.773532 S    
C2    H48   1.108427 S    
O21   P14   1.755289 S    
C11   H9    1.112873 S    
C40   C48   1.398344 A    
C9    H13   1.106061 S    
C42   C60   1.413312 A    
C6    O70   1.406377 S    
C75   O59   1.218850 D    
P6    Ba2   3.517783 S    
C41   C59   1.403309 A    
C50   C54   1.453068 A    
O12   Ba4   2.870445 S    
C29   H41   1.103200 S    
C81   O65   1.209798 D    
C42   C46   1.407363 A    
C14   C18   1.528376 S    
C35   C63   1.402004 A    
C1    H5    1.105853 S    
C10   C80   1.495133 S    
O3    Ba3   2.926931 S    
P4    O8    1.618227 S    
Ba3   Ba4   4.738938 S    
C54   C72   1.411649 A    
O70   H86   0.990995 S    
P2    O6    1.618227 S    
C41   C45   1.404074 A    
C27   H39   1.099474 S    
C24   H32   1.107061 S    
C1    C29   1.524515 S    
C82   H82   1.072610 S    
C20   H24   1.107601 S    
P11   O31   1.755064 S    
C77   H77   1.082694 S    
C52   C56   1.453876 A    
C5    C81   1.487696 S    
P12   O32   1.762681 S    
P2    C50   1.913061 S    
C68   C72   1.406497 A    
C8    O72   1.402865 S    
C13   C17   1.520060 S    
P6    O26   1.565333 D    
C37   C49   1.391667 A    
P3    C51   1.897250 S    
C44   C58   1.411483 A    
C35   C67   1.400814 A    
C38   C46   1.398684 A    
O25   Ba1   2.935478 S    
C32   H44   1.105567 S    
C81   H81   1.073792 S    
P11   C68   1.850584 S    
O22   C30   1.395546 S    
C74   O58   1.219006 D    
C1    H47   1.078029 S    
P12   C67   1.862083 S    
Ba1   O45   2.870662 S    
C30   O50   1.401304 S    
P10   O42   1.772326 S    
C9    C79   1.497488 S    
Ba1   O46   3.028942 S    
O10   P13   1.763120 S    
C21   H29   1.109679 S    
C55   C57   1.450726 A    
C9    H11   1.105606 S    
O19   C23   1.381096 S    
Ba1   Ba2   4.738938 S    
C1    H3    1.106939 S    
C31   O51   1.391945 S    
P14   C45   1.821743 S    
C51   C55   1.452805 A    
P5    O46   1.623395 S    
C73   O57   1.216778 D    
O74   H90   0.992831 S    
C39   C47   1.385226 A    
C14   O78   1.398967 S    
C26   C74   1.492323 S    
Ba3   O47   2.870662 S    
O5    Ba2   2.870695 S    
C44   H50   1.075655 S    
C2    H4    1.106004 S    
O22   P13   1.741217 S    
C34   C62   1.387499 A    
C22   C26   1.525796 S    
P9    O41   1.757219 S    
C21   C25   1.521539 S    
O42   C6    1.417577 S    
C39   C51   1.388648 A    
P7    O27   1.571460 D    
O41   C5    1.421558 S    
C80   H80   1.083586 S    
O55   H71   0.987811 S    
C56   C58   1.450359 A    
C78   O62   1.215849 D    
C11   C77   1.493909 S    
P6    O45   1.613732 S    
C43   C47   1.404898 A    
C4    H8    1.097887 S    
O16   P15   1.532562 D    
C17   H17   1.105849 S    
C76   H76   1.078729 S    
C16   O80   1.399023 S    
C28   C76   1.491903 S    
Ba4   O48   2.892995 S    
P3    O7    1.608667 S    
O37   C14   1.417972 S    
C20   H28   1.098188 S    
C72   H54   1.076764 S    
C3    H45   1.089859 S    
O29   Ba1   2.869744 S    
C60   C64   1.452877 A    
C54   C60   1.451251 A    
C27   C75   1.502365 S    
O28   Ba4   2.930387 S    
C19   H19   1.101195 S    
O27   Ba3   2.935478 S    
C43   C57   1.404377 A    
O10   Ba2   2.870445 S    
C37   C45   1.387119 A    
O7    Ba4   2.870695 S    
C3    H7    1.100367 S    
C25   C73   1.503236 S    
C38   C50   1.399618 A    
O6    Ba1   2.893034 S    
C23   H31   1.109577 S    
C15   O75   1.396820 S    
O31   Ba3   2.869744 S    
C2    H6    1.103163 S    
C19   H23   1.110343 S    
O75   H91   0.990053 S    
O12   P15   1.760028 S    
C3    C31   1.521254 S    
C19   H27   1.102729 S    
C34   H58   1.079792 S    
P11   O43   1.764327 S    
P10   O34   1.541456 D    
C67   C71   1.402029 A    
C32   O52   1.406339 S    
P1    Ba1   3.515463 S    
O2    Ba2   2.931981 S    
P16   C47   1.823200 S    
C40   H64   1.082283 S    
