data_mof_unit_61022.cif
_audit_creation_date              2012-12-10T21:16:37-0500
_audit_creation_method            fapswitch 2.2
_symmetry_space_group_name_H-M    P1
_symmetry_Int_Tables_number       1
_space_group_crystal_system       triclinic
_cell_length_a                    17.499215
_cell_length_b                    16.71096
_cell_length_c                    10.714311
_cell_angle_alpha                 90.449674
_cell_angle_beta                  89.254368
_cell_angle_gamma                 90.108956
_cell_volume                      3132.80497439

loop_
_atom_site_label
_atom_site_type_symbol
_atom_type_description
_atom_site_fract_x
_atom_site_fract_y
_atom_site_fract_z
_atom_type_partial_charge
C1    C     C_R   0.352961 0.499961 0.501179 0.883699
C2    C     C_3   0.570483 0.445872 0.920991 -0.424352
C3    C     C_R   0.847883 0.572744 0.538652 -0.139577
C4    C     C_R   0.845666 0.428164 0.560722 -0.126286
C5    C     C_R   0.769801 0.572570 0.518439 -0.209009
C6    C     C_R   0.767578 0.427773 0.540577 -0.139666
C7    C     C_R   0.729302 0.500025 0.519236 -0.009221
C8    C     C_R   0.885269 0.500597 0.559737 0.156543
C9    C     C_1   0.965534 0.500130 0.567997 -0.039885
C10   C     C_1   0.033383 0.499737 0.567052 -0.042939
C11   C     C_R   0.152906 0.572146 0.554300 -0.151337
C12   C     C_R   0.151724 0.427059 0.537942 -0.140499
C13   C     C_R   0.231252 0.572493 0.533439 -0.206154
C14   C     C_R   0.230084 0.427172 0.517020 -0.124020
C15   C     C_R   0.270243 0.499945 0.514859 -0.025563
C16   C     C_R   0.506727 0.499616 0.257648 1.008854
C17   C     C_R   0.113714 0.499483 0.556766 0.153036
C18   C     C_R   0.444939 0.832650 0.568181 -0.242976
C19   C     C_R   0.453248 0.167195 0.418652 -0.267851
C20   C     C_R   0.445808 0.748346 0.566926 0.080670
C21   C     C_R   0.453941 0.251495 0.420337 0.070585
C22   C     C_R   0.554117 0.747720 0.432610 0.041757
C23   C     C_R   0.546083 0.252505 0.579839 0.064287
C24   C     C_R   0.555196 0.832023 0.431340 -0.242749
C25   C     C_R   0.546934 0.168220 0.581325 -0.245349
C26   C     C_R   0.500138 0.875570 0.499804 0.147981
C27   C     C_R   0.500147 0.124477 0.499913 0.143341
C28   C     C_1   0.500204 0.963427 0.499804 -0.021606
C29   C     C_1   0.500200 0.036623 0.499843 -0.016678
C30   C     C_R   0.646907 0.500019 0.504467 0.986311
C31   C     C_R   0.500722 0.500479 0.742866 0.965052
C32   C     C_3   0.520112 0.586502 0.073652 -0.484411
C33   C     C_3   0.430747 0.469810 0.077389 -0.482765
C34   C     C_3   0.517152 0.589096 0.930761 0.292470
C35   C     C_3   0.425636 0.471750 0.934635 0.284918
C36   C     C_3   0.578552 0.444979 0.065538 0.681560
C37   C     C_3   0.510404 0.498811 0.121272 -0.188799
C38   C     C_3   0.504311 0.501305 0.878799 -0.242716
H1    H     H_    0.573184 0.612952 0.110765 0.280062
H2    H     H_    0.416545 0.410448 0.115523 0.282374
H3    H     H_    0.261202 0.629280 0.532796 0.154038
H4    H     H_    0.259135 0.370547 0.503201 0.166191
H5    H     H_    0.401492 0.864006 0.622207 0.143978
H6    H     H_    0.416326 0.135694 0.354408 0.153404
H7    H     H_    0.403209 0.715734 0.620161 0.113860
H8    H     H_    0.417567 0.284002 0.357599 0.143321
H9    H     H_    0.596653 0.714608 0.379419 0.139058
H10   H     H_    0.582303 0.285797 0.642829 0.137959
H11   H     H_    0.598687 0.862890 0.377238 0.157119
H12   H     H_    0.583877 0.137521 0.645548 0.162911
H13   H     H_    0.473089 0.625057 0.111193 0.172142
H14   H     H_    0.385637 0.509941 0.117240 0.144451
H15   H     H_    0.465094 0.624017 0.907554 0.084176
H16   H     H_    0.382223 0.517826 0.911499 0.071454
H17   H     H_    0.624539 0.462866 0.873565 0.231799
H18   H     H_    0.560491 0.384854 0.884416 0.250808
H19   H     H_    0.879223 0.628726 0.536052 0.144104
H20   H     H_    0.875268 0.372163 0.575314 0.145915
H21   H     H_    0.741252 0.628941 0.502307 0.162728
H22   H     H_    0.737286 0.371193 0.542261 0.163567
H23   H     H_    0.122833 0.628315 0.567137 0.140951
H24   H     H_    0.120716 0.370849 0.538048 0.144880
N1    N     N_R   0.500030 0.707230 0.500030 -0.087222
N2    N     N_R   0.500030 0.292770 0.500030 -0.086486
O1    O     O_R   0.389130 0.566570 0.500000 -0.653305
O2    O     O_R   0.389130 0.433430 0.500000 -0.605559
O3    O     O_R   0.500000 0.566540 0.314800 -0.633987
O4    O     O_R   0.500000 0.433460 0.314800 -0.580141
O5    O     O_R   0.610900 0.566520 0.500010 -0.603800
O6    O     O_R   0.610900 0.433480 0.500010 -0.618842
O7    O     O_R   0.500030 0.566540 0.685210 -0.585046
O8    O     O_R   0.500030 0.433460 0.685210 -0.582194
Zn1   Zn    Zn3+2 0.500020 0.588860 0.500010 0.999226
Zn2   Zn    Zn3+2 0.500020 0.411140 0.500010 1.042367
S1    S     S_3+6 0.595044 0.648234 0.863052 0.061465
O9    O     O_2   0.561045 0.710045 0.779265 -0.297319
O10   O     O_2   0.639588 0.691535 0.961963 -0.261694
O11   O     O_3   0.655308 0.591404 0.777242 -0.551270
H25   H     H_    0.696562 0.628368 0.750499 0.385652
S2    S     S_3+6 0.384391 0.379576 0.874354 0.044247
O12   O     O_2   0.323045 0.351043 0.963008 -0.275265
O13   O     O_2   0.347981 0.396384 0.751222 -0.321816
O14   O     O_3   0.449145 0.306240 0.854965 -0.512021
H26   H     H_    0.422193 0.263454 0.808475 0.377487
S3    S     S_3+6 0.672964 0.484804 0.107624 0.049022
O15   O     O_2   0.729968 0.418187 0.119806 -0.209598
O16   O     O_2   0.703372 0.541327 0.010833 -0.257321
O17   O     O_3   0.668377 0.534546 0.243999 -0.628244
H27   H     H_    0.717189 0.564430 0.248984 0.380169
S4    S     S_3+6 0.578349 0.340145 0.115932 0.068082
O18   O     O_2   0.631048 0.293323 0.030848 -0.273652
O19   O     O_2   0.608206 0.333826 0.246478 -0.250494
O20   O     O_3   0.491833 0.296720 0.110808 -0.550767
H28   H     H_    0.500526 0.240331 0.134532 0.380422

loop_
_geom_bond_atom_site_label_1
_geom_bond_atom_site_label_2
_ccdc_geom_bond_type
O20   H28   S    
C27   C29   S    
C18   C26   A    
C4    C8    A    
C2    C36   S    
C13   H3    S    
S3    O15   D    
C33   H14   S    
C28   C29   T    
C19   C21   A    
C24   C26   A    
C2    H17   S    
C10   C17   S    
O4    Zn2   S    
O2    Zn2   S    
C35   S2    S    
O1    Zn1   S    
C32   H1    S    
C25   H12   S    
C21   N2    A    
C22   N1    A    
C11   C17   A    
C8    C9    S    
C12   C17   A    
O6    Zn2   S    
C1    O1    A    
O5    Zn1   S    
C1    C15   S    
C19   C27   A    
C9    C10   T    
C20   H7    S    
C34   S1    S    
C14   H4    S    
C31   O7    A    
C22   H9    S    
C7    C30   S    
C35   H16   S    
S2    O14   S    
C30   O6    A    
S3    O16   D    
C33   H2    S    
C31   O8    A    
C5    H21   S    
C6    H22   S    
C35   C38   S    
S2    O13   D    
C3    C8    A    
C5    C7    A    
O11   H25   S    
N1    Zn1   S    
C11   H23   S    
C33   C37   S    
C32   C34   S    
S1    O9    D    
C32   H13   S    
C12   H24   S    
C2    C38   S    
S4    O19   D    
O14   H26   S    
C1    O2    A    
C16   O3    A    
C32   C37   S    
S1    O10   D    
C16   O4    A    
O3    Zn1   S    
C3    H19   S    
O8    Zn2   S    
C23   N2    A    
C12   C14   A    
C13   C15   A    
C22   C24   A    
C4    C6    A    
C30   O5    A    
C19   H6    S    
S4    O20   S    
O7    Zn1   S    
C21   H8    S    
S3    O17   S    
C36   S4    S    
C24   H11   S    
C36   C37   S    
C23   H10   S    
C34   C38   S    
S2    O12   D    
C3    C5    A    
C6    C7    A    
C36   S3    S    
C25   C27   A    
C16   C37   S    
C26   C28   S    
C31   C38   S    
C20   N1    A    
C2    H18   S    
C18   H5    S    
C11   C13   A    
S4    O18   D    
C33   C35   S    
C18   C20   A    
C23   C25   A    
S1    O11   S    
O17   H27   S    
C34   H15   S    
C4    H20   S    
N2    Zn2   S    
C14   C15   A    
