data_mof_unit_65091.cif
_audit_creation_date              2012-12-10T16:50:12-0500
_audit_creation_method            fapswitch 2.2
_symmetry_space_group_name_H-M    P1
_symmetry_Int_Tables_number       1
_space_group_crystal_system       triclinic
_cell_length_a                    21.943432
_cell_length_b                    21.947328
_cell_length_c                    22.094959
_cell_angle_alpha                 60.462569
_cell_angle_beta                  118.615586
_cell_angle_gamma                 89.609577
_cell_volume                      7705.08875648

loop_
_atom_site_label
_atom_site_type_symbol
_atom_type_description
_atom_site_fract_x
_atom_site_fract_y
_atom_site_fract_z
_atom_type_partial_charge
C1    C     C_R   0.614146 0.502642 0.493780 0.843394
C2    C     C_3   0.289921 0.708029 0.083303 0.138610
C3    C     C_3   0.185850 0.732523 0.972639 -0.319467
C4    C     C_3   0.206804 0.791813 0.916771 0.137903
C5    C     C_3   0.211907 0.761691 0.029186 -0.018898
C6    C     C_3   0.231979 0.820856 0.972780 -0.019850
C7    C     C_1   0.336474 0.662398 0.174923 0.088970
C8    C     C_1   0.160690 0.837479 0.825134 0.090163
C9    C     C_2   0.756584 0.562400 0.445979 -0.162006
C10   C     C_2   0.820664 0.507142 0.509526 -0.145435
C11   C     C_2   0.691967 0.566520 0.450777 -0.100223
C12   C     C_R   0.419861 0.580115 0.339749 0.796487
C13   C     C_2   0.673788 0.505342 0.481572 -0.253568
C14   C     C_3   0.727882 0.193449 0.029677 -0.141426
C15   C     C_3   0.681763 0.276370 0.973895 -0.273712
C16   C     C_1   0.625275 0.375072 0.750017 -0.127340
C17   C     C_1   0.876609 0.125198 0.250008 -0.078726
C18   C     C_3   0.754834 0.209586 0.971269 -0.278534
C19   C     C_3   0.709508 0.291808 0.916978 0.062546
C20   C     C_3   0.820474 0.225633 0.025143 -0.082130
C21   C     C_3   0.793852 0.209565 0.082913 0.078969
C22   C     C_3   0.774935 0.307544 0.970029 0.568625
C23   C     C_R   0.383835 0.498995 0.502717 0.896689
C24   C     C_3   0.748331 0.291564 0.027741 -0.089205
C25   C     C_1   0.663262 0.337502 0.825358 0.032746
C26   C     C_1   0.839454 0.163192 0.174667 0.105561
C27   C     C_2   0.243729 0.439401 0.555536 -0.211949
C28   C     C_2   0.181149 0.495909 0.494650 -0.387735
C29   C     C_2   0.306842 0.436512 0.548216 0.653487
C30   C     C_2   0.320271 0.498796 0.508145 -0.424607
C31   C     C_R   0.001710 0.880890 0.503017 0.840159
C32   C     C_R   0.079607 0.919820 0.660254 0.810795
C33   C     C_R   0.997759 0.119748 0.495086 0.840975
C34   C     C_R   0.580149 0.419859 0.660312 0.828431
C35   C     C_R   0.920367 0.080076 0.339696 0.837072
C36   C     C_R   0.996511 0.617624 0.499836 0.894375
C37   C     C_R   0.882883 0.501959 0.501506 0.784186
C38   C     C_R   0.996685 0.382348 0.500206 0.873866
C39   C     C_R   0.117166 0.498537 0.498999 0.884544
C40   C     C_2   0.976815 0.694425 0.546599 0.008944
C41   C     C_2   0.989910 0.685189 0.497193 -0.317216
C42   C     C_2   0.970815 0.766405 0.536683 -0.241738
C43   C     C_2   0.007580 0.810412 0.511641 -0.302843
C44   C     C_2   0.939336 0.316530 0.435104 0.601364
C45   C     C_3   0.284823 0.738144 0.970908 -0.021378
C46   C     C_2   0.988808 0.315404 0.502421 -0.344525
C47   C     C_2   0.934172 0.247352 0.439632 -0.253146
C48   C     C_2   0.996168 0.190284 0.486331 0.381986
C49   C     C_3   0.310860 0.767323 0.027420 -0.319647
C50   C     C_1   0.374635 0.624859 0.250181 -0.101951
C51   C     C_1   0.123343 0.875050 0.749852 -0.101410
C52   C     C_3   0.264747 0.678987 0.027296 -0.024065
Cu1   Cu    Cu3+1 0.500050 0.438990 0.500010 1.052593
Cu2   Cu    Cu3+1 0.499950 0.561010 0.499990 1.007948
Cu3   Cu    Cu3+1 0.061010 0.999870 0.499990 1.067114
Cu4   Cu    Cu3+1 0.938990 0.999980 0.500010 1.009009
Cu5   Cu    Cu3+1 0.958560 0.541440 0.417120 1.042105
Cu6   Cu    Cu3+1 0.041440 0.458560 0.582880 1.019741
H1    H     H_    0.362062 0.781721 0.049673 0.158238
H2    H     H_    0.702946 0.454762 0.496263 0.139783
H3    H     H_    0.624274 0.297593 0.952311 0.168663
H4    H     H_    0.708595 0.146005 0.054761 0.160852
H5    H     H_    0.757357 0.175945 0.947527 0.167816
H6    H     H_    0.247624 0.392651 0.609627 0.196884
H7    H     H_    0.174391 0.538830 0.436569 0.164627
H8    H     H_    0.286983 0.551675 0.484596 0.121011
H9    H     H_    0.990125 0.732093 0.446632 0.138104
H10   H     H_    0.937009 0.782374 0.553042 0.171682
H11   H     H_    0.046545 0.792566 0.502089 0.159443
H12   H     H_    0.022530 0.263159 0.562982 0.166135
H13   H     H_    0.134646 0.718130 0.950376 0.161111
H14   H     H_    0.751223 0.605653 0.388958 0.159969
H15   H     H_    0.658963 0.619425 0.427443 0.163462
O1    O     O_R   0.589060 0.448490 0.499990 -0.593461
O2    O     O_R   0.948460 0.910940 0.500030 -0.588575
O3    O     O_R   0.111980 0.939430 0.620910 -0.555512
O4    O     O_R   0.008930 0.939520 0.620930 -0.593503
O5    O     O_R   0.051540 0.088910 0.499970 -0.531623
O6    O     O_R   0.948490 0.089000 0.499990 -0.591869
O7    O     O_R   0.991070 0.060330 0.379070 -0.571020
O8    O     O_R   0.888020 0.060420 0.379090 -0.556669
O9    O     O_R   0.964940 0.624010 0.430000 -0.599394
O10   O     O_R   0.034920 0.554020 0.569980 -0.546568
O11   O     O_R   0.875990 0.534990 0.430030 -0.580168
O12   O     O_R   0.588980 0.551530 0.499980 -0.570900
O13   O     O_R   0.945970 0.465000 0.570010 -0.576495
O14   O     O_R   0.965080 0.445980 0.430020 -0.505214
O15   O     O_R   0.035060 0.375990 0.570000 -0.602130
O16   O     O_R   0.054030 0.535000 0.429990 -0.580934
O17   O     O_R   0.124010 0.465010 0.569970 -0.584638
O18   O     O_R   0.439580 0.508940 0.379080 -0.565409
O19   O     O_R   0.439510 0.611990 0.379070 -0.587089
O20   O     O_R   0.411020 0.448470 0.500020 -0.516683
O21   O     O_R   0.410940 0.551510 0.500010 -0.595279
O22   O     O_R   0.560490 0.388010 0.620930 -0.570083
O23   O     O_R   0.560420 0.491060 0.620920 -0.571284
O24   O     O_R   0.051510 0.910850 0.500010 -0.585465
C53   C     C_2   0.743243 0.339925 0.055878 0.456013
H16   H     H_    0.708917 0.397238 0.009788 0.082368
O25   O     O_2   0.777321 0.315493 0.130088 -0.489845
F1    F     F_    0.799035 0.366626 0.938873 -0.642836
C54   C     C_2   0.897030 0.199375 0.050282 0.441678
H17   H     H_    0.908043 0.215201 0.002535 0.085914
O26   O     O_2   0.947091 0.160390 0.123905 -0.520488
F2    F     F_    0.354266 0.369255 0.588461 -0.627800
C55   C     C_2   0.328121 0.723109 0.941295 0.361260
H18   H     H_    0.382910 0.683634 0.986622 0.079851
O27   O     O_2   0.302360 0.754775 0.866783 -0.518883
C56   C     C_2   0.960962 0.638611 0.606291 0.407084
H19   H     H_    0.965456 0.643347 0.654804 0.070601
O28   O     O_2   0.939602 0.589534 0.600112 -0.521562
F3    F     F_    0.890898 0.381734 0.361282 -0.631638
C57   C     C_2   0.859909 0.248454 0.384330 0.422196
H20   H     H_    0.812242 0.284318 0.367437 0.109618
O29   O     O_2   0.850689 0.213567 0.353166 -0.508763
F4    F     F_    0.062812 0.200017 0.520195 -0.643508
C58   C     C_2   0.215218 0.899778 0.945240 0.362150
H21   H     H_    0.236642 0.912515 0.991714 0.079622
O30   O     O_2   0.177720 0.949790 0.871129 -0.520546
C59   C     C_2   0.168682 0.776652 0.058903 0.360897
H22   H     H_    0.113908 0.816156 0.013641 0.079332
O31   O     O_2   0.194489 0.744882 0.133438 -0.525329
C60   C     C_2   0.281502 0.600067 0.054833 0.365583
H23   H     H_    0.260093 0.587332 0.008357 0.079135
O32   O     O_2   0.318975 0.550054 0.128943 -0.514764
C61   C     C_2   0.836388 0.454838 0.595030 0.445527
H24   H     H_    0.873416 0.399006 0.634155 0.055729
O33   O     O_2   0.811881 0.474691 0.624038 -0.493042

loop_
_geom_bond_atom_site_label_1
_geom_bond_atom_site_label_2
_ccdc_geom_bond_type
C21   C26   S    
C61   H24   S    
Cu1   O22   S    
C14   C18   S    
C12   O18   A    
Cu1   O1    S    
C9    H14   S    
C4    C8    S    
C35   O8    A    
Cu4   O8    S    
C41   H9    S    
C13   H2    S    
Cu1   Cu2   S    
C59   H22   S    
C15   C19   S    
C22   F1    S    
Cu5   O16   S    
C10   C37   S    
C24   C53   S    
C1    O1    A    
C14   C21   S    
C34   O23   A    
C58   O30   D    
C5    C6    S    
C52   C60   S    
C18   H5    S    
C60   O32   D    
C27   C29   S    
C55   H18   S    
C36   O10   A    
C14   H4    S    
C35   O7    A    
C18   C19   S    
C16   C34   S    
C32   O4    A    
C31   C43   S    
C2    C7    S    
C36   O9    A    
Cu1   O18   S    
C37   O11   A    
C9    C10   D    
C39   O17   A    
Cu2   O23   S    
C44   C47   S    
C49   H1    S    
C48   F4    S    
C40   C42   S    
C43   H11   S    
Cu4   O2    S    
C42   H10   S    
C29   F2    S    
C36   C41   S    
Cu6   O13   S    
C44   C46   D    
C4    C45   S    
C1    O12   A    
C38   C46   S    
C5    C59   S    
Cu1   O20   S    
C23   C30   S    
C37   O13   A    
C60   H23   S    
C19   C22   S    
C34   O22   A    
C4    C6    S    
C11   H15   S    
Cu3   O5    S    
C33   O6    A    
C45   C52   S    
C33   O5    A    
Cu4   O4    S    
Cu5   O14   S    
C38   O15   A    
C3    H13   S    
C32   C51   S    
Cu2   O19   S    
C29   C30   D    
C2    C49   S    
C9    C11   S    
C31   O2    A    
C47   C48   D    
C45   C49   S    
Cu3   O24   S    
Cu3   Cu4   S    
C15   H3    S    
Cu5   O11   S    
C54   O26   D    
Cu4   O6    S    
C8    C51   T    
C30   H8    S    
C2    C52   S    
Cu6   O17   S    
Cu3   O3    S    
C44   F3    S    
C15   C24   S    
C20   C22   S    
C53   O25   D    
C22   C24   S    
C2    C5    S    
C1    C13   S    
C42   C43   D    
C17   C26   T    
C3    C4    S    
C46   H12   S    
C45   C55   S    
C59   O31   D    
C57   H20   S    
C16   C25   T    
C47   C57   S    
C40   C41   D    
C61   O33   D    
C6    C58   S    
C14   C15   S    
C12   O19   A    
C7    C50   T    
C3    C5    S    
Cu6   O15   S    
C32   O3    A    
Cu2   O12   S    
C12   C50   S    
C3    C52   S    
C40   C56   S    
C28   C39   S    
C23   O21   A    
C38   O14   A    
C56   O28   D    
C28   H7    S    
C10   C61   S    
C58   H21   S    
Cu3   O7    S    
C11   C13   D    
Cu5   Cu6   S    
C55   O27   D    
C18   C20   S    
C31   O24   A    
C6    C49   S    
C54   H17   S    
C19   C25   S    
Cu2   O21   S    
C27   H6    S    
C23   O20   A    
C20   C54   S    
C20   C21   S    
C53   H16   S    
C21   C24   S    
C56   H19   S    
C27   C28   D    
C33   C48   S    
Cu5   O9    S    
C17   C35   S    
Cu6   O10   S    
C39   O16   A    
C57   O29   D    
