data_mof_unit_23857.cif
_audit_creation_date              2013-03-05T15:40:27-0500
_audit_creation_method            fapswitch 2.2
_symmetry_space_group_name_H-M    P1
_symmetry_Int_Tables_number       1
_space_group_crystal_system       triclinic
_cell_length_a                    19.101311
_cell_length_b                    10.966788
_cell_length_c                    18.840091
_cell_angle_alpha                 90.012656
_cell_angle_beta                  90.699884
_cell_angle_gamma                 90.024942
_cell_volume                      3946.32787999

loop_
_atom_site_label
_atom_site_type_symbol
_atom_site_description
_atom_site_fract_x
_atom_site_fract_y
_atom_site_fract_z
_atom_type_partial_charge
O1    O     O_R   0.215090 0.709860 0.828130 -0.442929
O2    O     O_R   0.784910 0.709860 0.171870 -0.442537
O3    O     O_R   0.715090 0.209860 0.828130 -0.442490
O4    O     O_R   0.284910 0.209860 0.171870 -0.441695
O5    O     O_R   0.236990 0.958390 0.823710 -0.517662
O6    O     O_R   0.763010 0.958390 0.176290 -0.518060
O7    O     O_R   0.736990 0.458390 0.823710 -0.518202
O8    O     O_R   0.263010 0.458390 0.176290 -0.517239
C1    C     C_R   0.272377 0.043490 0.853086 0.544690
C2    C     C_R   0.727627 0.043477 0.146920 0.544207
C3    C     C_R   0.772378 0.543488 0.853087 0.543863
C4    C     C_R   0.227626 0.543473 0.146918 0.542121
O9    O     O_R   0.332380 0.074750 0.830850 -0.454476
O10   O     O_R   0.667620 0.074750 0.169150 -0.454715
O11   O     O_R   0.832380 0.574750 0.830850 -0.455178
O12   O     O_R   0.167620 0.574750 0.169150 -0.461334
O13   O     O_R   0.445800 0.917770 0.825070 -0.469323
O14   O     O_R   0.554200 0.917770 0.174930 -0.469857
O15   O     O_R   0.945800 0.417770 0.825070 -0.469443
O16   O     O_R   0.054200 0.417770 0.174930 -0.470964
C5    C     C_R   0.471571 0.822041 0.853449 0.581983
C6    C     C_R   0.528440 0.821994 0.146544 0.581899
C7    C     C_R   0.971574 0.322039 0.853446 0.582459
C8    C     C_R   0.028443 0.321996 0.146541 0.582311
O17   O     O_R   0.456410 0.716580 0.829970 -0.516651
O18   O     O_R   0.543590 0.716580 0.170030 -0.515939
O19   O     O_R   0.956410 0.216580 0.829970 -0.515871
O20   O     O_R   0.043590 0.216580 0.170030 -0.516830
O21   O     O_R   0.321080 0.625290 0.822650 -0.506131
O22   O     O_R   0.678920 0.625290 0.177350 -0.505617
O23   O     O_R   0.821080 0.125290 0.822650 -0.505565
O24   O     O_R   0.178920 0.125290 0.177350 -0.507863
C9    C     C_R   0.261357 0.636638 0.851526 0.575400
C10   C     C_R   0.738640 0.636592 0.148479 0.576281
C11   C     C_R   0.761357 0.136640 0.851527 0.576212
C12   C     C_R   0.238640 0.136595 0.148477 0.575436
O25   O     O_R   0.214930 0.711450 0.668160 -0.457670
O26   O     O_R   0.785070 0.711450 0.331840 -0.456099
O27   O     O_R   0.714930 0.211450 0.668160 -0.455346
O28   O     O_R   0.285070 0.211450 0.331840 -0.452075
O29   O     O_R   0.236850 0.959870 0.675420 -0.455641
O30   O     O_R   0.763150 0.959870 0.324580 -0.455599
O31   O     O_R   0.736850 0.459870 0.675420 -0.455549
O32   O     O_R   0.263150 0.459870 0.324580 -0.454452
C13   C     C_R   0.270659 0.050213 0.650612 0.610119
C14   C     C_R   0.729558 0.050529 0.349170 0.608984
C15   C     C_R   0.770293 0.550801 0.651020 0.608985
C16   C     C_R   0.228741 0.549460 0.349393 0.626412
O33   O     O_R   0.332230 0.076350 0.670880 -0.458736
O34   O     O_R   0.667770 0.076350 0.329120 -0.456813
O35   O     O_R   0.832230 0.576350 0.670880 -0.456566
O36   O     O_R   0.167770 0.576350 0.329120 -0.461554
O37   O     O_R   0.445660 0.919250 0.676780 -0.471207
O38   O     O_R   0.554340 0.919250 0.323220 -0.471840
O39   O     O_R   0.945660 0.419250 0.676780 -0.470203
O40   O     O_R   0.054340 0.419250 0.323220 -0.449344
C17   C     C_R   0.469808 0.821980 0.647520 0.575022
C18   C     C_R   0.528882 0.822070 0.351507 0.576696
C19   C     C_R   0.970677 0.322116 0.648110 0.573758
C20   C     C_R   0.029353 0.322056 0.351916 0.587526
O41   O     O_R   0.456260 0.718170 0.670000 -0.439203
O42   O     O_R   0.543740 0.718170 0.330000 -0.437625
O43   O     O_R   0.956260 0.218170 0.670000 -0.439346
O44   O     O_R   0.043740 0.218170 0.330000 -0.445596
O45   O     O_R   0.320940 0.626760 0.674370 -0.455178
O46   O     O_R   0.679060 0.626760 0.325630 -0.458092
O47   O     O_R   0.820940 0.126760 0.674370 -0.459664
O48   O     O_R   0.179060 0.126760 0.325630 -0.471519
C21   C     C_R   0.259777 0.635139 0.647452 0.598351
C22   C     C_R   0.739885 0.637003 0.353915 0.601126
C23   C     C_R   0.760132 0.137287 0.646014 0.600509
C24   C     C_R   0.239700 0.138065 0.354312 0.591298
Cr1   Cr    Cr6+3 0.230530 0.836340 0.748870 1.173272
Cr2   Cr    Cr6+3 0.769470 0.836340 0.251130 1.172767
Cr3   Cr    Cr6+3 0.730530 0.336340 0.748870 1.172047
Cr4   Cr    Cr6+3 0.269470 0.336340 0.251130 1.174182
Cr5   Cr    Cr6+3 0.387420 0.989430 0.750820 1.184618
Cr6   Cr    Cr6+3 0.612580 0.989430 0.249180 1.183929
Cr7   Cr    Cr6+3 0.887420 0.489430 0.750820 1.185375
Cr8   Cr    Cr6+3 0.112580 0.489430 0.249180 1.184188
Cr9   Cr    Cr6+3 0.385640 0.677860 0.749230 1.164628
Cr10  Cr    Cr6+3 0.614360 0.677860 0.250770 1.164376
Cr11  Cr    Cr6+3 0.885640 0.177860 0.749230 1.162715
Cr12  Cr    Cr6+3 0.114360 0.177860 0.250770 1.148607
O49   O     O_3   0.334530 0.834540 0.749640 -0.323376
O50   O     O_3   0.665470 0.834540 0.250360 -0.322145
O51   O     O_3   0.834530 0.334540 0.749640 -0.322403
O52   O     O_3   0.165470 0.334540 0.250360 -0.320290
H1    H     H_    0.499254 0.632128 0.937296 0.191268
H2    H     H_    0.501136 0.632042 0.062533 0.191266
H3    H     H_    0.999249 0.132120 0.937296 0.191364
H4    H     H_    0.001130 0.132051 0.062534 0.191211
C25   C     C_R   0.498882 0.829450 0.074222 0.062606
C26   C     C_R   0.501190 0.829563 0.925749 0.062424
C27   C     C_R   0.998895 0.329460 0.074214 0.063084
C28   C     C_R   0.001203 0.329552 0.925742 0.062421
C29   C     C_R   0.493512 0.942165 0.037012 -0.063828
C30   C     C_R   0.506451 0.942249 0.963036 -0.064064
C31   C     C_R   0.993538 0.442175 0.036997 -0.063697
C32   C     C_R   0.006478 0.442239 0.963021 -0.064088
C33   C     C_R   0.501121 0.719902 0.963682 -0.129893
C34   C     C_R   0.499136 0.719844 0.036212 -0.129895
C35   C     C_R   0.001126 0.219897 0.963679 -0.129759
C36   C     C_R   0.999141 0.219850 0.036208 -0.129749
C37   C     C_R   0.476727 0.053915 0.071051 0.165488
C38   C     C_R   0.523160 0.054117 0.929083 0.165176
C39   C     C_R   0.976751 0.553938 0.071022 0.165388
C40   C     C_R   0.023187 0.554091 0.929055 0.164916
C41   C     C_R   0.986975 0.665195 0.034900 0.188115
C42   C     C_R   0.012918 0.665275 0.965249 0.188119
C43   C     C_R   0.486974 0.165178 0.034950 0.187815
C44   C     C_R   0.512915 0.165289 0.965300 0.187904
C45   C     C_2   0.249831 0.580835 0.920556 0.009479
C46   C     C_2   0.750155 0.580748 0.079454 0.009371
C47   C     C_2   0.749832 0.080844 0.920559 0.009021
C48   C     C_2   0.250154 0.080753 0.079451 0.008427
C49   C     C_2   0.253761 0.596168 0.080602 0.193051
C50   C     C_2   0.746254 0.596161 0.919412 0.192114
C51   C     C_2   0.753768 0.096179 0.080609 0.192143
C52   C     C_2   0.246255 0.096166 0.919411 0.192182
C53   C     C_2   0.292638 0.524305 0.038082 -0.104037
C54   C     C_2   0.707365 0.524247 0.961909 -0.104738
C55   C     C_2   0.792638 0.024311 0.038084 -0.104632
C56   C     C_2   0.207361 0.024257 0.961906 -0.104492
C57   C     C_2   0.304090 0.551642 0.963040 -0.053793
C58   C     C_2   0.695894 0.551571 0.036949 -0.053806
C59   C     C_2   0.804090 0.051650 0.963043 -0.053773
C60   C     C_2   0.195892 0.051582 0.036946 -0.053869
H5    H     H_    0.310553 0.435747 0.056152 0.212960
H6    H     H_    0.689470 0.435645 0.943825 0.212919
H7    H     H_    0.810544 0.935743 0.056149 0.212963
H8    H     H_    0.189460 0.935660 0.943821 0.212957
H9    H     H_    0.357273 0.548728 0.943356 0.184224
H10   H     H_    0.642701 0.548685 0.056610 0.184062
H11   H     H_    0.857273 0.048733 0.943358 0.184234
H12   H     H_    0.142699 0.048698 0.056607 0.184075
H13   H     H_    0.197036 0.581583 0.941520 0.165690
H14   H     H_    0.802957 0.581479 0.058506 0.165583
H15   H     H_    0.697038 0.081597 0.941525 0.165569
H16   H     H_    0.302956 0.081481 0.058504 0.165675
C61   C     C_2   0.497437 0.821047 0.576104 -0.155431
C62   C     C_2   0.496378 0.821525 0.420728 -0.153266
C63   C     C_2   0.001088 0.321730 0.577839 -0.151321
C64   C     C_2   0.999067 0.321390 0.422255 -0.138724
C65   C     C_2   0.497187 0.716379 0.459834 0.129800
C66   C     C_2   0.491951 0.716687 0.536486 0.127030
C67   C     C_2   0.002326 0.216667 0.461680 0.125144
C68   C     C_2   0.998623 0.216776 0.538578 0.125120
H17   H     H_    0.483354 0.909241 0.443392 0.098229
H18   H     H_    0.511211 0.908291 0.553305 0.099593
H19   H     H_    0.986022 0.408965 0.445040 0.122124
H20   H     H_    0.013352 0.409544 0.554903 0.126712
C69   C     C_2   0.250656 0.599419 0.575234 0.020204
C70   C     C_2   0.748658 0.606722 0.427841 -0.002079
C71   C     C_2   0.751149 0.107383 0.572094 -0.006980
C72   C     C_2   0.248782 0.108787 0.428351 -0.018066
C73   C     C_2   0.258912 0.617988 0.407089 0.045343
C74   C     C_2   0.737444 0.616150 0.592302 0.038146
C75   C     C_2   0.761567 0.114770 0.408689 0.037075
C76   C     C_2   0.239738 0.114269 0.590601 0.039963
C77   C     C_2   0.218631 0.663408 0.458882 0.159525
C78   C     C_2   0.774564 0.682520 0.545925 0.146491
C79   C     C_2   0.723967 0.182405 0.454033 0.147975
C80   C     C_2   0.278557 0.182217 0.546380 0.148325
C81   C     C_2   0.251297 0.688534 0.526657 0.071332
C82   C     C_2   0.745829 0.699280 0.474621 0.073805
C83   C     C_2   0.751653 0.200579 0.525581 0.073884
C84   C     C_2   0.252759 0.202653 0.474454 0.072899
H21   H     H_    0.231674 0.508421 0.563265 0.073714
H22   H     H_    0.769349 0.518047 0.442511 0.053587
H23   H     H_    0.733010 0.017128 0.557204 0.052728
H24   H     H_    0.261306 0.016050 0.443891 0.041189
N1    N     N_R   0.143450 0.656135 0.457562 0.105490
O53   O     O_R   0.107273 0.753426 0.471630 -0.218451
O54   O     O_R   0.113003 0.550233 0.461413 -0.364604
N2    N     N_R   0.842836 0.731508 0.561933 0.097089
O55   O     O_R   0.852035 0.797879 0.618567 -0.263713
O56   O     O_R   0.889910 0.735008 0.512630 -0.239876
N3    N     N_R   0.656768 0.233871 0.436161 0.097354
O57   O     O_R   0.649859 0.300372 0.379288 -0.267739
O58   O     O_R   0.608391 0.238939 0.484108 -0.242108
N4    N     N_R   0.344843 0.234998 0.566597 0.099920
O59   O     O_R   0.349317 0.302237 0.623417 -0.266500
O60   O     O_R   0.395065 0.239908 0.520639 -0.238347
N5    N     N_3   0.276275 0.808864 0.543097 -0.600290
H25   H     H_    0.316375 0.830890 0.508215 0.201349
H26   H     H_    0.234963 0.868825 0.533556 0.254976
N6    N     N_3   0.718265 0.816041 0.454669 -0.594230
H27   H     H_    0.676838 0.836405 0.488397 0.204017
H28   H     H_    0.757715 0.879671 0.464241 0.252354
N7    N     N_3   0.776480 0.319084 0.545786 -0.591988
H29   H     H_    0.818092 0.341685 0.512761 0.201353
H30   H     H_    0.735968 0.380334 0.535421 0.257860
N8    N     N_3   0.234471 0.324206 0.453484 -0.575466
H31   H     H_    0.193019 0.352230 0.485224 0.226301
H32   H     H_    0.277404 0.380409 0.464584 0.270355
N9    N     N_3   0.333503 0.628120 0.409362 -0.574999
H33   H     H_    0.347145 0.720350 0.410240 0.222869
H34   H     H_    0.351848 0.585883 0.455332 0.290231
N10   N     N_3   0.664389 0.593216 0.579962 -0.554405
H35   H     H_    0.638910 0.676951 0.573743 0.241049
H36   H     H_    0.658173 0.542354 0.533597 0.280239
N11   N     N_3   0.833964 0.089551 0.423018 -0.550235
H37   H     H_    0.859717 0.172377 0.431888 0.240899
H38   H     H_    0.838249 0.035755 0.468417 0.278582
N12   N     N_3   0.167454 0.090201 0.575113 -0.550416
H39   H     H_    0.142445 0.173172 0.564664 0.244897
H40   H     H_    0.163737 0.034854 0.530372 0.273777
N13   N     N_R   0.444586 0.054330 0.139861 0.100363
O61   O     O_R   0.395934 0.975524 0.154650 -0.343667
O62   O     O_R   0.466258 0.128921 0.189201 -0.243935
N14   N     N_R   0.555240 0.054757 0.860245 0.100672
O63   O     O_R   0.603938 0.976161 0.845351 -0.342162
O64   O     O_R   0.533435 0.129289 0.810970 -0.243232
N15   N     N_R   0.944620 0.554373 0.139836 0.100546
O65   O     O_R   0.895954 0.475596 0.154632 -0.341940
O66   O     O_R   0.966322 0.628939 0.189175 -0.247459
N16   N     N_R   0.055280 0.554703 0.860222 0.100616
O67   O     O_R   0.103970 0.476084 0.845343 -0.341387
O68   O     O_R   0.033493 0.629227 0.810935 -0.242639
N17   N     N_R   0.972849 0.778885 0.069670 0.134973
O69   O     O_R   0.021053 0.862481 0.074326 -0.284293
O70   O     O_R   0.911460 0.799830 0.096081 -0.296928
N18   N     N_R   0.027005 0.779049 0.930554 0.135669
O71   O     O_R   0.978797 0.862579 0.926021 -0.282123
O72   O     O_R   0.088351 0.800108 0.904052 -0.296523
N19   N     N_R   0.472898 0.278847 0.069753 0.135667
O73   O     O_R   0.411484 0.299936 0.096065 -0.296525
O74   O     O_R   0.521211 0.362229 0.074621 -0.281807
N20   N     N_R   0.527045 0.279082 0.930642 0.135467
O75   O     O_R   0.478911 0.362762 0.926246 -0.282537
O76   O     O_R   0.588377 0.300048 0.904083 -0.296867
N21   N     N_R   0.234905 0.718886 0.060332 0.060699
O77   O     O_R   0.279283 0.786493 0.026216 -0.376028
O78   O     O_R   0.177858 0.768657 0.083758 -0.286881
N22   N     N_R   0.765116 0.718910 0.939703 0.061167
O79   O     O_R   0.720759 0.786433 0.973875 -0.376100
O80   O     O_R   0.822117 0.768806 0.916205 -0.283323
N23   N     N_R   0.734932 0.218915 0.060353 0.061241
O81   O     O_R   0.779305 0.286487 0.026208 -0.375947
O82   O     O_R   0.677930 0.268747 0.083846 -0.283110
N24   N     N_R   0.265124 0.218910 0.939703 0.061312
O83   O     O_R   0.220769 0.286443 0.973870 -0.375653
O84   O     O_R   0.322134 0.268791 0.916215 -0.283075
N25   N     N_R   0.507264 0.596434 0.428836 0.152579
O85   O     O_R   0.560956 0.530616 0.447579 -0.251612
O86   O     O_R   0.463646 0.553166 0.381605 -0.245499
N26   N     N_R   0.481084 0.597213 0.567642 0.157175
O87   O     O_R   0.423573 0.537334 0.554985 -0.272102
O88   O     O_R   0.528547 0.547979 0.608554 -0.235043
N27   N     N_R   0.011883 0.096879 0.430357 0.154901
O89   O     O_R   0.066755 0.032252 0.446623 -0.276561
O90   O     O_R   0.966661 0.052825 0.384969 -0.245876
N28   N     N_R   0.990054 0.096917 0.570094 0.156228
O91   O     O_R   0.936324 0.029860 0.552998 -0.252577
O92   O     O_R   0.035288 0.054903 0.616108 -0.241332

loop_
_geom_bond_atom_site_label_1
_geom_bond_atom_site_label_2
_geom_bond_distance
_ccdc_geom_bond_type
C18   O42   1.243367 A    
Cr11  O51   1.976682 S    
N11   H37   1.045233 S    
O4    C12   1.269124 A    
O47   Cr11  1.946021 S    
C33   C34   1.367453 A    
C24   C72   1.439894 S    
O39   C19   1.288936 A    
C41   C42   1.408336 A    
O20   Cr12  2.066912 S    
H4    C36   1.083661 S    
N8    H32   1.044744 S    
N23   O81   1.301674 A    
C42   N18   1.435564 S    
N18   O71   1.301244 A    
Cr7   O51   1.975973 S    
C65   C66   1.448806 S    
N16   O67   1.301515 A    
O23   Cr11  1.951377 S    
N27   O89   1.299127 A    
C38   C44   1.411891 A    
N1    O53   1.300447 A    
N22   O79   1.301670 A    
O7    C3    1.274472 A    
N11   H38   1.041597 S    
C83   N7    1.433054 S    
C67   N27   1.452531 S    
O5    C1    1.274474 A    
N28   O91   1.299644 A    
C5    O17   1.270257 A    
O36   Cr8   2.061057 S    
C77   C81   1.440805 S    
C82   N6    1.433224 S    
C76   C80   1.346880 D    
C62   H17   1.082686 S    
C54   H6    1.083416 S    
C59   H11   1.086174 S    
C64   H19   1.082313 S    
O25   C21   1.262956 A    
O39   Cr7   1.952924 S    
C60   H12   1.086171 S    
O30   C14   1.273756 A    
C46   C58   1.340603 D    
C27   C31   1.424373 A    
N5    H26   1.041364 S    
O47   C23   1.277814 A    
C45   C57   1.340676 D    
C5    C26   1.470847 S    
C26   C30   1.424285 A    
C66   N26   1.451713 S    
O8    Cr4   1.947204 S    
C44   N20   1.435594 S    
C7    C28   1.470831 S    
C56   H8    1.083418 S    
N6    H28   1.040896 S    
C50   C54   1.352455 D    
N9    H34   1.039394 S    
C1    O9    1.272036 A    
N4    O59   1.301686 A    
O44   Cr12  2.071864 S    
N28   O92   1.300986 A    
C2    C51   1.469515 S    
C78   C82   1.456661 S    
C3    O11   1.272043 A    
O11   Cr7   2.071993 S    
C67   C68   1.451346 S    
C26   C33   1.399086 A    
N22   O80   1.300871 A    
N10   H35   1.045417 S    
C3    C50   1.469453 S    
C74   N10   1.433990 S    
C11   C47   1.456576 S    
C7    O19   1.270228 A    
C84   N8    1.432615 S    
O3    Cr3   2.062067 S    
N21   O77   1.301674 A    
Cr4   O52   1.986500 S    
H1    C33   1.083662 S    
O2    Cr2   2.061798 S    
O48   C24   1.278129 A    
C29   C30   1.418434 A    
C56   C60   1.464226 S    
C40   N16   1.441177 S    
O2    C10   1.269127 A    
N2    O56   1.301215 A    
N8    H31   1.044344 S    
C37   C43   1.411812 A    
C47   C59   1.340672 D    
C19   C63   1.452242 S    
O21   C9    1.275974 A    
O27   C23   1.261094 A    
N25   O85   1.299789 A    
Cr8   O52   1.976738 S    
O17   Cr9   2.066528 S    
C39   C41   1.411876 A    
C62   C65   1.368520 D    
N20   O75   1.301267 A    
C13   C76   1.450854 S    
C64   C67   1.368898 D    
C69   H21   1.084353 S    
N26   O87   1.299136 A    
O34   Cr6   2.061057 S    
N26   O88   1.300434 A    
C61   H18   1.082529 S    
O6    Cr2   1.947204 S    
O35   Cr7   2.061794 S    
N1    O54   1.301089 A    
O31   Cr3   1.941531 S    
C63   C68   1.368540 D    
O24   Cr12  1.951516 S    
O9    Cr5   2.071993 S    
C32   C40   1.421640 A    
O30   Cr2   1.941179 S    
O22   C10   1.275764 A    
O1    C9    1.269414 A    
N7    H29   1.045141 S    
O48   Cr12  1.946510 S    
N3    O58   1.301294 A    
C4    O12   1.272342 A    
C80   C84   1.453711 S    
C80   N4    1.439007 S    
N10   H36   1.041852 S    
N13   O61   1.301518 A    
C2    O10   1.272345 A    
C8    C27   1.470840 S    
C53   H5    1.083428 S    
C17   C61   1.451317 S    
O16   Cr8   1.943871 S    
N12   H39   1.045511 S    
O7    Cr3   1.946703 S    
C43   N19   1.435415 S    
O26   Cr2   2.065695 S    
Cr10  O50   1.975947 S    
O29   Cr1   1.941531 S    
C72   H24   1.084399 S    
C81   N5    1.435498 S    
C75   N11   1.432818 S    
O40   C20   1.289331 A    
O43   Cr11  2.071754 S    
N6    H27   1.045089 S    
O12   Cr8   2.071879 S    
C22   C70   1.439701 S    
C54   C58   1.464228 S    
C79   C83   1.455599 S    
N15   O65   1.301518 A    
N7    H30   1.041625 S    
C53   C57   1.464319 S    
N17   O69   1.301244 A    
C50   N22   1.443631 S    
O46   Cr10  1.946510 S    
C77   N1    1.438153 S    
O3    C11   1.269410 A    
C18   C62   1.451222 S    
C25   C29   1.424329 A    
N24   O84   1.300874 A    
N19   O73   1.299906 A    
C21   C69   1.424407 S    
C13   O33   1.264843 A    
O40   Cr8   1.952783 S    
O8    C4    1.274885 A    
C23   C71   1.438899 S    
O13   Cr5   1.944511 S    
N24   O83   1.301671 A    
C39   N15   1.441159 S    
N23   O82   1.300875 A    
C52   N24   1.443631 S    
O29   C13   1.274429 A    
Cr2   O50   1.986500 S    
N20   O76   1.299938 A    
N21   O78   1.300873 A    
Cr1   O49   1.986521 S    
C6    O18   1.270183 A    
C61   C66   1.369515 D    
C46   H14   1.087561 S    
Cr3   O51   1.986521 S    
O26   C22   1.262047 A    
N19   O74   1.301302 A    
N14   O64   1.301762 A    
O21   Cr9   1.951377 S    
O27   Cr3   2.065077 S    
N25   O86   1.300955 A    
C79   N3    1.438640 S    
O37   Cr5   1.952924 S    
C6    C25   1.470822 S    
C75   C79   1.345724 D    
C28   C35   1.399079 A    
C37   N13   1.441176 S    
C49   C53   1.352427 D    
C12   C48   1.456482 S    
C73   C77   1.345644 D    
C55   C59   1.464315 S    
C41   N17   1.435527 S    
C27   C36   1.399080 A    
O15   C7    1.274629 A    
C8    O20   1.270214 A    
O14   Cr6   1.943871 S    
O38   C18   1.289356 A    
C57   H9    1.086173 S    
O25   Cr1   2.065077 S    
N2    O55   1.301579 A    
O37   C17   1.288781 A    
O22   Cr10  1.951516 S    
O28   C24   1.259553 A    
C43   C44   1.408301 A    
C55   H7    1.083439 S    
O14   C6    1.274452 A    
C9    C45   1.456565 S    
O5    Cr1   1.946703 S    
Cr12  O52   1.975947 S    
H3    C35   1.083666 S    
N18   O72   1.299939 A    
C25   C34   1.399077 A    
O6    C2    1.274880 A    
C15   O35   1.267684 A    
O24   C12   1.275767 A    
C17   O41   1.243014 A    
C51   C55   1.352439 D    
C10   C46   1.456481 S    
C31   C39   1.421644 A    
C16   C73   1.436121 S    
C14   O34   1.266997 A    
C19   O43   1.244233 A    
C30   C38   1.421675 A    
C31   C32   1.418429 A    
C65   N25   1.452942 S    
N16   O68   1.301761 A    
C20   O44   1.243719 A    
C45   H13   1.087552 S    
O1    Cr1   2.062067 S    
N15   O66   1.301753 A    
C29   C37   1.421623 A    
N17   O70   1.299931 A    
O32   C16   1.274248 A    
H2    C34   1.083668 S    
C68   N28   1.452484 S    
C20   C64   1.452443 S    
C49   N21   1.443645 S    
C70   H22   1.084478 S    
C51   N23   1.443655 S    
N5    H25   1.043620 S    
O46   C22   1.277182 A    
C40   C42   1.411851 A    
C71   C83   1.346557 D    
N12   H40   1.040314 S    
Cr5   O49   1.975973 S    
O45   C21   1.271294 A    
C14   C75   1.452633 S    
C28   C32   1.424240 A    
O23   C11   1.275978 A    
O19   Cr11  2.066528 S    
N13   O62   1.301761 A    
O38   Cr6   1.952783 S    
O33   Cr5   2.061794 S    
C73   N9    1.429182 S    
O10   Cr6   2.071880 S    
O42   Cr10  2.071864 S    
N9    H33   1.044463 S    
N4    O60   1.301197 A    
O4    Cr4   2.061798 S    
N27   O90   1.300841 A    
C52   C56   1.352452 D    
C74   C78   1.345716 D    
C76   N12   1.432144 S    
N3    O57   1.301672 A    
C71   H23   1.084288 S    
C16   O36   1.256463 A    
C78   N2    1.438733 S    
N14   O63   1.301513 A    
C58   H10   1.086171 S    
O18   Cr10  2.066912 S    
Cr6   O50   1.976738 S    
C48   C60   1.340607 D    
O28   Cr4   2.065695 S    
C69   C81   1.339231 D    
C35   C36   1.367453 A    
C1    C52   1.469447 S    
C72   C84   1.348261 D    
O45   Cr9   1.946021 S    
C70   C82   1.345682 D    
O41   Cr9   2.071754 S    
C4    C49   1.469518 S    
O32   Cr4   1.941179 S    
C47   H15   1.087553 S    
C38   N14   1.441149 S    
O31   C15   1.273053 A    
O16   C8    1.274431 A    
C63   H20   1.082357 S    
Cr9   O49   1.976682 S    
O15   Cr7   1.944511 S    
C48   H16   1.087561 S    
C15   C74   1.454269 S    
O13   C5    1.274607 A    
