data_mof_unit_13919.cif
_audit_creation_date              2012-12-10T17:53:20-0500
_audit_creation_method            fapswitch 2.2
_symmetry_space_group_name_H-M    P1
_symmetry_Int_Tables_number       1
_space_group_crystal_system       triclinic
_cell_length_a                    23.411338
_cell_length_b                    10.616938
_cell_length_c                    10.026621
_cell_angle_alpha                 90.763865
_cell_angle_beta                  89.995006
_cell_angle_gamma                 92.818465
_cell_volume                      2488.94776592

loop_
_atom_site_label
_atom_site_type_symbol
_atom_type_description
_atom_site_fract_x
_atom_site_fract_y
_atom_site_fract_z
_atom_type_partial_charge
C1    C     C_R   0.498976 0.260819 0.499238 0.874207
C2    C     C_R   0.968732 0.330924 0.585334 -0.106633
C3    C     C_R   0.028025 0.332956 0.585123 -0.121056
C4    C     C_R   0.059729 0.444019 0.554093 -0.029444
C5    C     C_R   0.031427 0.554514 0.524118 -0.012917
C6    C     C_R   0.063322 0.666809 0.497338 -0.067753
C7    C     C_R   0.035299 0.775592 0.464954 -0.122041
C8    C     C_R   0.975649 0.774002 0.453515 -0.033012
C9    C     C_R   0.119360 0.446905 0.549813 0.512446
C10   C     C_R   0.123063 0.666469 0.499381 0.535360
C11   C     C_R   0.238852 0.574315 0.388710 0.526726
C12   C     C_R   0.389923 0.509505 0.499799 0.888948
C13   C     C_R   0.299089 0.575178 0.385397 -0.085645
C14   C     C_R   0.328735 0.536394 0.500569 -0.228625
C15   C     C_R   0.299636 0.527401 0.622218 -0.075631
C16   C     C_R   0.241195 0.537246 0.628017 -0.069913
C17   C     C_R   0.210319 0.555301 0.511866 0.142664
C18   C     C_R   0.764171 0.450394 0.405740 0.526072
C19   C     C_R   0.704091 0.434621 0.408847 -0.155076
C20   C     C_R   0.672860 0.510254 0.498174 -0.326563
C21   C     C_R   0.701932 0.599459 0.583369 0.453194
C22   C     C_R   0.760986 0.604046 0.588223 -0.104930
C23   C     C_R   0.500296 0.738988 0.500815 0.820094
C24   C     C_R   0.792257 0.532177 0.499987 0.042741
C25   C     C_R   0.391894 0.117353 0.539859 -0.090694
C26   C     C_R   0.341351 0.045728 0.562160 -0.150013
C27   C     C_R   0.342176 0.914218 0.570599 0.473997
C28   C     C_R   0.393937 0.856193 0.553625 -0.208032
C29   C     C_R   0.445097 0.927507 0.527038 0.007613
C30   C     C_R   0.444280 0.059021 0.522240 0.040391
C31   C     C_R   0.496154 0.127815 0.497537 -0.086028
C32   C     C_R   0.547153 0.069589 0.473837 -0.181424
C33   C     C_R   0.547663 0.940688 0.475425 -0.174218
C34   C     C_R   0.610337 0.500782 0.499666 0.850170
C35   C     C_R   0.497331 0.871054 0.502771 -0.042366
C36   C     C_R   0.405891 0.387522 0.135589 0.050013
C37   C     C_R   0.353422 0.383153 0.069750 -0.258734
C38   C     C_R   0.353502 0.366036 0.932435 -0.122763
C39   C     C_R   0.406005 0.381488 0.864255 0.481080
C40   C     C_R   0.454013 0.443588 0.928013 -0.049304
C41   C     C_R   0.453971 0.444835 0.071237 -0.035434
C42   C     C_R   0.543482 0.554502 0.072773 -0.068482
C43   C     C_R   0.542995 0.558174 0.931051 0.475955
C44   C     C_R   0.882204 0.651896 0.480353 0.508499
C45   C     C_R   0.880665 0.436528 0.548183 0.548216
C46   C     C_R   0.940082 0.439206 0.551904 -0.042432
C47   C     C_R   0.971288 0.551993 0.519967 -0.010298
C48   C     C_R   0.942631 0.661139 0.483272 -0.100575
H1    H     H_    0.945445 0.243559 0.609719 0.220671
H2    H     H_    0.783097 0.668053 0.658184 0.204632
H3    H     H_    0.586621 0.124091 0.455453 0.140031
H4    H     H_    0.389345 0.218407 0.533312 0.227269
H5    H     H_    0.301573 0.092700 0.572292 0.205059
H6    H     H_    0.393679 0.755169 0.561065 0.142531
H7    H     H_    0.587355 0.894973 0.456568 0.148891
H8    H     H_    0.578756 0.600770 0.126919 0.176625
H9    H     H_    0.048866 0.247246 0.609119 0.210362
H10   H     H_    0.314903 0.355484 0.124435 0.206488
H11   H     H_    0.060187 0.861404 0.441972 0.221131
H12   H     H_    0.322179 0.512996 0.714084 0.185447
H13   H     H_    0.219439 0.527736 0.722981 0.163656
N1    N     N_R   0.853279 0.540459 0.509481 -0.343684
N2    N     N_R   0.149527 0.556628 0.521031 -0.363731
N3    N     N_R   0.499460 0.498800 0.142780 -0.150275
N4    N     N_R   0.499440 0.498720 0.857170 -0.161649
O1    O     O_R   0.500000 0.316780 0.614690 -0.575872
O2    O     O_2   0.850120 0.330630 0.582385 -0.506880
O3    O     O_2   0.147114 0.340707 0.572342 -0.530955
O4    O     O_2   0.154605 0.774127 0.477750 -0.519498
O5    O     O_R   0.500000 0.316750 0.385360 -0.644118
O6    O     O_R   0.416160 0.499970 0.614690 -0.567062
O7    O     O_R   0.416150 0.499950 0.385360 -0.636301
O8    O     O_R   0.500000 0.683250 0.614640 -0.647045
O9    O     O_R   0.500000 0.683220 0.385310 -0.612345
O10   O     O_R   0.583850 0.500050 0.614640 -0.580573
O11   O     O_R   0.583840 0.500030 0.385310 -0.631667
O12   O     O_2   0.852008 0.752477 0.450184 -0.565323
Zn1   Zn    Zn3+2 0.500000 0.500020 0.653130 0.994293
Zn2   Zn    Zn3+2 0.500000 0.499980 0.346870 0.949461
C49   C     C_2   0.674154 0.337207 0.321597 0.562405
H14   H     H_    0.631514 0.300693 0.346213 0.023620
O13   O     O_2   0.696421 0.296615 0.220759 -0.476018
O14   O     O_3   0.674447 0.686120 0.660736 -0.694975
H15   H     H_    0.639104 0.708156 0.614052 0.322602
O15   O     O_3   0.293331 0.839995 0.594336 -0.750021
H16   H     H_    0.260524 0.895083 0.603681 0.367405
C50   C     C_2   0.413151 0.274931 0.216047 0.479150
H17   H     H_    0.451369 0.222165 0.204208 0.076344
O16   O     O_2   0.374349 0.233003 0.286316 -0.607888
C51   C     C_2   0.300823 0.308741 0.869451 0.451778
H18   H     H_    0.261710 0.297937 0.927237 0.084344
O17   O     O_2   0.300166 0.272336 0.753560 -0.549987
O18   O     O_3   0.413353 0.305307 0.756384 -0.706264
H19   H     H_    0.437763 0.238069 0.788584 0.325089
O19   O     O_3   0.586591 0.627108 0.870908 -0.708106
H20   H     H_    0.571719 0.655389 0.785035 0.377924
C52   C     C_2   0.950918 0.890604 0.403612 0.504098
H21   H     H_    0.916006 0.885883 0.332578 0.134641
O20   O     O_2   0.970998 0.994348 0.438046 -0.567785
O21   O     O_3   0.209381 0.594737 0.272020 -0.689299
H22   H     H_    0.168746 0.566567 0.282490 0.330919
C53   C     C_2   0.330362 0.629857 0.268408 0.519170
H23   H     H_    0.373465 0.670630 0.279843 0.067379
O22   O     O_2   0.307952 0.634676 0.158780 -0.507739
O23   O     O_3   0.794331 0.382512 0.313037 -0.662832
H24   H     H_    0.833544 0.420669 0.304108 0.336130

loop_
_geom_bond_atom_site_label_1
_geom_bond_atom_site_label_2
_ccdc_geom_bond_type
C33   H7    S    
C50   H17   S    
O18   H19   S    
O19   H20   S    
C15   H12   S    
C19   C20   A    
O11   Zn2   S    
C25   H4    S    
C52   H21   S    
C7    C8    A    
O15   H16   S    
C2    C46   A    
C5    C47   A    
C26   C27   A    
C37   C38   A    
C18   C24   A    
C36   C37   A    
O7    Zn2   S    
C30   C31   A    
C15   C16   A    
C45   N1    A    
C1    C31   S    
C18   C19   A    
C27   O15   S    
C39   O18   S    
C42   H8    S    
C11   C17   A    
C10   N2    A    
C16   C17   A    
C45   O2    S    
C43   O19   S    
O8    Zn1   S    
C37   H10   S    
C34   O10   A    
C22   H2    S    
C20   C34   S    
C12   O7    A    
C21   C22   A    
C36   C41   A    
C53   H23   S    
C23   O8    A    
C7    H11   S    
C52   O20   D    
C36   C50   S    
C38   C39   A    
O1    Zn1   S    
C47   C48   A    
C21   O14   S    
C49   O13   D    
C39   C40   A    
C28   H6    S    
C49   H14   S    
C44   N1    A    
C25   C26   A    
C45   C46   A    
C11   O21   S    
C8    C52   S    
C8    C48   A    
C32   H3    S    
C29   C30   A    
C2    H1    S    
C51   O17   D    
O14   H15   S    
C43   N4    A    
C1    O1    A    
C53   O22   D    
C3    H9    S    
C40   C41   A    
C12   O6    A    
C12   C14   S    
C23   C35   S    
O9    Zn2   S    
C50   O16   D    
N3    Zn2   S    
C22   C24   A    
C42   C43   A    
C23   O9    A    
C3    C4    A    
C26   H5    S    
C42   N3    A    
C25   C30   A    
C38   C51   S    
C46   C47   A    
C28   C29   A    
C24   N1    S    
N4    Zn1   S    
O5    Zn2   S    
C9    N2    A    
C31   C32   A    
C4    C5    A    
C6    C10   A    
C6    C7    A    
C44   O12   S    
O23   H24   S    
C29   C35   A    
C1    O5    A    
C40   N4    A    
C32   C33   A    
C2    C3    A    
C4    C9    A    
C9    O3    S    
C17   N2    S    
C11   C13   A    
C51   H18   S    
C5    C6    A    
O21   H22   S    
C33   C35   A    
C19   C49   S    
O10   Zn1   S    
C18   O23   S    
C10   O4    S    
C20   C21   A    
C16   H13   S    
C27   C28   A    
C14   C15   A    
C41   N3    A    
C13   C53   S    
C13   C14   A    
O6    Zn1   S    
C44   C48   A    
C34   O11   A    
