data_mof_unit_30423.cif
_audit_creation_date              2012-12-11T14:42:21-0500
_audit_creation_method            fapswitch 2.2
_symmetry_space_group_name_H-M    P1
_symmetry_Int_Tables_number       1
_space_group_crystal_system       triclinic
_cell_length_a                    19.046108
_cell_length_b                    10.910932
_cell_length_c                    18.809327
_cell_angle_alpha                 89.902498
_cell_angle_beta                  90.006528
_cell_angle_gamma                 90.051212
_cell_volume                      3908.77384341

loop_
_atom_site_label
_atom_site_type_symbol
_atom_type_description
_atom_site_fract_x
_atom_site_fract_y
_atom_site_fract_z
_atom_type_partial_charge
C1    C     C_R   0.725435 0.959022 0.855278 0.536749
C2    C     C_R   0.237763 0.433296 0.930153 -0.016950
C3    C     C_R   0.262295 0.933749 0.069800 -0.017981
C4    C     C_R   0.737771 0.933268 0.930145 -0.016426
C5    C     C_R   0.821209 0.412590 0.026925 -0.059729
C6    C     C_R   0.178856 0.411978 0.973062 -0.058959
C7    C     C_R   0.321211 0.912615 0.026921 -0.059375
C8    C     C_R   0.678866 0.911898 0.973047 -0.059231
C9    C     C_R   0.816071 0.413500 0.953786 0.232595
C10   C     C_R   0.183967 0.413403 0.046185 0.232586
C11   C     C_R   0.316069 0.913523 0.953782 0.232555
C12   C     C_R   0.274605 0.959269 0.144683 0.539535
C13   C     C_R   0.683971 0.913331 0.046169 0.232442
C14   C     C_R   0.748905 0.419011 0.922381 0.013901
C15   C     C_R   0.251128 0.419286 0.077583 0.013234
C16   C     C_R   0.248902 0.919009 0.922381 0.013293
C17   C     C_R   0.751127 0.919264 0.077575 0.013440
C18   C     C_R   0.455988 0.261048 0.551926 -0.199236
C19   C     C_R   0.439046 0.265191 0.481049 -0.213392
C20   C     C_R   0.045669 0.779596 0.523425 -0.194693
C21   C     C_R   0.028455 0.777972 0.453066 -0.175584
C22   C     C_R   0.456054 0.167397 0.436848 0.028464
C23   C     C_R   0.225431 0.459031 0.855282 0.534088
C24   C     C_R   0.493629 0.161319 0.578398 0.039835
C25   C     C_R   0.012665 0.667419 0.419288 0.036854
C26   C     C_R   0.051173 0.670554 0.561383 0.032331
C27   C     C_R   0.487618 0.060029 0.464235 0.224114
C28   C     C_R   0.509237 0.059229 0.535161 0.230141
C29   C     C_R   0.023446 0.554901 0.454294 0.208113
C30   C     C_R   0.044933 0.556308 0.526299 0.212241
C31   C     C_R   0.810813 0.440401 0.547267 0.217286
C32   C     C_R   0.202816 0.323739 0.471022 0.235638
C33   C     C_R   0.317636 0.896786 0.544027 0.224420
C34   C     C_R   0.774605 0.459271 0.144682 0.545407
C35   C     C_R   0.719561 0.772908 0.479368 0.204491
C36   C     C_R   0.818061 0.456560 0.474240 -0.173344
C37   C     C_R   0.206948 0.330229 0.544266 -0.166942
C38   C     C_R   0.320898 0.901652 0.470501 -0.190632
C39   C     C_R   0.712356 0.804394 0.550907 -0.171890
C40   C     C_R   0.529428 0.177597 0.850682 0.544593
C41   C     C_R   0.470528 0.177777 0.149293 0.562025
C42   C     C_R   0.029431 0.677598 0.850683 0.558751
C43   C     C_R   0.970531 0.677776 0.149294 0.549290
C44   C     C_R   0.761342 0.434843 0.428098 0.073851
C45   C     C_R   0.696717 0.453395 0.038377 -0.146978
C46   C     C_R   0.249329 0.417448 0.576665 0.035693
C47   C     C_R   0.261994 0.934216 0.429655 0.037812
C48   C     C_R   0.753243 0.897953 0.581031 0.038229
C49   C     C_R   0.695169 0.403909 0.454450 0.235105
C50   C     C_R   0.297009 0.487803 0.535752 0.207012
C51   C     C_R   0.198767 0.964932 0.463193 0.235935
C52   C     C_R   0.809205 0.948940 0.541824 0.222455
C53   C     C_R   0.687633 0.388771 0.527815 -0.182779
C54   C     C_R   0.297296 0.473710 0.461814 -0.199780
C55   C     C_R   0.195351 0.959895 0.537505 -0.191311
C56   C     C_R   0.303334 0.453344 0.961519 -0.147939
C57   C     C_R   0.817712 0.914860 0.470439 -0.172118
C58   C     C_R   0.745592 0.403982 0.573557 0.044644
C59   C     C_R   0.250769 0.392234 0.429306 0.031393
C60   C     C_R   0.252854 0.917812 0.577283 0.035556
C61   C     C_R   0.770467 0.833298 0.437883 0.025587
C62   C     C_R   0.738445 0.366036 0.852080 0.535135
C63   C     C_R   0.261557 0.366217 0.147931 0.532358
C64   C     C_R   0.238445 0.866034 0.852080 0.531424
C65   C     C_R   0.761558 0.866211 0.147928 0.542282
C66   C     C_R   0.728808 0.952805 0.648059 0.576474
C67   C     C_R   0.196713 0.953367 0.038380 -0.147872
C68   C     C_R   0.273812 0.958783 0.354413 0.569915
C69   C     C_R   0.228636 0.454985 0.647773 0.562601
C70   C     C_R   0.773263 0.457547 0.353463 0.596877
C71   C     C_R   0.528935 0.175299 0.645514 0.573379
C72   C     C_R   0.438031 0.179458 0.362818 0.576384
C73   C     C_R   0.064034 0.680216 0.637390 0.591390
C74   C     C_R   0.972396 0.675912 0.353901 0.565531
C75   C     C_R   0.738708 0.361621 0.646056 0.594399
C76   C     C_R   0.260838 0.359141 0.354993 0.555542
C77   C     C_R   0.240225 0.865411 0.647437 0.567826
C78   C     C_R   0.803336 0.953355 0.961517 -0.147101
C79   C     C_R   0.774565 0.810364 0.360932 0.583782
C80   C     C_2   0.497504 0.169675 0.921221 -0.114182
C81   C     C_2   0.502395 0.170126 0.078724 -0.113944
C82   C     C_2   0.997515 0.669684 0.921228 -0.114061
C83   C     C_2   0.002407 0.670120 0.078731 -0.115026
C84   C     C_2   0.494291 0.069273 0.038784 -0.116548
C85   C     C_2   0.505983 0.069149 0.961502 -0.113938
C86   C     C_2   0.994291 0.569273 0.038788 -0.115207
C87   C     C_2   0.005979 0.569150 0.961505 -0.115391
C88   C     C_R   0.689728 0.443513 0.964939 -0.164963
C89   C     C_R   0.762294 0.433750 0.069800 -0.017497
C90   C     C_R   0.310315 0.443811 0.034980 -0.164615
C91   C     C_R   0.189723 0.943484 0.964942 -0.164681
C92   C     C_R   0.810313 0.943823 0.034978 -0.164963
Cr1   Cr    Cr6+3 0.769270 0.163730 0.750710 1.104693
Cr2   Cr    Cr6+3 0.385840 0.322500 0.252290 1.029380
Cr3   Cr    Cr6+3 0.114160 0.822500 0.747710 1.021288
Cr4   Cr    Cr6+3 0.885840 0.822500 0.252290 1.028215
Cr5   Cr    Cr6+3 0.230730 0.163730 0.249290 1.105991
Cr6   Cr    Cr6+3 0.269270 0.663730 0.750710 1.096379
Cr7   Cr    Cr6+3 0.730730 0.663730 0.249290 1.104445
Cr8   Cr    Cr6+3 0.612620 0.009790 0.748780 1.073519
Cr9   Cr    Cr6+3 0.387380 0.009790 0.251220 1.064114
Cr10  Cr    Cr6+3 0.112620 0.509790 0.748780 1.074190
Cr11  Cr    Cr6+3 0.887380 0.509790 0.251220 1.063449
Cr12  Cr    Cr6+3 0.614160 0.322500 0.747710 1.027072
H1    H     H_    0.522717 0.254194 0.055512 0.102632
H2    H     H_    0.171666 0.274377 0.575934 0.133558
H3    H     H_    0.370651 0.882062 0.445426 0.152704
H4    H     H_    0.671221 0.761007 0.581801 0.143656
H5    H     H_    0.597230 0.364974 0.435670 0.331066
H6    H     H_    0.371030 0.611203 0.531763 0.323093
H7    H     H_    0.101302 0.014858 0.454700 0.305148
H8    H     H_    0.888609 0.061605 0.537691 0.319755
H9    H     H_    0.637420 0.358998 0.548797 0.131352
H10   H     H_    0.334419 0.524964 0.429741 0.120469
H11   H     H_    0.146695 0.982202 0.564003 0.108915
H12   H     H_    0.476890 0.253547 0.944165 0.101966
H13   H     H_    0.859331 0.956821 0.439594 0.134228
H14   H     H_    0.637617 0.448521 0.942047 0.149005
H15   H     H_    0.362419 0.449080 0.057872 0.148673
H16   H     H_    0.137610 0.948472 0.942053 0.148896
H17   H     H_    0.862414 0.949127 0.057876 0.148984
H18   H     H_    0.651030 0.473593 0.070575 0.146288
H19   H     H_    0.349015 0.473665 0.929267 0.143609
H20   H     H_    0.151025 0.973543 0.070582 0.144863
H21   H     H_    0.849015 0.973713 0.929269 0.144966
H22   H     H_    0.872616 0.400982 0.050025 0.153260
H23   H     H_    0.022741 0.754182 0.055524 0.102513
H24   H     H_    0.127473 0.399938 0.949979 0.152978
H25   H     H_    0.372620 0.901029 0.050019 0.153103
H26   H     H_    0.627487 0.899822 0.949962 0.153080
H27   H     H_    0.869578 0.442909 0.867985 0.339128
H28   H     H_    0.130459 0.442943 0.131893 0.336160
H29   H     H_    0.369567 0.942940 0.867975 0.335186
H30   H     H_    0.630439 0.942875 0.131858 0.339927
H31   H     H_    0.444260 0.339845 0.584861 0.174552
H32   H     H_    0.414465 0.346554 0.459965 0.149110
H33   H     H_    0.050621 0.867713 0.549015 0.142607
H34   H     H_    0.976920 0.753565 0.944178 0.102072
H35   H     H_    0.020516 0.865449 0.427177 0.173452
H36   H     H_    0.500159 0.884371 0.449570 0.318642
H37   H     H_    0.581440 0.935162 0.523168 0.333541
H38   H     H_    0.985874 0.389876 0.451682 0.317507
H39   H     H_    0.063043 0.380344 0.531088 0.327402
H40   H     H_    0.907852 0.485232 0.566095 0.337201
H41   H     H_    0.119906 0.218511 0.476631 0.305668
H42   H     H_    0.416051 0.848392 0.552039 0.330290
H43   H     H_    0.642279 0.655770 0.484697 0.323892
H44   H     H_    0.478696 0.983554 0.063244 0.178042
H45   H     H_    0.521883 0.983563 0.937332 0.177975
H46   H     H_    0.978682 0.483560 0.063245 0.178581
H47   H     H_    0.021853 0.483555 0.937330 0.177698
H48   H     H_    0.868020 0.487096 0.453185 0.127569
O1    O     O_R   0.784320 0.290430 0.830510 -0.484754
O2    O     O_R   0.456080 0.282180 0.333210 -0.500933
O3    O     O_R   0.043920 0.782180 0.666790 -0.519055
O4    O     O_R   0.956080 0.782180 0.333210 -0.542523
O5    O     O_R   0.679040 0.374160 0.674430 -0.527776
O6    O     O_R   0.320960 0.374160 0.325570 -0.545987
O7    O     O_R   0.179040 0.874160 0.674430 -0.549454
O8    O     O_R   0.820960 0.874160 0.325570 -0.518691
O9    O     O_3   0.665350 0.165340 0.749070 -0.278442
O10   O     O_3   0.334650 0.165340 0.250930 -0.304350
O11   O     O_3   0.165350 0.665340 0.749070 -0.298836
O12   O     O_R   0.215680 0.290430 0.169490 -0.485204
O13   O     O_3   0.834650 0.665340 0.250930 -0.303581
O14   O     O_R   0.762640 0.040960 0.825200 -0.496583
O15   O     O_R   0.237360 0.040960 0.174800 -0.492630
O16   O     O_R   0.262640 0.540960 0.825200 -0.496279
O17   O     O_R   0.737360 0.540960 0.174800 -0.492490
O18   O     O_R   0.667400 0.923970 0.829950 -0.530235
O19   O     O_R   0.332600 0.923970 0.170050 -0.526958
O20   O     O_R   0.167400 0.423970 0.829950 -0.530913
O21   O     O_R   0.832600 0.423970 0.170050 -0.523765
O22   O     O_R   0.553960 0.081340 0.821780 -0.499803
O23   O     O_R   0.284320 0.790430 0.830510 -0.485153
O24   O     O_R   0.446040 0.081340 0.178220 -0.491691
O25   O     O_R   0.053960 0.581340 0.821780 -0.493170
O26   O     O_R   0.946040 0.581340 0.178220 -0.494549
O27   O     O_R   0.543180 0.283240 0.826740 -0.515080
O28   O     O_R   0.456820 0.283240 0.173260 -0.505810
O29   O     O_R   0.043180 0.783240 0.826740 -0.508682
O30   O     O_R   0.956820 0.783240 0.173260 -0.511463
O31   O     O_R   0.678360 0.375140 0.822710 -0.510186
O32   O     O_R   0.321640 0.375140 0.177290 -0.510007
O33   O     O_R   0.178360 0.875140 0.822710 -0.511540
O34   O     O_R   0.715680 0.790430 0.169490 -0.484357
O35   O     O_R   0.821640 0.875140 0.177290 -0.503991
O36   O     O_R   0.785050 0.289380 0.670560 -0.437134
O37   O     O_R   0.214950 0.289380 0.329440 -0.418052
O38   O     O_R   0.285050 0.789380 0.670560 -0.413709
O39   O     O_R   0.714950 0.789380 0.329440 -0.431517
O40   O     O_R   0.763320 0.039990 0.676930 -0.438783
O41   O     O_R   0.236680 0.039990 0.323070 -0.428757
O42   O     O_R   0.263320 0.539990 0.676930 -0.441737
O43   O     O_R   0.736680 0.539990 0.323070 -0.448176
O44   O     O_R   0.668130 0.922920 0.670000 -0.503688
O45   O     O_R   0.554640 0.080370 0.673500 -0.425101
O46   O     O_R   0.331870 0.922920 0.330000 -0.538320
O47   O     O_R   0.168130 0.422920 0.670000 -0.503557
O48   O     O_R   0.831870 0.422920 0.330000 -0.522995
O49   O     O_3   0.639847 0.386567 0.408026 -0.658582
O50   O     O_3   0.341663 0.570331 0.568341 -0.652029
O51   O     O_3   0.141040 0.995767 0.422625 -0.652467
O52   O     O_3   0.852673 0.035260 0.572692 -0.658049
O53   O     O_3   0.877335 0.404176 0.915046 -0.697429
O54   O     O_3   0.122697 0.404048 0.084946 -0.697886
O55   O     O_3   0.377332 0.904220 0.915038 -0.698492
O56   O     O_R   0.445360 0.080370 0.326500 -0.421698
O57   O     O_3   0.622696 0.903941 0.084920 -0.697493
O58   O     O_3   0.500245 0.960359 0.420670 -0.670655
O59   O     O_3   0.549816 0.964330 0.561376 -0.680449
O60   O     O_3   0.009649 0.447074 0.418569 -0.664786
O61   O     O_3   0.057208 0.449706 0.564008 -0.678276
O62   O     O_3   0.866154 0.458616 0.593558 -0.660082
O63   O     O_3   0.151771 0.251694 0.439684 -0.615708
O64   O     O_3   0.376356 0.868188 0.584060 -0.644288
O65   O     O_3   0.675845 0.686871 0.448611 -0.657527
O66   O     O_R   0.054640 0.580370 0.673500 -0.418202
O67   O     O_R   0.945360 0.580370 0.326500 -0.449590
O68   O     O_R   0.543920 0.282180 0.666790 -0.539285

loop_
_geom_bond_atom_site_label_1
_geom_bond_atom_site_label_2
_ccdc_geom_bond_type
C44   C49   A    
H40   O62   S    
C65   O35   A    
C43   O26   A    
H28   O54   S    
C8    C13   A    
C87   H47   S    
C43   C83   S    
C41   O28   A    
C75   O36   A    
C42   C82   S    
H38   O60   S    
Cr12  O5    S    
C4    C8    A    
C67   H20   S    
C12   O15   A    
Cr6   O11   S    
H36   O58   S    
C72   O56   A    
C31   O62   S    
C28   O59   S    
C7    C11   A    
C76   O6    A    
C29   C30   A    
H5    O49   S    
C11   O55   S    
C18   C24   A    
C77   O38   A    
C31   C58   A    
C27   C28   A    
Cr9   O10   S    
C18   C19   A    
C3    C7    A    
C10   C15   A    
C86   H46   S    
Cr12  O27   S    
C42   O25   A    
C82   C87   D    
C14   C62   S    
Cr7   O43   S    
C1    O18   A    
Cr11  O21   S    
C26   C73   S    
Cr4   O30   S    
Cr6   O42   S    
C68   O46   A    
C25   C74   S    
Cr5   O41   S    
C38   H3    S    
Cr12  O68   S    
C46   C69   S    
C21   C25   A    
C76   O37   A    
C62   O31   A    
H41   O63   S    
C32   O63   S    
C23   O20   A    
C80   H12   S    
C53   H9    S    
Cr10  O11   S    
C66   O40   A    
C5    H22   S    
C40   C80   S    
C44   C70   S    
C68   O41   A    
C3    C12   S    
C5    C89   A    
C45   C89   A    
H37   O59   S    
C31   C36   A    
Cr3   O3    S    
C64   O33   A    
Cr6   O38   S    
H39   O61   S    
Cr8   O45   S    
C75   O5    A    
C46   C50   A    
C50   O50   S    
Cr2   O6    S    
H30   O57   S    
C79   O39   A    
C55   C60   A    
C25   C29   A    
Cr4   O35   S    
C2    C6    A    
C17   C92   A    
Cr2   O32   S    
C35   O65   S    
C22   C72   S    
C33   O64   S    
C51   O51   S    
C58   C75   S    
C71   O45   A    
C12   O19   A    
C49   O49   S    
C54   C59   A    
Cr8   O44   S    
C42   O29   A    
Cr10  O20   S    
C39   H4    S    
C81   H1    S    
C60   C77   S    
C72   O2    A    
Cr8   O18   S    
C56   H19   S    
C13   O57   S    
C19   C22   A    
C84   C85   S    
H7    O51   S    
Cr12  O9    S    
Cr9   O46   S    
C70   O43   A    
C36   H48   S    
C78   C92   A    
C19   H32   S    
Cr5   O15   S    
C27   O58   S    
C71   O68   A    
C52   O52   S    
C20   H33   S    
C74   O67   A    
C84   H44   S    
C35   C39   A    
C9    C14   A    
C5    C9    A    
C80   C85   D    
H43   O65   S    
Cr9   O56   S    
Cr3   O11   S    
C40   O27   A    
C11   C16   A    
C66   O44   A    
C9    O53   S    
Cr1   O9    S    
Cr2   O2    S    
Cr5   O12   S    
C41   C81   S    
C63   O12   A    
C73   O3    A    
Cr3   O29   S    
C67   C91   A    
C74   O4    A    
C18   H31   S    
C35   C61   A    
C50   C54   A    
C32   C37   A    
C64   O23   A    
C57   C61   A    
C15   C63   S    
C38   C47   A    
Cr8   O9    S    
C34   O17   A    
C77   O7    A    
C45   C88   A    
Cr4   O8    S    
C41   O24   A    
Cr1   O14   S    
Cr11  O13   S    
C33   C60   A    
C22   C27   A    
C8    H26   S    
Cr3   O7    S    
C36   C44   A    
H29   O55   S    
C21   H35   S    
C88   H14   S    
H27   O53   S    
C47   C68   S    
C79   O8    A    
C81   C84   D    
Cr3   O33   S    
C29   O60   S    
C57   H13   S    
Cr12  O31   S    
Cr1   O40   S    
Cr2   O10   S    
C65   O34   A    
C70   O48   A    
C63   O32   A    
C86   C87   S    
C3    C67   A    
C24   C28   A    
C83   H23   S    
C20   C26   A    
C6    C10   A    
C47   C51   A    
C53   C58   A    
C26   C30   A    
Cr7   O17   S    
C45   H18   S    
C4    C78   A    
C85   H45   S    
Cr2   O28   S    
C43   O30   A    
C17   C65   S    
C33   C38   A    
Cr4   O13   S    
C62   O1    A    
C13   C17   A    
H6    O50   S    
Cr11  O26   S    
Cr5   O37   S    
C90   H15   S    
C1    C4    S    
Cr1   O1    S    
C10   O54   S    
C34   C89   S    
C14   C88   A    
C37   H2    S    
C82   H34   S    
C34   O21   A    
C2    C56   A    
Cr10  O47   S    
C30   O61   S    
Cr7   O39   S    
Cr6   O23   S    
C15   C90   A    
Cr4   O4    S    
C55   H11   S    
C1    O14   A    
C61   C79   S    
C49   C53   A    
C54   H10   S    
C56   C90   A    
C69   O42   A    
C73   O66   A    
Cr9   O19   S    
C51   C55   A    
Cr11  O48   S    
H42   O64   S    
C7    H25   S    
C52   C57   A    
Cr10  O66   S    
C6    H24   S    
C23   O16   A    
Cr1   O36   S    
C48   C52   A    
C83   C86   D    
C20   C21   A    
C40   O22   A    
C16   C91   A    
Cr5   O10   S    
C2    C23   S    
C69   O47   A    
Cr10  O25   S    
H8    O52   S    
C91   H16   S    
Cr9   O24   S    
Cr8   O22   S    
C16   C64   S    
C32   C59   A    
C48   C66   S    
C37   C46   A    
C92   H17   S    
C78   H21   S    
C59   C76   S    
Cr7   O34   S    
Cr6   O16   S    
C24   C71   S    
Cr11  O67   S    
C39   C48   A    
Cr7   O13   S    
