data_mof_unit_39552.cif
_audit_creation_date              2012-12-11T17:09:34-0500
_audit_creation_method            fapswitch 2.2
_symmetry_space_group_name_H-M    P1
_symmetry_Int_Tables_number       1
_space_group_crystal_system       triclinic
_cell_length_a                    14.816291
_cell_length_b                    6.97005
_cell_length_c                    13.495041
_cell_angle_alpha                 90.232742
_cell_angle_beta                  99.881563
_cell_angle_gamma                 89.705385
_cell_volume                      1372.93632362

loop_
_atom_site_label
_atom_site_type_symbol
_atom_type_description
_atom_site_fract_x
_atom_site_fract_y
_atom_site_fract_z
_atom_type_partial_charge
O1    O     O_R   0.586930 0.505770 0.416350 -0.540729
O2    O     O_R   0.413070 0.005770 0.583650 -0.536365
O3    O     O_R   0.397900 0.173100 0.389630 -0.535332
O4    O     O_R   0.602100 0.673100 0.610370 -0.536402
C1    C     C_R   0.364391 0.345447 0.362928 0.725612
C2    C     C_R   0.635627 0.845295 0.637045 0.722287
O5    O     O_R   0.585280 0.175870 0.404330 -0.542052
O6    O     O_R   0.414720 0.675870 0.595670 -0.545065
O7    O     O_R   0.601790 0.008380 0.598460 -0.533430
O8    O     O_R   0.398210 0.508380 0.401540 -0.534040
C3    C     C_R   0.614283 0.344369 0.382449 0.695398
C4    C     C_R   0.385980 0.845601 0.617682 0.702649
O9    O     O_3   0.505200 0.340120 0.563670 -0.370758
O10   O     O_3   0.494800 0.840120 0.436330 -0.370261
V1    V     V_3+5 0.499040 0.064180 0.488190 1.402492
V2    V     V_3+5 0.500960 0.564180 0.511810 1.399167
C5    C     C_R   0.258216 0.014788 0.684236 0.054566
C6    C     C_R   0.684082 0.509895 0.248163 0.076214
C7    C     C_R   0.316322 0.856156 0.684428 -0.102845
C8    C     C_R   0.680477 0.352353 0.311455 -0.130989
C9    C     C_R   0.307044 0.708056 0.751463 -0.202304
C10   C     C_R   0.744408 0.203824 0.307476 -0.186452
H1    H     H_    0.354564 0.591159 0.756769 0.152296
H2    H     H_    0.745083 0.081943 0.356670 0.136703
C11   C     C_R   0.241913 0.718004 0.816172 -0.181817
C12   C     C_R   0.810214 0.215567 0.243523 -0.188530
H3    H     H_    0.240479 0.604841 0.870493 0.133559
H4    H     H_    0.859665 0.102286 0.242746 0.147199
C13   C     C_R   0.181273 0.875269 0.812711 -0.123787
C14   C     C_R   0.817034 0.379250 0.185312 -0.097459
C15   C     C_R   0.188348 0.019396 0.742440 0.074270
C16   C     C_R   0.754081 0.527182 0.190890 0.053879
C17   C     C_3   0.199600 0.228480 0.762954 -0.030063
C18   C     C_3   0.772521 0.729715 0.226146 -0.028460
C19   C     C_3   0.284261 0.217981 0.712737 -0.019084
C20   C     C_3   0.687989 0.716376 0.276531 -0.035289
H5    H     H_    0.213369 0.265211 0.844424 0.151729
H6    H     H_    0.766497 0.834142 0.163273 0.151583
H7    H     H_    0.282012 0.314282 0.646807 0.150189
H8    H     H_    0.700967 0.742300 0.359158 0.156662
C21   C     C_1   0.783528 0.877255 0.782835 -0.190770
C22   C     C_1   0.216492 0.377080 0.217119 -0.191113
C23   C     C_1   0.716190 0.859987 0.716750 -0.187892
C24   C     C_1   0.283843 0.360170 0.283224 -0.188795
O11   O     O_R   0.101720 0.231700 0.098560 -0.535639
O12   O     O_R   0.898280 0.731700 0.901440 -0.534328
O13   O     O_R   0.914700 0.558980 0.095690 -0.540918
O14   O     O_R   0.085300 0.058980 0.904310 -0.544012
C25   C     C_R   0.886185 0.390324 0.118028 0.698313
C26   C     C_R   0.114602 0.889232 0.882909 0.698589
O15   O     O_R   0.102080 0.561590 0.110390 -0.537292
O16   O     O_R   0.897920 0.061590 0.889610 -0.536363
O17   O     O_R   0.086950 0.728940 0.916330 -0.538259
O18   O     O_R   0.913050 0.228940 0.083670 -0.541265
C27   C     C_R   0.135959 0.391885 0.137398 0.728196
C28   C     C_R   0.864060 0.892033 0.862580 0.734526
O19   O     O_3   0.994770 0.394510 0.936380 -0.370389
O20   O     O_3   0.005230 0.894510 0.063620 -0.371353
V3    V     V_3+5 0.000970 0.670520 0.011800 1.404775
V4    V     V_3+5 0.999030 0.170520 0.988200 1.402449
C29   C     C_3   0.118704 0.339501 0.702559 -0.788506
H9    H     H_    0.099694 0.281138 0.624988 0.202161
H10   H     H_    0.058352 0.329366 0.740915 0.229019
H11   H     H_    0.135817 0.492418 0.695957 0.225928
C30   C     C_3   0.862510 0.743016 0.303197 -0.804363
H12   H     H_    0.874126 0.612503 0.350886 0.220660
H13   H     H_    0.921491 0.760686 0.263366 0.225124
H14   H     H_    0.861065 0.865361 0.355341 0.195262
C31   C     C_3   0.374770 0.226376 0.789672 -0.792560
H15   H     H_    0.432920 0.255596 0.749993 0.225490
H16   H     H_    0.372104 0.338493 0.847536 0.189754
H17   H     H_    0.389037 0.090469 0.832360 0.218151
C32   C     C_3   0.602943 0.820759 0.220467 -0.763784
H18   H     H_    0.541263 0.772667 0.249756 0.225750
H19   H     H_    0.609159 0.977477 0.231376 0.222489
H20   H     H_    0.592579 0.790462 0.138332 0.196027

loop_
_geom_bond_atom_site_label_1
_geom_bond_atom_site_label_2
_ccdc_geom_bond_type
O11   V4    S    
O12   V3    S    
C31   H17   S    
C32   H19   S    
C32   H18   S    
O1    C3    A    
O2    C4    A    
C2    O7    A    
O17   V3    S    
O13   C25   A    
O18   V4    S    
O5    C3    A    
C10   H2    S    
C7    C9    A    
O19   V3    S    
O20   V4    S    
C25   O18   A    
C31   H16   S    
C29   H10   S    
O16   V4    S    
C5    C7    A    
C30   H13   S    
C15   C17   S    
C6    C8    A    
O14   C26   A    
O6    V2    S    
C21   C23   T    
C29   H9    S    
C22   C24   T    
C18   C30   S    
O14   V4    S    
C13   C26   S    
C11   C13   A    
C3    C8    S    
C26   O17   A    
C20   H8    S    
O4    C2    A    
O19   V4    S    
O15   C27   A    
O20   V3    S    
C17   H5    S    
C16   C18   S    
O4    V2    S    
C29   H11   S    
C19   H7    S    
C21   C28   S    
C22   C27   S    
O6    C4    A    
C30   H14   S    
O1    V2    S    
O2    V1    S    
O11   C27   A    
C1    C24   S    
C8    C10   A    
C12   C14   A    
C2    C23   S    
O9    V1    S    
C5    C15   A    
C32   H20   S    
O10   V2    S    
C6    C16   A    
O3    V1    S    
C9    C11   A    
C18   H6    S    
C14   C25   S    
O3    C1    A    
C11   H3    S    
C12   H4    S    
C9    H1    S    
O7    V1    S    
C1    O8    A    
C13   C15   A    
O8    V2    S    
C14   C16   A    
C4    C7    S    
O5    V1    S    
C17   C19   S    
C18   C20   S    
C31   H15   S    
C20   C32   S    
O13   V3    S    
O15   V3    S    
C19   C31   S    
C17   C29   S    
C30   H12   S    
C10   C12   A    
O9    V2    S    
O12   C28   A    
O10   V1    S    
C5    C19   S    
C6    C20   S    
O16   C28   A    
