data_mof_unit_47624.cif
_audit_creation_date              2013-03-05T16:02:24-0500
_audit_creation_method            fapswitch 2.2
_symmetry_space_group_name_H-M    P1
_symmetry_Int_Tables_number       1
_space_group_crystal_system       triclinic
_cell_length_a                    15.014089
_cell_length_b                    14.093526
_cell_length_c                    10.610325
_cell_angle_alpha                 90.014681
_cell_angle_beta                  88.753154
_cell_angle_gamma                 89.977429
_cell_volume                      2244.62834659

loop_
_atom_site_label
_atom_site_type_symbol
_atom_site_description
_atom_site_fract_x
_atom_site_fract_y
_atom_site_fract_z
_atom_type_partial_charge
O1    O     O_R   0.367860 0.580280 0.500020 -0.626601
O2    O     O_R   0.367860 0.419720 0.500020 -0.627077
C1    C     C_R   0.326654 0.500015 0.499804 0.873715
O3    O     O_R   0.500000 0.580270 0.314790 -0.630945
O4    O     O_R   0.500000 0.419730 0.314790 -0.630438
C2    C     C_R   0.495006 0.499994 0.258064 0.831696
Zn1   Zn    Zn3+2 0.500020 0.607200 0.499990 0.943414
Zn2   Zn    Zn3+2 0.500020 0.392800 0.499990 0.947355
O5    O     O_R   0.632160 0.580270 0.499960 -0.647970
O6    O     O_R   0.632160 0.419730 0.499960 -0.642873
O7    O     O_R   0.500030 0.580270 0.685200 -0.625245
O8    O     O_R   0.500030 0.419730 0.685200 -0.623133
C3    C     C_R   0.673397 0.499984 0.499244 0.886132
C4    C     C_R   0.495556 0.500008 0.742234 0.840566
C5    C     C_3   0.442351 0.589041 0.073649 -0.374574
C6    C     C_3   0.442580 0.410846 0.073575 -0.374543
H1    H     H_    0.474354 0.655239 0.106784 0.241582
H2    H     H_    0.474756 0.344716 0.106654 0.242192
H3    H     H_    0.372350 0.589234 0.110522 0.164236
H4    H     H_    0.372578 0.410508 0.110441 0.164426
C7    C     C_3   0.443183 0.589386 0.929469 -0.399175
C8    C     C_3   0.443423 0.410515 0.929402 -0.398717
H5    H     H_    0.373589 0.590549 0.895325 0.163759
H6    H     H_    0.373835 0.409192 0.895249 0.163427
H7    H     H_    0.476676 0.655351 0.895409 0.202638
H8    H     H_    0.477100 0.344625 0.895299 0.203817
H9    H     H_    0.625404 0.563844 0.103776 0.194329
H10   H     H_    0.625543 0.436370 0.103683 0.192372
H11   H     H_    0.625856 0.563910 0.889364 0.184218
H12   H     H_    0.626037 0.436418 0.889269 0.187709
C9    C     C_3   0.589348 0.500085 0.069660 -0.387418
C10   C     C_3   0.492288 0.499989 0.121648 0.152222
C11   C     C_3   0.492839 0.500009 0.878752 0.155954
C12   C     C_3   0.589689 0.500115 0.925322 -0.376461
C13   C     C_R   0.814954 0.586109 0.496386 -0.189201
C14   C     C_R   0.769373 0.499954 0.496891 -0.113382
C15   C     C_R   0.814996 0.413783 0.494712 -0.187159
C16   C     C_R   0.907320 0.412205 0.497376 0.007834
C17   C     C_R   0.953660 0.499928 0.493900 -0.010542
C18   C     C_R   0.907337 0.587638 0.490699 0.009111
C19   C     C_R   0.954532 0.325329 0.500950 0.300296
C20   C     C_R   0.047282 0.326959 0.498318 -0.269348
C21   C     C_R   0.092963 0.413151 0.496339 0.064600
C22   C     C_R   0.046395 0.499959 0.494327 0.069960
C23   C     C_R   0.092910 0.586802 0.493410 0.064790
C24   C     C_R   0.047225 0.672949 0.489465 -0.272089
C25   C     C_R   0.954564 0.674509 0.485727 0.303311
C26   C     C_R   0.185071 0.413759 0.497963 -0.223552
C27   C     C_R   0.230828 0.500026 0.497974 -0.080834
C28   C     C_R   0.185024 0.586263 0.495466 -0.223465
H13   H     H_    0.777812 0.651760 0.501721 0.197741
H14   H     H_    0.777913 0.348171 0.490870 0.195835
H15   H     H_    0.083803 0.260621 0.501410 0.189421
H16   H     H_    0.220941 0.346957 0.499844 0.166763
H17   H     H_    0.220879 0.653079 0.494882 0.167082
H18   H     H_    0.083811 0.739269 0.486341 0.189982
C29   C     C_R   0.551365 0.798245 0.412181 0.067420
C30   C     C_R   0.551176 0.201664 0.411951 0.079049
N1    N     N_R   0.500070 0.750030 0.500050 -0.142848
N2    N     N_R   0.500070 0.249970 0.500050 -0.141091
C31   C     C_R   0.448652 0.798541 0.586516 -0.072907
C32   C     C_R   0.448753 0.201531 0.586631 -0.071066
C33   C     C_R   0.447040 0.898986 0.587991 0.025694
C34   C     C_R   0.447085 0.101087 0.588040 0.025683
C35   C     C_R   0.500350 0.949432 0.500250 0.071595
C36   C     C_R   0.500347 0.050556 0.500246 0.071848
C37   C     C_R   0.554163 0.898974 0.412874 -0.000805
C38   C     C_R   0.554093 0.100926 0.412786 0.001495
C39   C     C_R   0.394053 0.950114 0.675437 -0.176084
C40   C     C_R   0.394088 0.050041 0.675476 -0.175719
C41   C     C_R   0.611212 0.049245 0.331111 -0.134396
C42   C     C_R   0.611240 0.950558 0.331145 -0.125008
H19   H     H_    0.408439 0.758834 0.654024 0.136238
H20   H     H_    0.408619 0.241295 0.654235 0.135395
H21   H     H_    0.352620 0.912822 0.744022 0.149254
H22   H     H_    0.352683 0.087396 0.744093 0.148994
H23   H     H_    0.657896 0.084124 0.267495 0.199296
H24   H     H_    0.657896 0.915589 0.267500 0.205739
N3    N     N_R   0.910161 0.764387 0.474121 0.206115
O9    O     O_R   0.853458 0.777582 0.384734 -0.401491
O10   O     O_R   0.938421 0.837580 0.536439 -0.339317
C43   C     C_2   0.601952 0.745074 0.314088 0.444216
H25   H     H_    0.648547 0.690393 0.338612 0.111693
O11   O     O_2   0.592217 0.763118 0.202710 -0.612654
C44   C     C_2   0.601263 0.254753 0.313323 0.417850
H26   H     H_    0.646883 0.310474 0.337232 0.100686
O12   O     O_2   0.591942 0.235755 0.202126 -0.611893
N4    N     N_R   0.909951 0.235316 0.510589 0.201098
O13   O     O_R   0.851990 0.220304 0.601369 -0.376720
O14   O     O_R   0.939423 0.163391 0.445005 -0.345104

loop_
_geom_bond_atom_site_label_1
_geom_bond_atom_site_label_2
_geom_bond_distance
_ccdc_geom_bond_type
C18   C25   1.415486 A    
C36   C38   1.408704 A    
C33   C35   1.407536 A    
C19   C20   1.392431 A    
C2    C10   1.448881 S    
C13   C14   1.394002 A    
C25   N3    1.437747 S    
C4    C11   1.448184 S    
C1    C27   1.439292 S    
C5    C10   1.553336 S    
C23   C24   1.395325 A    
C5    H3    1.113450 S    
C14   C15   1.394020 A    
C20   H15   1.084536 S    
C16   C17   1.418992 A    
O7    C4    1.284093 A    
C29   N1    1.376080 A    
C7    C11   1.553548 S    
C30   N2    1.376260 A    
N2    C32   1.368773 A    
C37   C42   1.408320 A    
C31   C33   1.415894 A    
O5    C3    1.289558 A    
C32   C34   1.415923 A    
C33   C39   1.407144 A    
C35   C37   1.408762 A    
C42   H24   1.081008 S    
C34   C40   1.407135 A    
C21   C26   1.383431 A    
C6    H4    1.113455 S    
C29   C37   1.420282 A    
O3    Zn1   2.001262 S    
Zn1   N1    2.012979 S    
Zn1   O7    2.001553 S    
C44   O12   1.220795 D    
N1    C31   1.368771 A    
H12   C12   1.113725 S    
H9    C9    1.113685 S    
C16   C19   1.415455 A    
O3    C2    1.284354 A    
C17   C18   1.418897 A    
N3    O10   1.301350 A    
C15   H14   1.080779 S    
C31   H19   1.082778 S    
C44   H26   1.076150 S    
H11   C12   1.113715 S    
O1    C1    1.289573 A    
C34   C36   1.407556 A    
C26   H16   1.084841 S    
C21   C22   1.409278 A    
C15   C16   1.387234 A    
C9    C10   1.546905 S    
Zn2   O8    2.001362 S    
C11   C12   1.545923 S    
C9    C12   1.531375 S    
C6    H2    1.110135 S    
C3    C14   1.440659 S    
C30   C38   1.420446 A    
C26   C27   1.396708 A    
O8    C4    1.283986 A    
C43   H25   1.076389 S    
C43   O11   1.220749 D    
C7    H5    1.113453 S    
C13   H13   1.080957 S    
C8    H6    1.113451 S    
C20   C21   1.395179 A    
C30   C44   1.478867 S    
C41   H23   1.080923 S    
C22   C23   1.409332 A    
C13   C18   1.387225 A    
C5    H1    1.110168 S    
C19   N4    1.437220 S    
C7    H7    1.113736 S    
C24   C25   1.392809 A    
C6    C8    1.529504 S    
O1    Zn1   2.020349 S    
H10   C9    1.113694 S    
O2    Zn2   2.020055 S    
N4    O14   1.301323 A    
O6    C3    1.289590 A    
O4    Zn2   2.001453 S    
C17   C22   1.392442 A    
C6    C10   1.553236 S    
C28   H17   1.084828 S    
O2    C1    1.289531 A    
C41   C42   1.390852 A    
Zn2   N2    2.012980 S    
C40   H22   1.083291 S    
O4    C2    1.284426 A    
C23   C28   1.383671 A    
C38   C41   1.408472 A    
C39   H21   1.083288 S    
C35   C36   1.425187 A    
C39   C40   1.408327 A    
N3    O9    1.301527 A    
Zn1   O5    2.019784 S    
C5    C7    1.529584 S    
N4    O13   1.301391 A    
Zn2   O6    2.020078 S    
C27   C28   1.396775 A    
C8    H8    1.113745 S    
C24   H18   1.084492 S    
C29   C43   1.478652 S    
C32   H20   1.082781 S    
C8    C11   1.553659 S    
