data_mof_unit_51148.cif
_audit_creation_date              2012-12-11T14:29:57-0500
_audit_creation_method            fapswitch 2.2
_symmetry_space_group_name_H-M    P1
_symmetry_Int_Tables_number       1
_space_group_crystal_system       triclinic
_cell_length_a                    12.637138
_cell_length_b                    12.63711
_cell_length_c                    27.110719
_cell_angle_alpha                 89.999884
_cell_angle_beta                  89.999803
_cell_angle_gamma                 120.000072
_cell_volume                      3749.4524139

loop_
_atom_site_label
_atom_site_type_symbol
_atom_type_description
_atom_site_fract_x
_atom_site_fract_y
_atom_site_fract_z
_atom_type_partial_charge
C1    C     C_R   0.557995 0.456423 0.822290 0.566190
C2    C     C_R   0.456423 0.557994 0.177711 0.566229
C3    C     C_R   0.003197 0.312450 0.474613 -0.041385
C4    C     C_R   0.309945 0.998098 0.025535 -0.041297
C5    C     C_R   0.687573 0.690725 0.474604 -0.041390
C6    C     C_R   0.311259 0.000640 0.525678 -0.041197
C7    C     C_R   0.998026 0.309906 0.974473 -0.041304
C8    C     C_R   0.689421 0.688709 0.525667 -0.041206
C9    C     C_R   0.311876 0.001966 0.974473 -0.041302
C10   C     C_R   0.999340 0.310608 0.525676 -0.041188
C11   C     C_R   0.690090 0.688122 0.974472 -0.041301
C12   C     C_R   0.441974 0.898396 0.322300 0.566148
C13   C     C_R   0.101571 0.543577 0.177711 0.566228
C14   C     C_R   0.994377 0.500927 0.974119 -0.124723
C15   C     C_R   0.506409 0.005280 0.525936 -0.124712
C16   C     C_R   0.499071 0.493453 0.974119 -0.124725
C17   C     C_R   0.994719 0.501128 0.525935 -0.124714
C18   C     C_R   0.506546 0.005615 0.974118 -0.124723
C19   C     C_R   0.498889 0.493574 0.525930 -0.124711
C20   C     C_R   0.500738 0.994064 0.474171 -0.124737
C21   C     C_R   0.898463 0.442037 0.677721 0.566274
C22   C     C_R   0.005597 0.506540 0.025885 -0.124722
C23   C     C_R   0.493340 0.499242 0.474165 -0.124734
C24   C     C_R   0.500938 0.994396 0.025884 -0.124722
C25   C     C_R   0.005932 0.506672 0.474170 -0.124737
C26   C     C_R   0.493459 0.499061 0.025884 -0.124724
C27   C     C_R   0.992360 0.692395 0.974370 0.418878
C28   C     C_R   0.700403 0.008337 0.525587 0.418869
C29   C     C_R   0.307605 0.299970 0.974370 0.418882
C30   C     C_R   0.991684 0.692077 0.525589 0.418844
C31   C     C_R   0.700029 0.007631 0.974368 0.418878
C32   C     C_R   0.543577 0.101573 0.822290 0.566187
C33   C     C_R   0.307930 0.299597 0.525587 0.418863
C34   C     C_R   0.692700 0.993028 0.474329 0.418911
C35   C     C_R   0.007669 0.700050 0.025629 0.418878
C36   C     C_R   0.300321 0.307297 0.474328 0.418904
C37   C     C_R   0.692376 0.992323 0.025628 0.418877
C38   C     C_R   0.006985 0.699678 0.474329 0.418882
C39   C     C_R   0.299949 0.307624 0.025629 0.418882
C40   C     C_R   0.963049 0.579412 0.896833 0.366136
C41   C     C_R   0.616549 0.037173 0.603167 0.366003
C42   C     C_R   0.420586 0.383640 0.896833 0.366138
C43   C     C_R   0.557967 0.456423 0.677720 0.566276
C44   C     C_R   0.962839 0.579382 0.603168 0.366022
C45   C     C_R   0.616359 0.036943 0.896832 0.366137
C46   C     C_R   0.420629 0.383452 0.603165 0.366009
C47   C     C_R   0.579447 0.963271 0.396832 0.366254
C48   C     C_R   0.036957 0.616370 0.103168 0.366134
C49   C     C_R   0.383818 0.420547 0.396830 0.366252
C50   C     C_R   0.579411 0.963038 0.103167 0.366133
C51   C     C_R   0.036731 0.616177 0.396832 0.366258
C52   C     C_R   0.383629 0.420590 0.103168 0.366136
C53   C     C_R   0.045279 0.522854 0.128209 -0.014508
C54   C     C_R   0.898426 0.442004 0.822290 0.566189
C55   C     C_R   0.477393 0.954549 0.371833 -0.014625
C56   C     C_R   0.477146 0.522425 0.128208 -0.014504
C57   C     C_R   0.045445 0.522842 0.371832 -0.014627
C58   C     C_R   0.477574 0.954720 0.128208 -0.014508
C59   C     C_R   0.477157 0.522592 0.371829 -0.014625
C60   C     C_R   0.522857 0.045107 0.628249 -0.014366
C61   C     C_R   0.954709 0.477564 0.871794 -0.014507
C62   C     C_R   0.522266 0.477137 0.628244 -0.014376
C63   C     C_R   0.522853 0.045287 0.871793 -0.014508
C64   C     C_R   0.954895 0.477751 0.628248 -0.014369
C65   C     C_R   0.543575 0.101538 0.677721 0.566271
C66   C     C_R   0.522434 0.477147 0.871794 -0.014504
C67   C     C_R   0.984886 0.592674 0.948089 -0.044681
C68   C     C_R   0.607926 0.015293 0.551916 -0.044634
C69   C     C_R   0.407325 0.392215 0.948089 -0.044680
C70   C     C_R   0.984717 0.592639 0.551916 -0.044629
C71   C     C_R   0.607784 0.015106 0.948088 -0.044681
C72   C     C_R   0.407374 0.392068 0.551913 -0.044638
C73   C     C_R   0.592712 0.985066 0.448093 -0.044738
C74   C     C_R   0.015116 0.607792 0.051912 -0.044681
C75   C     C_R   0.392355 0.407277 0.448090 -0.044738
C76   C     C_R   0.456422 0.558022 0.322299 0.566145
C77   C     C_R   0.592672 0.984877 0.051911 -0.044681
C78   C     C_R   0.014936 0.607647 0.448093 -0.044729
C79   C     C_R   0.392207 0.407328 0.051912 -0.044680
C80   C     C_R   0.979750 0.395568 0.897496 0.349652
C81   C     C_R   0.415596 0.019524 0.602608 0.349846
C82   C     C_R   0.604429 0.584183 0.897495 0.349653
C83   C     C_R   0.980468 0.396067 0.602607 0.349849
C84   C     C_R   0.415816 0.020245 0.897495 0.349651
C85   C     C_R   0.603965 0.584385 0.602599 0.349835
C86   C     C_R   0.395109 0.979090 0.397591 0.349479
C87   C     C_R   0.442006 0.898428 0.177711 0.566226
C88   C     C_R   0.020210 0.415806 0.102511 0.349661
C89   C     C_R   0.583996 0.604860 0.397583 0.349485
C90   C     C_R   0.395596 0.979790 0.102510 0.349661
C91   C     C_R   0.020894 0.416012 0.397589 0.349491
C92   C     C_R   0.584193 0.604404 0.102510 0.349662
C93   C     C_R   0.992577 0.402872 0.948506 0.005095
C94   C     C_R   0.409963 0.006603 0.551599 0.005186
C95   C     C_R   0.597125 0.589708 0.948505 0.005094
C96   C     C_R   0.993387 0.403355 0.551598 0.005185
C97   C     C_R   0.410291 0.007416 0.948505 0.005095
C98   C     C_R   0.101603 0.543577 0.322300 0.566149
C99   C     C_R   0.596673 0.590013 0.551590 0.005187
C100  C     C_R   0.402420 0.991821 0.448603 0.005024
C101  C     C_R   0.007373 0.410275 0.051501 0.005100
C102  C     C_R   0.589423 0.597550 0.448595 0.005031
C103  C     C_R   0.402899 0.992622 0.051500 0.005099
C104  C     C_R   0.008164 0.410591 0.448602 0.005021
C105  C     C_R   0.589724 0.597100 0.051500 0.005098
C106  C     C_R   0.001896 0.311843 0.025536 -0.041295
C107  C     C_R   0.309241 0.996780 0.474615 -0.041397
C108  C     C_R   0.688154 0.690054 0.025534 -0.041296
Cr1   Cr    Cr6+3 0.487630 0.241180 0.750000 1.250250
Cr2   Cr    Cr6+3 0.753550 0.512370 0.750000 1.250251
Cr3   Cr    Cr6+3 0.758820 0.246450 0.750000 1.250249
Cr4   Cr    Cr6+3 0.241180 0.487630 0.250000 1.250284
Cr5   Cr    Cr6+3 0.512370 0.753550 0.250000 1.250284
Cr6   Cr    Cr6+3 0.246450 0.758820 0.250000 1.250285
F1    F     F_    0.055649 0.717479 0.128195 -0.476988
F2    F     F_    0.717455 0.055610 0.871801 -0.476996
F3    F     F_    0.943686 0.661558 0.628146 -0.477212
F4    F     F_    0.338159 0.282544 0.871802 -0.476998
F5    F     F_    0.013804 0.797603 0.049332 -0.493400
F6    F     F_    0.784365 0.987448 0.450577 -0.493049
F7    F     F_    0.202397 0.216207 0.049332 -0.493399
F8    F     F_    0.012568 0.796925 0.450578 -0.493077
F9    F     F_    0.783794 0.986188 0.049330 -0.493402
F10   F     F_    0.203066 0.215637 0.450579 -0.493051
F11   F     F_    0.798246 0.014999 0.549244 -0.493717
F12   F     F_    0.662115 0.945069 0.371752 -0.476784
F13   F     F_    0.986256 0.783826 0.950664 -0.493387
F14   F     F_    0.216741 0.201763 0.549246 -0.493708
F15   F     F_    0.797564 0.013735 0.950662 -0.493387
F16   F     F_    0.985041 0.783266 0.549246 -0.493734
F17   F     F_    0.216175 0.202434 0.950664 -0.493387
F18   F     F_    0.016991 0.319473 0.126394 -0.506975
F19   F     F_    0.301722 0.981908 0.373762 -0.506684
F20   F     F_    0.680526 0.697515 0.126394 -0.506976
F21   F     F_    0.018064 0.319802 0.373759 -0.506675
F22   F     F_    0.302488 0.983017 0.126395 -0.506979
F23   F     F_    0.282521 0.338176 0.128195 -0.476988
F24   F     F_    0.680208 0.698233 0.373751 -0.506703
F25   F     F_    0.319137 0.015899 0.626548 -0.507284
F26   F     F_    0.982954 0.302444 0.873614 -0.506972
F27   F     F_    0.696820 0.680835 0.626534 -0.507270
F28   F     F_    0.319490 0.017046 0.873614 -0.506972
F29   F     F_    0.984086 0.303229 0.626545 -0.507275
F30   F     F_    0.697554 0.680509 0.873613 -0.506973
F31   F     F_    0.054945 0.717053 0.371753 -0.476764
F32   F     F_    0.661825 0.944344 0.128194 -0.476987
F33   F     F_    0.282931 0.337896 0.371754 -0.476775
F34   F     F_    0.717884 0.056339 0.628144 -0.477237
F35   F     F_    0.944382 0.661841 0.871802 -0.476996
F36   F     F_    0.338445 0.282130 0.628145 -0.477233
H1    H     H_    0.003483 0.237256 0.044513 0.287812
H2    H     H_    0.237297 0.003573 0.955498 0.287815
H3    H     H_    0.998097 0.234638 0.544686 0.287724
H4    H     H_    0.766276 0.762701 0.955497 0.287818
H5    H     H_    0.232852 0.994829 0.455674 0.287883
H6    H     H_    0.762741 0.766228 0.044511 0.287814
H7    H     H_    0.005138 0.238006 0.455672 0.287887
H8    H     H_    0.233770 0.996511 0.044512 0.287811
H9    H     H_    0.762015 0.767111 0.455661 0.287873
H10   H     H_    0.236528 0.001876 0.544689 0.287717
H11   H     H_    0.996419 0.233719 0.955498 0.287814
H12   H     H_    0.765397 0.763439 0.544675 0.287714
O1    O     O_R   0.460870 0.120930 0.805240 -0.404049
O2    O     O_R   0.120930 0.460870 0.194760 -0.404037
O3    O     O_R   0.539130 0.660060 0.305240 -0.404175
O4    O     O_R   0.339940 0.879070 0.194760 -0.404041
O5    O     O_R   0.498910 0.350470 0.801870 -0.449846
O6    O     O_R   0.851560 0.501090 0.698130 -0.449860
O7    O     O_R   0.649530 0.148440 0.801870 -0.449849
O8    O     O_R   0.498910 0.350470 0.698130 -0.449863
O9    O     O_R   0.851560 0.501090 0.801870 -0.449847
O10   O     O_R   0.649530 0.148440 0.698130 -0.449861
O11   O     O_R   0.350470 0.498910 0.301870 -0.449775
O12   O     O_R   0.660060 0.539130 0.694760 -0.403923
O13   O     O_R   0.501090 0.851560 0.198130 -0.449788
O14   O     O_R   0.148440 0.649530 0.301870 -0.449769
O15   O     O_R   0.350470 0.498910 0.198130 -0.449789
O16   O     O_R   0.501090 0.851560 0.301870 -0.449776
O17   O     O_R   0.148440 0.649530 0.198130 -0.449790
O18   O     O_3   0.666667 0.333333 0.750000 -0.374896
O19   O     O_3   0.333333 0.666667 0.250000 -0.374979
O20   O     O_R   0.879070 0.339940 0.805240 -0.404051
O21   O     O_R   0.460870 0.120930 0.694760 -0.403925
O22   O     O_R   0.660060 0.539130 0.805240 -0.404052
O23   O     O_R   0.879070 0.339940 0.694760 -0.403919
O24   O     O_R   0.120930 0.460870 0.305240 -0.404172
O25   O     O_R   0.539130 0.660060 0.194760 -0.404037
O26   O     O_R   0.339940 0.879070 0.305240 -0.404172

loop_
_geom_bond_atom_site_label_1
_geom_bond_atom_site_label_2
_ccdc_geom_bond_type
C3    C104  A    
C12   O16   A    
C32   O7    A    
C4    C103  A    
C35   C74   A    
C89   C102  A    
C45   C71   A    
C35   F5    S    
C45   F2    S    
C91   C104  A    
C58   C87   S    
C15   C94   A    
C88   C101  A    
C64   C83   A    
C9    H2    S    
Cr1   O8    S    
C44   C64   A    
C7    H11   S    
C49   F33   S    
C22   C101  A    
C46   C62   A    
C18   C24   A    
C84   C97   A    
C76   O11   A    
C28   C68   A    
C8    C99   A    
Cr5   O3    S    
C43   O12   A    
C87   O4    A    
C51   F31   S    
C61   C80   A    
C12   O26   A    
C32   O1    A    
C101  C106  A    
C33   C36   A    
Cr6   O26   S    
C30   C38   A    
Cr3   O10   S    
C59   C89   A    
C2    O25   A    
C21   C64   S    
Cr1   O5    S    
C33   C72   A    
C37   F9    S    
C27   F13   S    
C1    O22   A    
C4    H8    S    
C6    C94   A    
C40   C67   A    
C108  H6    S    
C20   C73   A    
Cr4   O24   S    
C6    C107  A    
C49   C75   A    
C44   C70   A    
C51   C57   A    
C2    O15   A    
C10   C96   A    
C52   C79   A    
C86   C100  A    
C14   C93   A    
C46   C72   A    
C11   H4    S    
Cr5   O13   S    
Cr6   O14   S    
Cr2   O9    S    
C50   F32   S    
C31   C71   A    
Cr5   O16   S    
Cr2   O22   S    
C17   C70   A    
C16   C26   A    
C19   C72   A    
C15   C20   A    
Cr2   O6    S    
C7    C93   A    
C10   H3    S    
C30   C70   A    
C43   O8    A    
Cr6   O4    S    
C41   C68   A    
C29   C69   A    
Cr2   O12   S    
C34   F6    S    
C48   C53   A    
Cr4   O2    S    
C62   C85   A    
Cr5   O19   S    
Cr3   O23   S    
C65   O10   A    
C25   C78   A    
C50   C58   A    
C48   C74   A    
C42   C66   A    
C47   C73   A    
C82   F30   S    
Cr1   O1    S    
C85   F27   S    
C19   C99   A    
C42   F4    S    
C38   C78   A    
C27   C35   A    
C80   F26   S    
C37   C77   A    
C45   C63   A    
C33   F14   S    
C40   C61   A    
C31   C37   A    
Cr3   O7    S    
C88   F18   S    
C39   C79   A    
C52   F23   S    
C19   C23   A    
C13   C53   S    
C85   C99   A    
C36   C75   A    
C66   C82   A    
C98   O14   A    
C60   C81   A    
C24   C77   A    
C86   F19   S    
C20   C100  A    
Cr2   O18   S    
C14   C67   A    
C29   C39   A    
C54   O20   A    
C1    C66   S    
C7    C106  A    
C76   O3    A    
C17   C96   A    
C105  C108  A    
C58   C90   A    
C38   F8    S    
C90   F22   S    
C48   F1    S    
C18   C97   A    
C60   C65   S    
C89   F24   S    
Cr3   O18   S    
C84   F28   S    
C22   C74   A    
C36   F10   S    
C47   F12   S    
C50   C77   A    
C28   F11   S    
C13   O2    A    
C47   C55   A    
C65   O21   A    
C11   C95   A    
C18   C71   A    
C81   F25   S    
C5    C102  A    
C100  C107  A    
C9    C97   A    
C106  H1    S    
C57   C91   A    
C46   F36   S    
C5    H9    S    
C21   O6    A    
C54   O9    A    
C92   F20   S    
C16   C69   A    
C41   C60   A    
C23   C75   A    
C39   F7    S    
C5    C8    A    
C6    H10   S    
C25   C104  A    
C21   O23   A    
Cr4   O19   S    
C54   C61   S    
C82   C95   A    
C32   C63   S    
Cr6   O19   S    
C87   O13   A    
C42   C69   A    
C26   C79   A    
C49   C59   A    
C26   C105  A    
C63   C84   A    
C24   C103  A    
C17   C25   A    
C14   C22   A    
C55   C86   A    
C80   C93   A    
C51   C78   A    
C98   O24   A    
C3    C10   A    
C30   F16   S    
C83   F29   S    
C81   C94   A    
C16   C95   A    
Cr1   O18   S    
Cr1   O21   S    
C29   F17   S    
C41   F34   S    
C83   C96   A    
C44   F3    S    
C15   C68   A    
C13   O17   A    
C40   F35   S    
Cr4   O11   S    
C53   C88   A    
Cr3   O20   S    
C57   C98   S    
C90   C103  A    
C12   C55   S    
C27   C67   A    
C34   C73   A    
C28   C34   A    
C23   C102  A    
C92   C105  A    
C56   C92   A    
C91   F21   S    
C31   F15   S    
Cr6   O17   S    
C11   C108  A    
C3    H7    S    
C1    O5    A    
C2    C56   S    
C8    H12   S    
C4    C9    A    
C59   C76   S    
C107  H5    S    
C52   C56   A    
C43   C62   S    
Cr4   O15   S    
Cr5   O25   S    
