data_mof_unit_57265.cif
_audit_creation_date              2012-12-11T14:01:29-0500
_audit_creation_method            fapswitch 2.2
_symmetry_space_group_name_H-M    P1
_symmetry_Int_Tables_number       1
_space_group_crystal_system       triclinic
_cell_length_a                    18.939617
_cell_length_b                    10.968314
_cell_length_c                    18.71406
_cell_angle_alpha                 90.228376
_cell_angle_beta                  90.376385
_cell_angle_gamma                 89.916593
_cell_volume                      3887.45898789

loop_
_atom_site_label
_atom_site_type_symbol
_atom_type_description
_atom_site_fract_x
_atom_site_fract_y
_atom_site_fract_z
_atom_type_partial_charge
C1    C     C_R   0.272377 0.042787 0.853454 0.556373
C2    C     C_R   0.727633 0.042542 0.146546 0.556251
C3    C     C_R   0.772379 0.542780 0.853456 0.557804
C4    C     C_R   0.227627 0.542526 0.146539 0.559110
C5    C     C_R   0.480352 0.052093 0.074499 -0.086515
C6    C     C_R   0.508187 0.058876 0.928551 -0.081930
C7    C     C_R   0.980730 0.552334 0.074410 -0.086416
C8    C     C_R   0.008586 0.558678 0.928458 -0.082385
C9    C     C_R   0.982646 0.663609 0.038742 -0.126357
C10   C     C_R   0.998741 0.666991 0.966382 -0.125241
C11   C     C_R   0.481999 0.163454 0.038896 -0.126458
C12   C     C_R   0.498083 0.167068 0.966537 -0.125443
C13   C     C_2   0.249237 0.579275 0.920403 -0.112183
C14   C     C_2   0.750753 0.578785 0.079464 -0.112933
C15   C     C_2   0.749263 0.079345 0.920431 -0.112692
C16   C     C_2   0.250740 0.078813 0.079453 -0.112674
C17   C     C_2   0.250222 0.587093 0.077281 -0.106337
C18   C     C_2   0.749802 0.587674 0.922833 -0.105622
C19   C     C_2   0.750243 0.087161 0.077307 -0.106004
C20   C     C_2   0.249795 0.087705 0.922823 -0.106157
C21   C     C_2   0.295579 0.521772 0.037663 -0.164602
C22   C     C_2   0.704159 0.522807 0.961940 -0.165297
C23   C     C_2   0.795626 0.021893 0.037693 -0.164060
C24   C     C_2   0.204135 0.022870 0.961927 -0.165001
C25   C     C_2   0.304377 0.546335 0.961509 -0.162584
C26   C     C_2   0.695519 0.546676 0.038237 -0.162685
C27   C     C_2   0.804416 0.046465 0.961539 -0.163166
C28   C     C_2   0.195497 0.046751 0.038222 -0.162539
C29   C     C_2   0.453250 0.829129 0.565323 -0.094453
C30   C     C_2   0.481470 0.837847 0.412161 -0.108698
C31   C     C_2   0.951611 0.330417 0.565278 -0.103311
C32   C     C_2   0.982326 0.336361 0.412399 -0.109739
C33   C     C_2   0.455691 0.739403 0.445325 -0.149966
C34   C     C_2   0.431210 0.743215 0.519377 -0.161525
C35   C     C_2   0.960691 0.235998 0.446624 -0.151207
C36   C     C_2   0.939962 0.235970 0.521541 -0.173445
C37   C     C_2   0.246310 0.562347 0.583450 -0.122985
C38   C     C_2   0.725194 0.678864 0.438281 -0.115173
C39   C     C_2   0.770734 0.169529 0.562139 -0.120660
C40   C     C_2   0.221744 0.187016 0.438171 -0.119214
C41   C     C_2   0.236858 0.567620 0.428599 -0.093617
C42   C     C_2   0.741313 0.616741 0.589905 -0.116189
C43   C     C_2   0.758713 0.118089 0.409441 -0.118642
C44   C     C_2   0.242911 0.106600 0.585726 -0.112136
C45   C     C_R   0.472456 0.822612 0.852624 0.550115
C46   C     C_R   0.528329 0.821859 0.146776 0.538195
C47   C     C_R   0.972447 0.322592 0.852631 0.550067
C48   C     C_R   0.028308 0.321879 0.146790 0.538805
C49   C     C_2   0.183193 0.537466 0.472149 -0.155289
C50   C     C_2   0.780682 0.701115 0.557392 -0.158250
C51   C     C_2   0.717792 0.199148 0.443189 -0.154885
C52   C     C_2   0.274682 0.205105 0.558634 -0.160235
C53   C     C_2   0.184498 0.563414 0.548441 -0.042119
C54   C     C_2   0.772098 0.735581 0.482125 -0.049376
C55   C     C_2   0.726555 0.232182 0.518437 -0.047174
C56   C     C_2   0.270474 0.237361 0.482500 -0.047609
C57   C     C_R   0.260936 0.635808 0.851344 0.554253
C58   C     C_R   0.739105 0.635546 0.148679 0.560485
C59   C     C_R   0.760943 0.135829 0.851352 0.564204
C60   C     C_R   0.239102 0.135556 0.148674 0.561026
C61   C     C_R   0.270848 0.048537 0.649396 0.548537
C62   C     C_R   0.729639 0.050949 0.349251 0.553383
C63   C     C_R   0.770529 0.550226 0.650294 0.545346
C64   C     C_R   0.226650 0.543634 0.353529 0.547335
C65   C     C_R   0.436556 0.819460 0.640319 0.571333
C66   C     C_R   0.527024 0.824332 0.350368 0.546162
C67   C     C_R   0.936630 0.319608 0.640487 0.551216
C68   C     C_R   0.026976 0.324196 0.350162 0.538323
C69   C     C_R   0.259529 0.632828 0.647766 0.542664
C70   C     C_R   0.724046 0.694615 0.360966 0.574000
C71   C     C_R   0.775115 0.191907 0.638573 0.547033
C72   C     C_R   0.223464 0.196519 0.360416 0.573508
C73   C     C_R   0.501692 0.828865 0.073576 0.002582
C74   C     C_R   0.502730 0.832441 0.924355 -0.001772
C75   C     C_R   0.001579 0.328964 0.073625 0.002037
C76   C     C_R   0.002642 0.332324 0.924399 -0.002608
C77   C     C_R   0.494511 0.941897 0.037770 0.024558
C78   C     C_R   0.502114 0.944549 0.962678 0.024719
C79   C     C_R   0.994647 0.441987 0.037751 0.024524
C80   C     C_R   0.002261 0.444471 0.962657 0.024160
C81   C     C_R   0.509021 0.722478 0.961206 -0.153925
C82   C     C_R   0.506159 0.720384 0.034091 -0.150798
C83   C     C_R   0.008623 0.222381 0.961319 -0.154161
C84   C     C_R   0.005736 0.220413 0.034204 -0.151041
Cr1   Cr    Cr6+3 0.230530 0.836340 0.748870 1.035925
Cr2   Cr    Cr6+3 0.769470 0.836340 0.251130 1.036218
Cr3   Cr    Cr6+3 0.730530 0.336340 0.748870 1.037060
Cr4   Cr    Cr6+3 0.269470 0.336340 0.251130 1.035272
Cr5   Cr    Cr6+3 0.387420 0.989430 0.750820 1.026069
Cr6   Cr    Cr6+3 0.612580 0.989430 0.249180 1.022531
Cr7   Cr    Cr6+3 0.887420 0.489430 0.750820 1.032615
Cr8   Cr    Cr6+3 0.112580 0.489430 0.249180 1.022069
Cr9   Cr    Cr6+3 0.385640 0.677860 0.749230 1.022848
Cr10  Cr    Cr6+3 0.614360 0.677860 0.250770 1.025136
Cr11  Cr    Cr6+3 0.885640 0.177860 0.749230 1.021152
Cr12  Cr    Cr6+3 0.114360 0.177860 0.250770 1.024369
H1    H     H_    0.511531 0.635503 0.933611 0.137858
H2    H     H_    0.511118 0.632107 0.059446 0.137155
H3    H     H_    0.010921 0.135344 0.933784 0.137854
H4    H     H_    0.010463 0.132157 0.059614 0.137246
H5    H     H_    0.134254 0.500859 0.450078 0.147221
H6    H     H_    0.828541 0.733854 0.583582 0.168957
H7    H     H_    0.669212 0.230535 0.417839 0.166586
H8    H     H_    0.314638 0.251917 0.590495 0.155328
H9    H     H_    0.325639 0.446885 0.060536 0.152182
H10   H     H_    0.673816 0.448558 0.938556 0.153067
H11   H     H_    0.825702 0.947023 0.060565 0.152444
H12   H     H_    0.173782 0.948634 0.938544 0.153336
H13   H     H_    0.357414 0.540681 0.939959 0.154191
H14   H     H_    0.642522 0.541276 0.059817 0.150921
H15   H     H_    0.857453 0.040840 0.939987 0.153984
H16   H     H_    0.142497 0.041396 0.059799 0.151136
H17   H     H_    0.221997 0.664154 0.054418 0.113680
H18   H     H_    0.778264 0.664225 0.946185 0.113710
H19   H     H_    0.722005 0.164211 0.054447 0.113398
H20   H     H_    0.278267 0.164246 0.946175 0.113328
H21   H     H_    0.196095 0.581452 0.942002 0.112185
H22   H     H_    0.803882 0.580596 0.057838 0.112286
H23   H     H_    0.696123 0.081497 0.942034 0.111735
H24   H     H_    0.303870 0.080592 0.057829 0.112379
H25   H     H_    0.458710 0.649885 0.420453 0.175358
H26   H     H_    0.401052 0.665879 0.538574 0.143073
H27   H     H_    0.965940 0.146576 0.422004 0.173701
H28   H     H_    0.921588 0.150046 0.543066 0.148592
H29   H     H_    0.474595 0.928890 0.433925 0.113527
H30   H     H_    0.485022 0.906040 0.548719 0.116339
H31   H     H_    0.974236 0.427327 0.433584 0.108611
H32   H     H_    0.971800 0.416931 0.546717 0.126470
O1    O     O_R   0.215090 0.709860 0.828130 -0.517874
O2    O     O_R   0.784910 0.709860 0.171870 -0.518589
O3    O     O_R   0.715090 0.209860 0.828130 -0.515478
O4    O     O_R   0.284910 0.209860 0.171870 -0.518913
O5    O     O_R   0.445660 0.919250 0.676780 -0.494184
O6    O     O_R   0.554340 0.919250 0.323220 -0.497186
O7    O     O_R   0.945660 0.419250 0.676780 -0.477544
O8    O     O_R   0.054340 0.419250 0.323220 -0.506492
O9    O     O_R   0.456260 0.718170 0.670000 -0.494230
O10   O     O_R   0.543740 0.718170 0.330000 -0.516956
O11   O     O_R   0.956260 0.218170 0.670000 -0.504711
O12   O     O_R   0.043740 0.218170 0.330000 -0.518798
O13   O     O_R   0.320940 0.626760 0.674370 -0.524334
O14   O     O_R   0.679060 0.626760 0.325630 -0.496107
O15   O     O_R   0.820940 0.126760 0.674370 -0.511969
O16   O     O_R   0.179060 0.126760 0.325630 -0.494032
O17   O     O_3   0.334530 0.834540 0.749640 -0.270526
O18   O     O_3   0.665470 0.834540 0.250360 -0.272626
O19   O     O_3   0.834530 0.334540 0.749640 -0.294527
O20   O     O_3   0.165470 0.334540 0.250360 -0.276853
O21   O     O_R   0.236990 0.958390 0.823710 -0.497588
O22   O     O_R   0.763010 0.958390 0.176290 -0.500162
O23   O     O_R   0.736990 0.458390 0.823710 -0.497746
O24   O     O_R   0.263010 0.458390 0.176290 -0.498590
O25   O     O_R   0.332380 0.074750 0.830850 -0.511595
O26   O     O_R   0.667620 0.074750 0.169150 -0.509181
O27   O     O_R   0.832380 0.574750 0.830850 -0.509197
O28   O     O_R   0.167620 0.574750 0.169150 -0.506497
O29   O     O_R   0.445800 0.917770 0.825070 -0.502637
O30   O     O_R   0.554200 0.917770 0.174930 -0.503518
O31   O     O_R   0.945800 0.417770 0.825070 -0.500061
O32   O     O_R   0.054200 0.417770 0.174930 -0.502506
O33   O     O_R   0.456410 0.716580 0.829970 -0.518154
O34   O     O_R   0.543590 0.716580 0.170030 -0.524069
O35   O     O_R   0.956410 0.216580 0.829970 -0.518521
O36   O     O_R   0.043590 0.216580 0.170030 -0.523360
O37   O     O_R   0.321080 0.625290 0.822650 -0.496106
O38   O     O_R   0.678920 0.625290 0.177350 -0.491263
O39   O     O_R   0.821080 0.125290 0.822650 -0.489889
O40   O     O_R   0.178920 0.125290 0.177350 -0.490310
O41   O     O_R   0.214930 0.711450 0.668160 -0.487768
O42   O     O_R   0.785070 0.711450 0.331840 -0.489385
O43   O     O_R   0.714930 0.211450 0.668160 -0.479649
O44   O     O_R   0.285070 0.211450 0.331840 -0.489055
O45   O     O_R   0.236850 0.959870 0.675420 -0.494726
O46   O     O_R   0.763150 0.959870 0.324580 -0.499881
O47   O     O_R   0.736850 0.459870 0.675420 -0.499468
O48   O     O_R   0.263150 0.459870 0.324580 -0.499029
O49   O     O_R   0.332230 0.076350 0.670880 -0.518066
O50   O     O_R   0.667770 0.076350 0.329120 -0.514447
O51   O     O_R   0.832230 0.576350 0.670880 -0.518544
O52   O     O_R   0.167770 0.576350 0.329120 -0.506738
C85   C     C_1   0.118283 0.594541 0.582303 0.242319
N1    N     N_1   0.065299 0.619267 0.609249 -0.285919
C86   C     C_1   0.826051 0.817146 0.455721 0.240281
N2    N     N_1   0.870263 0.880523 0.435245 -0.316255
C87   C     C_1   0.674180 0.317149 0.545034 0.239317
N3    N     N_1   0.630797 0.382537 0.565668 -0.296234
C88   C     C_1   0.326907 0.314637 0.457021 0.239169
N4    N     N_1   0.372401 0.375931 0.437185 -0.305053
H33   H     H_    0.286622 0.604766 0.447724 0.097878
H34   H     H_    0.690898 0.587822 0.568978 0.134240
H35   H     H_    0.810032 0.091691 0.429650 0.124458
H36   H     H_    0.202340 0.056520 0.557247 0.110950
H37   H     H_    0.292455 0.521768 0.558542 0.096376
H38   H     H_    0.685926 0.616846 0.458680 0.104146
H39   H     H_    0.804418 0.097650 0.542163 0.093064
H40   H     H_    0.177266 0.137018 0.459093 0.098415
H41   H     H_    0.466587 0.053014 0.130495 0.130794
H42   H     H_    0.522264 0.065900 0.872820 0.134487
H43   H     H_    0.966943 0.553452 0.130397 0.131134
H44   H     H_    0.022658 0.565497 0.872715 0.136054
H45   H     H_    0.972709 0.747566 0.067592 0.110635
H46   H     H_    0.002708 0.753724 0.939316 0.108986
H47   H     H_    0.471869 0.247300 0.067796 0.110442
H48   H     H_    0.501850 0.253885 0.939521 0.108222

loop_
_geom_bond_atom_site_label_1
_geom_bond_atom_site_label_2
_ccdc_geom_bond_type
Cr12  O12   S    
C16   C28   D    
C38   C70   S    
Cr10  O18   S    
Cr4   O44   S    
C37   C69   S    
Cr8   O20   S    
Cr4   O24   S    
C67   O7    A    
C35   C36   S    
C60   O4    A    
Cr7   O7    S    
Cr7   O19   S    
C81   C82   A    
C17   H17   S    
C47   O31   A    
C77   C78   A    
C28   H16   S    
Cr5   O17   S    
C48   O32   A    
C59   O3    A    
C60   O40   A    
C75   C79   A    
Cr3   O19   S    
C2    O22   A    
Cr3   O43   S    
C72   O44   A    
C32   H31   S    
C71   O15   A    
C36   H28   S    
Cr1   O17   S    
C47   C76   S    
C5    C11   A    
C53   C85   S    
Cr2   O22   S    
Cr9   O9    S    
C6    C12   A    
Cr6   O6    S    
C49   C53   S    
C75   C84   A    
C6    C78   A    
C13   C57   S    
C69   O13   A    
C66   O10   A    
C46   O30   A    
C63   O51   A    
C3    C18   S    
C72   O16   A    
C16   C60   S    
Cr3   O3    S    
C65   O5    A    
C45   O33   A    
C21   C25   S    
Cr8   O52   S    
Cr1   O1    S    
C66   O6    A    
Cr5   O25   S    
C39   C55   D    
C20   C24   D    
C40   C56   D    
Cr7   O51   S    
Cr1   O45   S    
Cr12  O40   S    
Cr9   O17   S    
C24   H12   S    
Cr5   O49   S    
Cr6   O26   S    
C67   O11   A    
C9    C10   A    
Cr10  O34   S    
C31   C36   D    
Cr7   O31   S    
C65   O9    A    
C25   H13   S    
C32   C68   S    
C37   C53   D    
C44   C52   D    
C12   H48   S    
C30   H29   S    
C43   H35   S    
C34   H26   S    
C83   H3    S    
C29   H30   S    
C33   H25   S    
C82   H2    S    
C48   C75   S    
C13   C25   D    
Cr8   O8    S    
C31   H32   S    
C4    O24   A    
Cr2   O18   S    
C76   C83   A    
C41   C49   D    
C14   C58   S    
C70   O14   A    
Cr5   O5    S    
Cr10  O14   S    
C32   C35   D    
C76   C80   A    
C68   O8    A    
C45   O29   A    
C6    H42   S    
Cr2   O2    S    
C69   O41   A    
C14   H22   S    
C85   N1    T    
C39   H39   S    
C29   C34   D    
Cr1   O41   S    
Cr12  O36   S    
Cr12  O20   S    
C45   C74   S    
Cr2   O46   S    
C37   H37   S    
Cr6   O30   S    
C19   C23   D    
C86   N2    T    
Cr7   O27   S    
Cr11  O35   S    
Cr12  O16   S    
C42   H34   S    
C15   C27   D    
C83   C84   A    
C38   C54   D    
C56   C88   S    
C19   H19   S    
C61   O49   A    
C23   H11   S    
C17   C21   D    
C3    O27   A    
C33   C34   S    
Cr4   O20   S    
Cr11  O19   S    
Cr8   O28   S    
C11   H47   S    
C14   C26   D    
Cr5   O29   S    
C10   H46   S    
C30   C66   S    
C22   C26   S    
C9    H45   S    
C42   C50   D    
C29   C65   S    
C4    C17   S    
C8    C10   A    
C4    O28   A    
Cr9   O33   S    
C50   H6    S    
C23   C27   S    
C74   C78   A    
Cr10  O10   S    
C71   O43   A    
Cr11  O11   S    
C8    H44   S    
C64   O48   A    
Cr4   O4    S    
C74   C81   A    
C5    C77   A    
C73   C82   A    
C50   C54   S    
Cr9   O13   S    
C18   H18   S    
C7    C79   A    
C40   H40   S    
C57   O1    A    
C7    C9    A    
C26   H14   S    
C52   H8    S    
C1    C20   S    
C39   C71   S    
C40   C72   S    
C30   C33   D    
C2    C19   S    
C18   C22   D    
C15   C59   S    
Cr11  O15   S    
C24   C28   S    
C20   H20   S    
C1    O21   A    
Cr11  O39   S    
C62   O50   A    
C84   H4    S    
C5    H41   S    
C11   C12   A    
C63   O47   A    
C48   O36   A    
C44   C61   S    
Cr3   O47   S    
C3    O23   A    
Cr4   O48   S    
C41   H33   S    
Cr8   O32   S    
C16   H24   S    
C70   O42   A    
C47   O35   A    
C88   N4    T    
Cr6   O18   S    
C22   H10   S    
C44   H36   S    
C49   H5    S    
C43   C51   D    
C87   N3    T    
C81   H1    S    
Cr2   O42   S    
C58   O2    A    
C64   O52   A    
C59   O39   A    
C35   H27   S    
C15   H23   S    
C51   C55   S    
C55   C87   S    
C7    H43   S    
C58   O38   A    
Cr1   O21   S    
Cr10  O38   S    
C1    O25   A    
C68   O12   A    
C31   C67   S    
Cr9   O37   S    
C79   C80   A    
C38   H38   S    
C57   O37   A    
C2    O26   A    
C46   O34   A    
C13   H21   S    
C8    C80   A    
C61   O45   A    
C73   C77   A    
C54   C86   S    
Cr3   O23   S    
C41   C64   S    
C51   H7    S    
C42   C63   S    
C27   H15   S    
C46   C73   S    
C21   H9    S    
C52   C56   S    
C43   C62   S    
Cr6   O50   S    
C62   O46   A    
