data_mof_unit_45143.cif
_audit_creation_date              2012-12-10T17:10:28-0500
_audit_creation_method            fapswitch 2.2
_symmetry_space_group_name_H-M    P1
_symmetry_Int_Tables_number       1
_space_group_crystal_system       triclinic
_cell_length_a                    10.854499
_cell_length_b                    13.017437
_cell_length_c                    11.730176
_cell_angle_alpha                 101.585544
_cell_angle_beta                  94.146794
_cell_angle_gamma                 92.262903
_cell_volume                      1616.95208659

loop_
_atom_site_label
_atom_site_type_symbol
_atom_type_description
_atom_site_fract_x
_atom_site_fract_y
_atom_site_fract_z
_atom_type_partial_charge
C1    C     C_R   0.500839 0.298866 0.476692 0.809760
C2    C     C_R   0.499609 0.701156 0.523401 0.807063
C3    C     C_R   0.498657 0.815977 0.540242 -0.147113
C4    C     C_R   0.504019 0.184170 0.460512 -0.147417
C5    C     C_R   0.579804 0.017144 0.367128 -0.054081
C6    C     C_R   0.428337 0.984129 0.636017 -0.058556
C7    C     C_R   0.573777 0.126047 0.375458 -0.131263
C8    C     C_R   0.430963 0.874948 0.626505 -0.137381
C9    C     C_R   0.438887 0.132846 0.534273 0.141133
C10   C     C_R   0.566102 0.867066 0.467735 0.138020
C11   C     C_R   0.468211 0.029811 0.543861 0.037819
C12   C     C_R   0.538542 0.970701 0.458471 0.029148
C13   C     C_R   0.371560 0.406928 0.016010 0.073144
C14   C     C_R   0.626735 0.594650 0.984234 0.101247
C15   C     C_R   0.386669 0.412714 0.139324 0.375449
C16   C     C_R   0.612376 0.588179 0.860797 0.379657
C17   C     C_R   0.554618 0.539068 0.159410 -0.001370
C18   C     C_R   0.445273 0.460967 0.840581 -0.007029
C19   C     C_R   0.545905 0.533612 0.036172 -0.021858
C20   C     C_R   0.453529 0.466823 0.963866 -0.027470
C21   C     C_R   0.263254 0.512785 0.502170 0.800358
C22   C     C_R   0.737024 0.487948 0.497900 0.800349
C23   C     C_R   0.131630 0.558135 0.722294 -0.123130
C24   C     C_R   0.868997 0.446410 0.277575 -0.125996
C25   C     C_R   0.078980 0.538970 0.821318 -0.181431
C26   C     C_R   0.921635 0.466834 0.179049 -0.182748
C27   C     C_R   0.966434 0.481981 0.809741 -0.162068
C28   C     C_R   0.034566 0.523284 0.191215 -0.159849
C29   C     C_R   0.900608 0.454078 0.700676 -0.110936
C30   C     C_R   0.100563 0.549651 0.300264 -0.112533
C31   C     C_R   0.946381 0.483990 0.601237 0.070610
C32   C     C_R   0.054357 0.519053 0.399140 0.071009
C33   C     C_R   0.070414 0.522851 0.609350 0.086513
C34   C     C_R   0.930177 0.480428 0.390798 0.088300
C35   C     C_R   0.872316 0.475598 0.494808 -0.204012
C36   C     C_R   0.128314 0.526705 0.505349 -0.207173
Cu1   Cu    Cu3+1 0.509250 0.507730 0.615930 0.951049
Cu2   Cu    Cu3+1 0.490750 0.492270 0.384070 0.950231
H1    H     H_    0.072748 0.544146 0.115673 0.141170
H2    H     H_    0.928462 0.461768 0.885690 0.140438
H3    H     H_    0.218575 0.603760 0.736294 0.176434
H4    H     H_    0.782161 0.400679 0.262653 0.175784
H5    H     H_    0.127548 0.565658 0.906740 0.146198
H6    H     H_    0.872935 0.441221 0.093531 0.144151
H7    H     H_    0.814685 0.407743 0.695054 0.167896
H8    H     H_    0.187041 0.595353 0.306426 0.166895
H9    H     H_    0.376218 0.410257 0.783090 0.156886
H10   H     H_    0.623856 0.589558 0.216911 0.155754
N1    N     N_R   0.523180 0.519350 0.790130 -0.200150
N2    N     N_R   0.476820 0.480650 0.209870 -0.200158
O1    O     O_R   0.506570 0.354460 0.582000 -0.568293
O2    O     O_R   0.493430 0.645540 0.418000 -0.569287
O3    O     O_R   0.490940 0.341410 0.386200 -0.575563
O4    O     O_R   0.509060 0.658590 0.613800 -0.574690
O5    O     O_R   0.327470 0.506520 0.597900 -0.589171
O6    O     O_R   0.672530 0.493480 0.402100 -0.590179
O7    O     O_R   0.311840 0.493460 0.402100 -0.601206
O8    O     O_R   0.688160 0.506540 0.597900 -0.602364
C37   C     C_3   0.268982 0.337189 0.938468 -0.874740
H11   H     H_    0.203714 0.295449 0.983630 0.252635
H12   H     H_    0.211393 0.385397 0.890434 0.234506
H13   H     H_    0.310102 0.276232 0.874849 0.247803
C38   C     C_3   0.725989 0.667582 0.062485 -0.889468
H14   H     H_    0.789204 0.711950 0.018065 0.241140
H15   H     H_    0.680996 0.726632 0.125190 0.263331
H16   H     H_    0.786062 0.621552 0.111204 0.232334
C39   C     C_3   0.678376 0.815714 0.416079 -0.780637
H17   H     H_    0.721444 0.766731 0.473799 0.211943
H18   H     H_    0.651477 0.765008 0.329582 0.241627
H19   H     H_    0.751715 0.875348 0.408739 0.240468
C40   C     C_3   0.327337 0.183382 0.588400 -0.779467
H20   H     H_    0.282037 0.232147 0.531670 0.213149
H21   H     H_    0.255326 0.123231 0.597405 0.238633
H22   H     H_    0.355824 0.233930 0.674642 0.240534
C41   C     C_2   0.363356 0.824685 0.707983 0.901905
O9    O     O_2   0.419927 0.795394 0.788562 -0.569416
O10   O     O_R   0.234117 0.816935 0.695813 -0.743189
H23   H     H_    0.197432 0.788628 0.761091 0.332306
C42   C     C_2   0.640212 0.177227 0.294012 0.902473
O11   O     O_2   0.583126 0.203244 0.211599 -0.582170
O12   O     O_R   0.769140 0.190237 0.308884 -0.736623
H24   H     H_    0.805478 0.217977 0.243099 0.331285
C43   C     C_2   0.611189 0.951583 0.254947 0.851618
O13   O     O_2   0.536884 0.882383 0.201739 -0.582692
O14   O     O_R   0.724022 0.969393 0.209827 -0.732210
H25   H     H_    0.733148 0.920545 0.132271 0.336742
C44   C     C_2   0.406481 0.051104 0.750638 0.855456
O15   O     O_2   0.312512 0.037336 0.798427 -0.564340
O16   O     O_R   0.496148 0.129300 0.804314 -0.751091
H26   H     H_    0.475636 0.166209 0.884720 0.343618
C45   C     C_3   0.696863 0.661912 0.812924 -0.711874
H27   H     H_    0.683123 0.744276 0.856127 0.227641
H28   H     H_    0.794586 0.643497 0.829496 0.196006
H29   H     H_    0.685392 0.661578 0.720619 0.267813
C46   C     C_3   0.301692 0.339381 0.187220 -0.709628
H30   H     H_    0.312692 0.257110 0.141947 0.227788
H31   H     H_    0.315171 0.337939 0.279007 0.268166
H32   H     H_    0.204351 0.359896 0.173318 0.198635

loop_
_geom_bond_atom_site_label_1
_geom_bond_atom_site_label_2
_ccdc_geom_bond_type
C44   O15   D    
C38   H15   S    
C27   C29   A    
C24   H4    S    
C46   H30   S    
C17   H10   S    
C18   H9    S    
C25   H5    S    
O12   H24   S    
C46   H32   S    
C26   H6    S    
C21   C36   S    
O10   H23   S    
C22   C35   S    
C32   C36   A    
C24   C26   A    
C15   C46   S    
C5    C43   S    
Cu2   O2    S    
C33   C36   A    
Cu1   N1    S    
C34   C35   A    
C15   N2    A    
C41   O10   S    
C1    O3    A    
C19   C20   A    
C37   H13   S    
C31   C33   A    
C18   C20   A    
Cu1   O8    S    
C38   H16   S    
C37   H11   S    
C4    C7    A    
C10   C12   A    
C5    C7    A    
C37   H12   S    
C39   H17   S    
C16   N1    A    
C5    C12   A    
C3    C8    A    
C2    O4    A    
C6    C11   A    
C42   O12   S    
C6    C8    A    
C28   H1    S    
C23   C33   A    
O14   H25   S    
C8    C41   S    
C24   C34   A    
C6    C44   S    
C38   H14   S    
C29   H7    S    
C39   H18   S    
C32   C34   A    
C41   O9    D    
C21   O7    A    
Cu1   Cu2   S    
C45   H28   S    
Cu2   O7    S    
C9    C11   A    
C43   O13   D    
C27   H2    S    
C1    O1    A    
C2    O2    A    
C13   C37   S    
Cu1   O4    S    
C43   O14   S    
C13   C15   A    
C14   C16   A    
C45   H27   S    
C7    C42   S    
C21   O5    A    
C13   C20   A    
C14   C19   A    
C30   H8    S    
C9    C40   S    
C17   N2    A    
C22   O8    A    
C40   H22   S    
C22   O6    A    
C11   C12   A    
C46   H31   S    
Cu2   N2    S    
C25   C27   A    
C26   C28   A    
C23   H3    S    
C39   H19   S    
C1    C4    S    
C28   C30   A    
C2    C3    S    
C4    C9    A    
C40   H20   S    
C29   C31   A    
C3    C10   A    
C10   C39   S    
C45   H29   S    
C30   C32   A    
Cu2   O3    S    
Cu1   O1    S    
C14   C38   S    
C17   C19   A    
C31   C35   A    
C23   C25   A    
C42   O11   D    
Cu1   O5    S    
Cu2   O6    S    
C16   C45   S    
C40   H21   S    
C44   O16   S    
O16   H26   S    
C18   N1    A    
