data_mof_unit_32453.cif
_audit_creation_date              2012-12-10T17:40:29-0500
_audit_creation_method            fapswitch 2.2
_symmetry_space_group_name_H-M    P1
_symmetry_Int_Tables_number       1
_space_group_crystal_system       triclinic
_cell_length_a                    13.774898
_cell_length_b                    15.082084
_cell_length_c                    15.752814
_cell_angle_alpha                 88.390167
_cell_angle_beta                  68.931168
_cell_angle_gamma                 91.228031
_cell_volume                      3050.97946684

loop_
_atom_site_label
_atom_site_type_symbol
_atom_type_description
_atom_site_fract_x
_atom_site_fract_y
_atom_site_fract_z
_atom_type_partial_charge
C1    C     C_R   0.501025 0.671032 0.499116 0.870840
C2    C     C_R   0.498927 0.329030 0.500126 0.882020
C3    C     C_R   0.408658 0.582920 0.082015 0.031261
C4    C     C_R   0.626734 0.478442 0.902262 0.020781
C5    C     C_R   0.327809 0.577484 0.047028 -0.055967
C6    C     C_R   0.704948 0.490179 0.938198 -0.028402
C7    C     C_R   0.480422 0.185149 0.584960 0.048983
C8    C     C_R   0.539383 0.816989 0.416801 0.081020
C9    C     C_R   0.495491 0.232507 0.502897 -0.148717
C10   C     C_R   0.501629 0.767506 0.499381 -0.144725
C11   C     C_R   0.509878 0.188940 0.422558 0.081899
C12   C     C_R   0.458615 0.809215 0.582210 0.023187
C13   C     C_R   0.527409 0.097284 0.419906 0.087061
C14   C     C_R   0.472246 0.902190 0.584667 -0.015725
C15   C     C_R   0.500654 0.047022 0.503301 0.010173
C16   C     C_R   0.501336 0.953228 0.501796 0.016718
C17   C     C_R   0.472377 0.090571 0.587678 -0.024387
C18   C     C_R   0.528076 0.910197 0.417371 0.077132
C19   C     C_R   0.564566 0.053939 0.336440 -0.090523
C20   C     C_R   0.452668 0.945207 0.667563 -0.063996
C21   C     C_R   0.548194 0.962091 0.336147 -0.113308
C22   C     C_R   0.442490 0.038100 0.670233 -0.071956
C23   C     C_R   0.436005 0.502174 0.673640 0.854909
C24   C     C_R   0.564025 0.496767 0.326934 0.831107
C25   C     C_R   0.228005 0.564679 0.451699 0.023154
C26   C     C_R   0.771285 0.436768 0.550033 0.027023
C27   C     C_R   0.184418 0.433540 0.547258 0.115116
C28   C     C_R   0.817217 0.562325 0.447304 0.110853
C29   C     C_R   0.080443 0.433258 0.549254 -0.064497
C30   C     C_R   0.920400 0.564902 0.447536 -0.032741
C31   C     C_R   0.051644 0.499891 0.499821 0.098875
C32   C     C_R   0.948392 0.500153 0.499472 0.092021
C33   C     C_R   0.126227 0.565513 0.449778 -0.004287
C34   C     C_R   0.873647 0.434879 0.550119 -0.008264
C35   C     C_R   0.004349 0.367992 0.599358 -0.169130
C36   C     C_R   0.996521 0.629922 0.397005 -0.155430
C37   C     C_R   0.902794 0.368887 0.599509 -0.161595
C38   C     C_R   0.097643 0.630317 0.398567 -0.181042
C39   C     C_R   0.397654 0.508828 0.775083 -0.107302
C40   C     C_R   0.605578 0.491664 0.226154 -0.107590
C41   C     C_R   0.264644 0.518347 0.928020 -0.013423
C42   C     C_R   0.741325 0.461580 0.080079 -0.013966
C43   C     C_R   0.291032 0.507918 0.832876 -0.081589
C44   C     C_R   0.707746 0.464749 0.176249 -0.074836
C45   C     C_R   0.473599 0.514001 0.814981 -0.160939
C46   C     C_R   0.538595 0.511193 0.180002 -0.149881
C47   C     C_R   0.448529 0.517163 0.909101 0.077724
C48   C     C_R   0.572563 0.516895 0.084859 0.070473
C49   C     C_R   0.344933 0.535185 0.963425 0.076071
C50   C     C_R   0.675569 0.492429 0.033810 0.088309
C51   C     C_R   0.525992 0.510727 0.949088 0.018530
C52   C     C_R   0.502236 0.537707 0.039706 0.015747
Cu1   Cu    Cu3+1 0.402580 0.500010 0.499990 1.011447
Cu2   Cu    Cu3+1 0.597420 0.499990 0.500010 0.990242
H1    H     H_    0.285323 0.615139 0.413470 0.164383
H2    H     H_    0.713510 0.387183 0.589363 0.174314
H3    H     H_    0.022152 0.315775 0.639425 0.162442
H4    H     H_    0.978573 0.681353 0.356179 0.165511
H5    H     H_    0.847170 0.317388 0.638060 0.181903
H6    H     H_    0.153681 0.681269 0.359242 0.172669
H7    H     H_    0.457179 0.518398 0.219544 0.183324
H8    H     H_    0.554449 0.520306 0.771393 0.180598
N1    N     N_R   0.256170 0.500070 0.500040 -0.207578
N2    N     N_R   0.743830 0.499930 0.499960 -0.219936
O1    O     O_R   0.417730 0.629750 0.499970 -0.562227
O2    O     O_R   0.582270 0.370250 0.500030 -0.578328
O3    O     O_R   0.582270 0.629730 0.499980 -0.609062
O4    O     O_R   0.417730 0.370270 0.500020 -0.567013
O5    O     O_R   0.371590 0.500020 0.629830 -0.551164
O6    O     O_R   0.628410 0.499980 0.370170 -0.567125
O7    O     O_R   0.536130 0.499990 0.629840 -0.579944
O8    O     O_R   0.463870 0.500010 0.370160 -0.574756
C53   C     C_2   0.233371 0.629028 0.091521 0.492580
H9    H     H_    0.197311 0.627509 0.165206 0.093634
O9    O     O_2   0.197896 0.676528 0.046463 -0.503462
C54   C     C_2   0.814063 0.504989 0.873747 0.449201
H10   H     H_    0.837249 0.483633 0.804277 0.104654
O10   O     O_2   0.877745 0.546586 0.895795 -0.534148
C55   C     C_2   0.215349 0.356613 0.590504 0.462645
H11   H     H_    0.210679 0.290818 0.565724 0.043764
O11   O     O_2   0.240743 0.364520 0.656396 -0.498119
C56   C     C_2   0.790395 0.626321 0.388022 0.462979
H12   H     H_    0.759375 0.689652 0.413830 0.059080
O12   O     O_2   0.810684 0.611434 0.307879 -0.480978
C57   C     C_2   0.773061 0.427235 0.225082 0.473947
H13   H     H_    0.738519 0.381232 0.282990 0.103505
O13   O     O_2   0.865123 0.448633 0.202301 -0.487405
C58   C     C_2   0.207121 0.499595 0.794941 0.455497
H14   H     H_    0.207390 0.543231 0.738999 0.119089
O14   O     O_2   0.136718 0.443685 0.825980 -0.495204
C59   C     C_2   0.154093 0.505818 0.990234 0.499535
H15   H     H_    0.091507 0.529897 0.970234 0.118339
O15   O     O_2   0.132073 0.466525 0.063939 -0.507947
C60   C     C_2   0.834898 0.409904 0.031871 0.485042
H16   H     H_    0.908577 0.424792 0.039478 0.146684
O16   O     O_2   0.829299 0.348655 0.984569 -0.500935
I1    I     I_    0.401927 0.684526 0.177617 -0.282770
I2    I     I_    0.655637 0.375668 0.806490 -0.334278
I3    I     I_    0.480431 0.264221 0.697131 -0.242120
I4    I     I_    0.623747 0.747471 0.295831 -0.256175
I5    I     I_    0.480553 0.260675 0.314088 -0.332421
I6    I     I_    0.351061 0.731552 0.695303 -0.340553
C61   C     C_2   0.633509 0.100840 0.250887 0.436860
H17   H     H_    0.631347 0.083632 0.185293 0.078871
O17   O     O_2   0.696733 0.157976 0.253002 -0.501849
C62   C     C_2   0.457239 0.894345 0.748346 0.508782
H18   H     H_    0.518910 0.847808 0.739277 0.063744
O18   O     O_2   0.389914 0.899531 0.823664 -0.448165
C63   C     C_2   0.532755 0.925511 0.255394 0.454441
H19   H     H_    0.588145 0.940294 0.187269 0.073175
O19   O     O_2   0.455039 0.879877 0.264800 -0.466659
C64   C     C_2   0.387675 0.076973 0.759420 0.534184
H20   H     H_    0.316573 0.112123 0.769964 0.086067
O20   O     O_2   0.423604 0.073703 0.819896 -0.449582

loop_
_geom_bond_atom_site_label_1
_geom_bond_atom_site_label_2
_ccdc_geom_bond_type
C4    I2    S    
C27   C29   A    
C34   C37   A    
C41   C43   A    
C53   H9    S    
C23   O5    A    
Cu1   O5    S    
C64   O20   D    
C24   O6    A    
C47   C49   A    
C57   H13   S    
C40   C46   A    
C7    I3    S    
C43   C58   S    
C35   C37   A    
C54   O10   D    
C2    O4    A    
C63   O19   D    
C62   H18   S    
C15   C16   A    
C18   C21   A    
C45   H8    S    
C11   C13   A    
C15   C17   A    
C25   N1    A    
C45   C47   A    
Cu1   O4    S    
C26   N2    A    
C1    O3    A    
C19   C61   S    
C61   O17   D    
Cu2   O7    S    
C7    C17   A    
C1    O1    A    
C31   C33   A    
Cu1   O1    S    
C39   C45   A    
C48   C50   A    
C53   O9    D    
C5    C49   A    
C42   C44   A    
C41   C49   A    
C64   H20   S    
C26   C34   A    
C20   C62   S    
C57   O13   D    
C46   C48   A    
C13   C19   A    
C46   H7    S    
C28   C56   S    
C51   C52   A    
C23   O7    A    
C54   H10   S    
C4    C6    A    
C59   H15   S    
C55   O11   D    
C39   C43   A    
Cu2   O3    S    
C4    C51   A    
C3    C5    A    
Cu1   Cu2   S    
C8    C18   A    
C32   C34   A    
C2    C9    S    
C12   I6    S    
C14   C20   A    
C59   O15   D    
C3    I1    S    
C21   C63   S    
C31   C32   A    
Cu2   O6    S    
C40   C44   A    
C11   I5    S    
C6    C50   A    
C60   O16   D    
C9    C11   A    
C37   H5    S    
C10   C12   A    
C42   C50   A    
C38   H6    S    
C28   N2    A    
C16   C18   A    
C41   C59   S    
C12   C14   A    
C56   O12   D    
C13   C15   A    
C14   C16   A    
C27   C55   S    
C44   C57   S    
C24   O8    A    
C7    C9    A    
C58   O14   D    
C19   C21   A    
C42   C60   S    
C1    C10   S    
C25   H1    S    
C20   C22   A    
C2    O2    A    
C26   H2    S    
C47   C51   A    
C3    C52   A    
C6    C54   S    
Cu2   O2    S    
C29   C35   A    
C36   H4    S    
C17   C22   A    
C30   C36   A    
C35   H3    S    
C36   C38   A    
C8    I4    S    
C29   C31   A    
C63   H19   S    
C30   C32   A    
Cu1   N1    S    
C62   O18   D    
C23   C39   S    
C28   C30   A    
C24   C40   S    
C5    C53   S    
C60   H16   S    
C55   H11   S    
C48   C52   A    
C58   H14   S    
Cu2   N2    S    
C8    C10   A    
C56   H12   S    
C61   H17   S    
C27   N1    A    
C33   C38   A    
Cu1   O8    S    
C22   C64   S    
C25   C33   A    
