data_mof_unit_59332.cif
_audit_creation_date              2012-12-11T14:43:38-0500
_audit_creation_method            fapswitch 2.2
_symmetry_space_group_name_H-M    P1
_symmetry_Int_Tables_number       1
_space_group_crystal_system       triclinic
_cell_length_a                    8.210333
_cell_length_b                    15.088417
_cell_length_c                    18.912161
_cell_angle_alpha                 97.885008
_cell_angle_beta                  93.50911
_cell_angle_gamma                 98.915827
_cell_volume                      2284.50850198

loop_
_atom_site_label
_atom_site_type_symbol
_atom_type_description
_atom_site_fract_x
_atom_site_fract_y
_atom_site_fract_z
_atom_type_partial_charge
Ba1   Ba    Ba6+2 0.852920 0.542430 0.466290 1.822108
Ba2   Ba    Ba6+2 0.336920 0.457650 0.533720 1.787883
C1    C     C_3   0.723564 0.871912 0.280469 -0.179232
C2    C     C_3   0.666048 0.781288 0.304918 0.416130
C3    C     C_3   0.557757 0.256190 0.290348 0.596882
C4    C     C_3   0.570887 0.154502 0.272311 0.450686
C5    C     C_3   0.061981 0.264564 0.719373 0.355234
C6    C     C_3   0.052020 0.235310 0.792975 -0.315801
C7    C     C_3   0.578191 0.230089 0.752317 0.801713
C8    C     C_3   0.579133 0.206784 0.828374 -0.278090
C9    C     C_2   0.289051 0.536231 0.300264 -0.156189
C10   C     C_3   0.393315 0.591242 0.253492 -0.068675
C11   C     C_2   0.350783 0.562239 0.174218 -0.018798
C12   C     C_3   0.192371 0.793167 0.269630 0.242980
C13   C     C_2   0.207241 0.506976 0.148958 -0.022425
C14   C     C_2   0.101428 0.465901 0.203010 -0.022396
C15   C     C_1   0.151439 0.480830 0.273186 0.098449
C16   C     C_R   0.052402 0.486826 0.927530 0.478201
C17   C     C_R   0.153843 0.494609 0.069765 0.534623
C18   C     C_R   0.097762 0.521347 0.799825 -0.143225
C19   C     C_R   0.038052 0.517297 0.727105 0.018122
C20   C     C_R   0.772427 0.439092 0.753331 -0.000723
C21   C     C_R   0.829623 0.444626 0.825315 -0.142587
C22   C     C_R   0.994108 0.483948 0.849856 -0.057092
C23   C     C_3   0.132901 0.816972 0.196880 0.655222
C24   C     C_R   0.876973 0.474282 0.704863 -0.246798
C25   C     C_R   0.760944 0.229925 0.510838 -0.176068
C26   C     C_R   0.862522 0.171500 0.532936 -0.034869
C27   C     C_R   0.812896 0.077500 0.515569 -0.105652
C28   C     C_R   0.659687 0.040363 0.475632 0.075886
C29   C     C_R   0.562620 0.102512 0.451083 -0.018884
C30   C     C_R   0.615330 0.196337 0.466972 0.023437
C31   C     C_R   0.439185 0.903036 0.426807 -0.122259
C32   C     C_R   0.354117 0.818404 0.437137 -0.068324
C33   C     C_R   0.586588 0.793062 0.510435 -0.034475
C34   C     C_3   0.086660 0.729822 0.724651 0.353030
C35   C     C_R   0.675105 0.877999 0.501307 -0.096275
C36   C     C_R   0.594645 0.939378 0.465729 0.033785
C37   C     C_R   0.415350 0.781776 0.495186 0.183052
C38   C     C_3   0.160172 0.769024 0.800350 -0.362561
C39   C     C_3   0.980742 0.260456 0.376695 0.460683
C40   C     C_3   0.024665 0.165731 0.359941 -0.275794
C41   C     C_3   0.622211 0.680378 0.685673 0.312943
C42   C     C_3   0.633828 0.718272 0.765008 -0.343409
H1    H     H_    0.716713 0.784690 0.361213 0.009168
H2    H     H_    0.268437 0.822625 0.798532 0.164556
H3    H     H_    0.200781 0.715122 0.828139 0.104681
H4    H     H_    0.851227 0.254039 0.388773 -0.216383
H5    H     H_    0.058735 0.296470 0.424764 0.048084
H6    H     H_    0.931999 0.122661 0.319569 0.165154
H7    H     H_    0.027358 0.133262 0.409005 0.026587
H8    H     H_    0.148018 0.169249 0.338745 0.135857
H9    H     H_    0.650584 0.610158 0.679147 0.006286
H10   H     H_    0.495922 0.681387 0.664003 0.132383
H11   H     H_    0.858470 0.893533 0.293312 0.100441
H12   H     H_    0.757671 0.716588 0.791050 0.093702
H13   H     H_    0.539521 0.676760 0.791821 0.096482
H14   H     H_    0.610146 0.789333 0.771950 0.165357
H15   H     H_    0.528961 0.771192 0.302541 -0.165631
H16   H     H_    0.659698 0.924611 0.308320 0.073243
H17   H     H_    0.677771 0.296906 0.312254 -0.002222
H18   H     H_    0.630525 0.132669 0.319464 -0.274691
H19   H     H_    0.444612 0.114022 0.261510 0.066493
H20   H     H_    0.694191 0.866511 0.221894 0.210458
H21   H     H_    0.170479 0.319103 0.721706 0.102079
H22   H     H_    0.948969 0.292301 0.705456 -0.052905
H23   H     H_    0.168051 0.211453 0.809168 0.154872
H24   H     H_    0.034377 0.293268 0.833031 0.062681
H25   H     H_    0.946481 0.179318 0.791826 0.128352
H26   H     H_    0.705720 0.258734 0.743243 -0.260648
H27   H     H_    0.666586 0.158987 0.835950 0.112122
H28   H     H_    0.453605 0.175174 0.839289 0.132872
H29   H     H_    0.236929 0.727413 0.261702 0.006706
H30   H     H_    0.618490 0.269130 0.867793 0.060568
H31   H     H_    0.430124 0.594940 0.138228 0.143081
H32   H     H_    0.983488 0.423314 0.184393 0.133696
H33   H     H_    0.222777 0.554758 0.817394 0.109946
H34   H     H_    0.317648 0.553520 0.357761 0.028231
H35   H     H_    0.829979 0.471959 0.649817 0.054615
H36   H     H_    0.377022 0.941370 0.393111 0.064915
H37   H     H_    0.895658 0.035266 0.534298 0.083362
H38   H     H_    0.800214 0.895929 0.525363 0.106415
H39   H     H_    0.295668 0.846831 0.293386 -0.039108
H40   H     H_    0.445592 0.080822 0.419944 0.033317
H41   H     H_    0.061057 0.873383 0.206727 -0.022767
H42   H     H_    0.048706 0.786021 0.698809 0.121077
N1    N     N_R   0.209049 0.525035 0.953740 -0.216191
N2    N     N_R   0.258076 0.528911 0.022986 -0.205233
N3    N     N_R   0.997667 0.455448 0.043429 -0.198986
N4    N     N_R   0.948598 0.451542 0.974095 -0.224029
O1    O     O_2   0.864880 0.449170 0.328210 -0.453459
O2    O     O_3   0.731813 0.735362 0.650232 -0.623605
O3    O     O_3   0.062167 0.789304 0.314487 -0.610582
O4    O     O_2   0.324830 0.550860 0.671840 -0.488526
O5    O     O_3   0.072140 0.549400 0.584410 -0.449285
O6    O     O_3   0.531230 0.386060 0.627150 -0.443157
O7    O     O_3   0.208348 0.694847 0.685098 -0.551444
O8    O     O_3   0.606300 0.390910 0.463140 -0.469006
O9    O     O_3   0.106650 0.339290 0.591370 -0.520004
O10   O     O_2   0.206004 0.181566 0.547335 -0.394682
O11   O     O_3   0.078100 0.189590 0.668984 -0.552702
O12   O     O_3   0.117570 0.450680 0.415600 -0.516450
O13   O     O_3   0.583420 0.609160 0.536870 -0.516211
O14   O     O_2   0.332740 0.278830 0.463690 -0.452965
O15   O     O_3   0.434355 0.267314 0.337985 -0.674879
O16   O     O_2   0.446349 0.459662 0.752093 -0.500358
O17   O     O_3   0.462918 0.288756 0.743788 -0.611586
O18   O     O_3   0.658480 0.614010 0.372860 -0.515643
O19   O     O_2   0.709493 0.534150 0.243576 -0.379012
O20   O     O_3   0.997709 0.304117 0.316139 -0.573358
O21   O     O_3   0.721508 0.711164 0.260534 -0.496823
O22   O     O_2   0.856970 0.721200 0.536350 -0.398415
O23   O     O_3   0.083060 0.660780 0.408640 -0.456690
O24   O     O_2   0.015948 0.821856 0.449350 -0.434157
P1    P     P_3+3 0.032340 0.422550 0.338860 1.065026
P2    P     P_3+3 0.682000 0.708060 0.557320 1.046224
P3    P     P_3+3 0.133881 0.775844 0.401131 1.030752
P4    P     P_3+3 0.157370 0.577530 0.661150 1.053857
P5    P     P_3+3 0.062994 0.220524 0.583263 1.020683
P6    P     P_3+3 0.619917 0.608363 0.280946 1.109166
P7    P     P_3+3 0.503979 0.279439 0.429341 0.945566
P8    P     P_3+3 0.556314 0.392531 0.720531 0.980751
H43   H     H_    0.066054 0.799192 0.831043 0.113832
S1    S     S_3+6 0.494297 0.301079 0.212006 -0.008627
O25   O     O_2   0.354865 0.235985 0.168785 -0.253971
O26   O     O_2   0.434598 0.388062 0.236010 -0.366140
O27   O     O_3   0.652335 0.322820 0.161125 -0.457797
H44   H     H_    0.610025 0.356382 0.124393 0.365185
S2    S     S_3+6 0.688004 0.125628 0.197366 0.020149
O28   O     O_2   0.747330 0.037712 0.204009 -0.303499
O29   O     O_2   0.579534 0.114021 0.128688 -0.166653
O30   O     O_3   0.853291 0.205659 0.194777 -0.474026
H45   H     H_    0.912286 0.181642 0.154112 0.381750
S3    S     S_3+6 0.305582 0.857546 0.149993 -0.037583
O31   O     O_2   0.244171 0.882600 0.080073 -0.222778
O32   O     O_2   0.406292 0.940008 0.194644 -0.304842
O33   O     O_3   0.423366 0.776361 0.134433 -0.525456
H46   H     H_    0.501856 0.798567 0.100560 0.390480
S4    S     S_3+6 0.518079 0.128738 0.689419 -0.010820
O34   O     O_2   0.352060 0.080777 0.704330 -0.221416
O35   O     O_2   0.506683 0.152641 0.615081 -0.293101
O36   O     O_3   0.658200 0.059254 0.695538 -0.493192
H47   H     H_    0.758316 0.090009 0.676723 0.321812
H48   H     H_    0.744925 0.418668 0.862024 0.090631
S5    S     S_3+6 0.306174 0.808238 0.569472 -0.057427
O37   O     O_2   0.164625 0.732074 0.564437 -0.293283
O38   O     O_2   0.413088 0.819346 0.638384 -0.310464
O39   O     O_3   0.232757 0.905813 0.565576 -0.461556
H49   H     H_    0.150801 0.907515 0.601859 0.362698
H50   H     H_    0.800869 0.302407 0.524368 0.035949
S6    S     S_3+6 0.001091 0.722801 0.142001 -0.004136
O40   O     O_2   0.078551 0.692710 0.074730 -0.240199
O41   O     O_2   0.968151 0.643910 0.182491 -0.284366
O42   O     O_3   0.819984 0.754386 0.119089 -0.485397
H51   H     H_    0.849586 0.806399 0.092963 0.344506
H52   H     H_    0.972721 0.680454 0.726680 -0.088787

loop_
_geom_bond_atom_site_label_1
_geom_bond_atom_site_label_2
_ccdc_geom_bond_type
O8    P7    S    
C19   C24   A    
C24   H35   S    
C38   H3    S    
S4    O35   D    
C39   C40   S    
O18   P6    S    
N1    N2    A    
S3    O33   S    
S5    O37   D    
Ba2   P4    S    
C5    C6    S    
C3    O15   S    
C1    H20   S    
C13   C17   S    
C10   C11   S    
C3    S1    S    
C15   P1    S    
C6    H25   S    
C27   C28   A    
Ba1   O23   S    
C18   H33   S    
C16   C22   S    
Ba2   O5    S    
C33   C35   A    
C35   C36   A    
Ba1   O22   S    
C28   C29   A    
S4    O36   S    
Ba2   O12   S    
C13   C14   S    
C28   C36   S    
Ba1   Ba2   S    
S6    O42   S    
O7    P4    S    
O12   P1    S    
C10   P6    S    
C1    H11   S    
C41   H9    S    
C9    C15   D    
C11   H31   S    
C42   H14   S    
C14   C15   D    
C21   C22   A    
C34   O7    S    
Ba1   P2    S    
Ba2   O14   S    
C7    C8    S    
Ba1   O13   S    
C12   O3    S    
C40   H7    S    
S2    O30   S    
C1    H16   S    
C32   P3    S    
S6    O40   D    
Ba1   O1    S    
O4    P4    D    
C37   S5    S    
O3    P3    S    
C12   H39   S    
C4    S2    S    
C7    S4    S    
C39   H5    S    
S5    O38   D    
C20   P8    S    
C2    H1    S    
C20   C21   A    
O5    P4    S    
S4    O34   D    
O15   P7    S    
C32   C37   A    
O11   P5    S    
C12   H29   S    
C18   C22   A    
Ba2   O4    S    
O39   H49   S    
C17   N2    A    
O30   H45   S    
S3    O32   D    
O14   P7    D    
C34   H42   S    
C29   H40   S    
O21   P6    S    
C16   N4    A    
C4    H19   S    
C33   C37   A    
C41   C42   S    
C27   H37   S    
C19   P4    S    
C17   N3    A    
C9    H34   S    
C5    H21   S    
C42   H12   S    
C41   H10   S    
C29   C30   A    
C34   C38   S    
C42   H13   S    
Ba1   O5    S    
O16   P8    D    
C23   H41   S    
C31   C32   A    
C3    H17   S    
C33   P2    S    
O10   P5    D    
C7    H26   S    
C23   S3    S    
O2    P2    S    
O42   H51   S    
C40   H6    S    
S1    O27   S    
O23   P3    S    
C2    O21   S    
Ba2   O9    S    
C6    H24   S    
C25   H50   S    
C39   O20   S    
C11   C13   D    
C5    O11   S    
C21   H48   S    
C38   H2    S    
O27   H44   S    
O22   P2    D    
S5    O39   S    
C34   H52   S    
S1    O26   D    
S2    O28   D    
C38   H43   S    
C26   C27   A    
C25   C30   A    
C14   H32   S    
C30   P7    S    
C41   O2    S    
C26   P5    S    
Ba1   O8    S    
C9    C10   S    
C31   H36   S    
S3    O31   D    
C7    O17   S    
O33   H46   S    
C16   N1    A    
O6    P8    S    
C23   S6    S    
C4    H18   S    
Ba2   O6    S    
O13   P2    S    
C8    H27   S    
C5    H22   S    
C8    H30   S    
C3    C4    S    
Ba2   O13   S    
O20   P1    S    
C2    H15   S    
C39   H4    S    
O1    P1    D    
S6    O41   D    
C12   C23   S    
C35   H38   S    
O24   P3    D    
Ba1   O18   S    
O9    P5    S    
C18   C19   A    
Ba2   O8    S    
C6    H23   S    
C20   C24   A    
C25   C26   A    
O36   H47   S    
C31   C36   A    
Ba1   P1    S    
O17   P8    S    
N3    N4    A    
Ba1   O12   S    
C1    C2    S    
O19   P6    D    
C40   H8    S    
S1    O25   D    
S2    O29   D    
C8    H28   S    
