data_mof_unit_27867.cif
_audit_creation_date              2012-12-11T17:08:28-0500
_audit_creation_method            fapswitch 2.2
_symmetry_space_group_name_H-M    P1
_symmetry_Int_Tables_number       1
_space_group_crystal_system       triclinic
_cell_length_a                    6.955395
_cell_length_b                    14.51799
_cell_length_c                    16.095328
_cell_angle_alpha                 90.001231
_cell_angle_beta                  89.971301
_cell_angle_gamma                 90.020573
_cell_volume                      1625.2794365

loop_
_atom_site_label
_atom_site_type_symbol
_atom_type_description
_atom_site_fract_x
_atom_site_fract_y
_atom_site_fract_z
_atom_type_partial_charge
O1    O     O_R   0.505700 0.583890 0.413310 -0.533699
O2    O     O_R   0.175960 0.594920 0.586080 -0.546110
O3    O     O_R   0.005660 0.416110 0.586690 -0.543307
C1    C     C_R   0.344726 0.616883 0.614892 0.686331
O4    O     O_R   0.175980 0.594920 0.413930 -0.529071
O5    O     O_R   0.005680 0.416110 0.413310 -0.539116
C2    C     C_R   0.344806 0.616931 0.385172 0.709598
O6    O     O_R   0.505680 0.583890 0.586690 -0.543881
O7    O     O_3   0.339200 0.441330 0.500000 -0.374142
V1    V     V_3+5 0.064350 0.510880 0.500000 1.427067
O8    O     O_R   0.675960 0.405080 0.413920 -0.537640
C3    C     C_R   0.845021 0.383204 0.385025 0.736411
O9    O     O_R   0.675940 0.405080 0.586070 -0.536795
C4    C     C_R   0.844201 0.385643 0.616882 0.690511
V2    V     V_3+5 0.564340 0.489120 0.500000 1.426259
O10   O     O_3   0.839360 0.558670 0.500000 -0.370011
C5    C     C_R   0.025891 0.277403 0.708980 0.057139
C6    C     C_R   0.854324 0.323964 0.690650 -0.182304
C7    C     C_R   0.698820 0.311662 0.747724 0.321675
C8    C     C_R   0.711066 0.243374 0.810160 -0.182996
H1    H     H_    0.588184 0.232364 0.850348 0.149201
C9    C     C_R   0.879371 0.190578 0.821454 -0.164019
C10   C     C_R   0.039239 0.213963 0.773190 0.050875
C11   C     C_3   0.175609 0.154242 0.725910 -0.361841
C12   C     C_3   0.160881 0.223664 0.655170 0.203320
H2    H     H_    0.320415 0.152634 0.755020 0.139952
H3    H     H_    0.298170 0.259985 0.641081 0.127735
C13   C     C_R   0.727583 0.182639 0.241487 0.100753
C14   C     C_R   0.881913 0.182504 0.185462 -0.111952
C15   C     C_R   0.033445 0.244544 0.201004 -0.176721
H4    H     H_    0.155868 0.246903 0.159734 0.134960
C16   C     C_R   0.022246 0.308738 0.266515 -0.162797
H5    H     H_    0.136960 0.358348 0.273888 0.134958
C17   C     C_R   0.858884 0.313051 0.318299 -0.118839
C18   C     C_R   0.716084 0.246410 0.306090 0.108316
C19   C     C_3   0.505198 0.258644 0.294386 -0.408110
C20   C     C_3   0.517582 0.188780 0.224318 -0.400861
H6    H     H_    0.421192 0.233660 0.348668 0.178412
C21   C     C_R   0.506100 0.681982 0.741969 0.104700
C22   C     C_R   0.352583 0.682293 0.685594 -0.108541
C23   C     C_R   0.201529 0.744661 0.700891 -0.174750
H7    H     H_    0.079457 0.747235 0.659476 0.131438
C24   C     C_R   0.212841 0.808916 0.766355 -0.171508
H8    H     H_    0.098597 0.858797 0.773511 0.125356
C25   C     C_R   0.375785 0.812926 0.818362 -0.110719
C26   C     C_R   0.517706 0.745783 0.806521 0.111602
C27   C     C_3   0.729106 0.756998 0.795479 -0.402636
C28   C     C_3   0.716562 0.687034 0.725467 -0.407474
H9    H     H_    0.811498 0.731723 0.850063 0.184460
H10   H     H_    0.767349 0.827340 0.773833 0.165733
H11   H     H_    0.790798 0.621106 0.739742 0.168154
H12   H     H_    0.748399 0.716533 0.663238 0.170818
C29   C     C_R   0.504711 0.681130 0.257412 -0.054607
C30   C     C_R   0.352769 0.682433 0.314586 -0.109324
C31   C     C_R   0.202974 0.745711 0.300086 -0.107545
H13   H     H_    0.081851 0.748919 0.342061 0.111291
C32   C     C_R   0.214347 0.809987 0.234636 -0.107410
H14   H     H_    0.101243 0.860570 0.228142 0.114986
C33   C     C_R   0.375852 0.813010 0.181686 -0.113058
C34   C     C_R   0.516139 0.744932 0.192577 -0.045440
C35   C     C_3   0.729604 0.754623 0.201965 0.197815
C36   C     C_3   0.717188 0.684628 0.272749 0.191225
H15   H     H_    0.772644 0.824721 0.222410 0.064264
O11   O     O_R   0.229000 0.916070 0.913330 -0.539071
O12   O     O_R   0.558770 0.905070 0.086080 -0.533359
O13   O     O_R   0.729000 0.083900 0.086690 -0.540416
C37   C     C_R   0.389714 0.883146 0.114957 0.709553
O14   O     O_R   0.558720 0.905070 0.913930 -0.539172
O15   O     O_R   0.728960 0.083900 0.913310 -0.544489
C38   C     C_R   0.389683 0.883138 0.885058 0.699832
O16   O     O_R   0.229050 0.916070 0.086710 -0.530541
O17   O     O_3   0.395460 0.058650 0.000020 -0.377503
V3    V     V_3+5 0.670340 0.989120 0.000000 1.431951
O18   O     O_R   0.058670 0.094960 0.913900 -0.540033
C39   C     C_R   0.889775 0.117523 0.885617 0.708069
O19   O     O_R   0.058720 0.094960 0.086050 -0.546571
C40   C     C_R   0.889914 0.116992 0.114822 0.687317
V4    V     V_3+5 0.170330 0.010930 0.999970 1.419667
O20   O     O_3   0.895340 0.941350 0.999980 -0.355051
O21   O     O_3   0.533216 0.363691 0.745069 -0.655237
H16   H     H_    0.566748 0.425953 0.724616 0.284706
H17   H     H_    0.487684 0.218574 0.162035 0.172506
H18   H     H_    0.441483 0.123215 0.238233 0.165701
O22   O     O_3   0.834982 0.723981 0.132398 -0.608031
H19   H     H_    0.762095 0.674191 0.104147 0.299023
H20   H     H_    0.753192 0.713521 0.334738 0.073880
O23   O     O_3   0.813198 0.600927 0.256748 -0.615156
H21   H     H_    0.739678 0.565259 0.214772 0.292416
H22   H     H_    0.113914 0.085364 0.711428 0.176311
O24   O     O_3   0.068684 0.185987 0.585549 -0.637218
H23   H     H_    0.080740 0.232582 0.540744 0.284176
H24   H     H_    0.468944 0.329212 0.272724 0.168654

loop_
_geom_bond_atom_site_label_1
_geom_bond_atom_site_label_2
_ccdc_geom_bond_type
C31   H13   S    
C23   H7    S    
C4    C6    S    
C7    C8    A    
C1    O6    A    
C11   H22   S    
O24   H23   S    
C27   H9    S    
C25   C26   A    
C36   H20   S    
C12   O24   S    
C5    C10   A    
C19   C20   S    
O19   V4    S    
C17   C18   A    
O5    C3    A    
C15   H4    S    
C32   C33   A    
V2    O10   S    
O12   V3    S    
C6    C7    A    
C35   H15   S    
O17   V4    S    
C33   C37   S    
C26   C27   S    
O8    V2    S    
O22   H19   S    
C28   H11   S    
C1    C22   S    
C13   C18   A    
O12   C37   A    
C10   C11   S    
O15   V3    S    
O1    V2    S    
O11   C38   A    
O7    V1    S    
C19   H24   S    
C33   C34   A    
O9    C4    A    
C23   C24   A    
C35   C36   S    
C9    C39   S    
C29   C34   A    
C27   H10   S    
O18   C39   A    
C11   C12   S    
C21   C22   A    
O4    C2    A    
V4    O20   S    
O21   H16   S    
O14   V3    S    
C29   C30   A    
O13   V3    S    
C34   C35   S    
C18   C19   S    
C16   C17   A    
O2    C1    A    
C24   H8    S    
C14   C15   A    
C29   C36   S    
C27   C28   S    
C5    C6    A    
V3    O20   S    
O19   C40   A    
C24   C25   A    
O3    C4    A    
C21   C26   A    
C22   C23   A    
C8    C9    A    
O6    V2    S    
O9    V2    S    
C20   H17   S    
C3    C17   S    
O2    V1    S    
O13   C40   A    
C30   C31   A    
C13   C14   A    
C25   C38   S    
O1    C2    A    
O11   V4    S    
C11   H2    S    
O17   V3    S    
C35   O22   S    
O5    V1    S    
O8    C3    A    
C12   H3    S    
C36   O23   S    
C5    C12   S    
C16   H5    S    
C31   C32   A    
O7    V2    S    
O4    V1    S    
O3    V1    S    
V1    O10   S    
C15   C16   A    
C32   H14   S    
C13   C20   S    
C19   H6    S    
O15   C39   A    
C37   O16   A    
C7    O21   S    
C28   H12   S    
C14   C40   S    
C8    H1    S    
O23   H21   S    
O14   C38   A    
O18   V4    S    
C9    C10   A    
C20   H18   S    
C2    C30   S    
O16   V4    S    
C21   C28   S    
