data_mof_unit_30786.cif
_audit_creation_date              2012-12-10T19:15:24-0500
_audit_creation_method            fapswitch 2.2
_symmetry_space_group_name_H-M    P1
_symmetry_Int_Tables_number       1
_space_group_crystal_system       triclinic
_cell_length_a                    10.632235
_cell_length_b                    9.745019
_cell_length_c                    23.23873
_cell_angle_alpha                 89.287865
_cell_angle_beta                  88.499613
_cell_angle_gamma                 90.152036
_cell_volume                      2406.7736509

loop_
_atom_site_label
_atom_site_type_symbol
_atom_type_description
_atom_site_fract_x
_atom_site_fract_y
_atom_site_fract_z
_atom_type_partial_charge
C1    C     C_R   0.258578 0.499758 0.505348 0.892809
C2    C     C_R   0.241289 0.604077 0.971171 -0.125964
C3    C     C_R   0.234202 0.601313 0.031134 -0.136700
C4    C     C_R   0.320653 0.523946 0.062510 0.003811
C5    C     C_R   0.411991 0.444783 0.033087 -0.015940
C6    C     C_R   0.497065 0.364151 0.064107 -0.117509
C7    C     C_R   0.587684 0.285522 0.034698 -0.221689
C8    C     C_R   0.598369 0.291783 0.974943 0.686758
C9    C     C_R   0.322466 0.528459 0.122684 0.524667
C10   C     C_R   0.493042 0.369174 0.124076 0.559843
C11   C     C_R   0.539992 0.539221 0.228754 -0.134328
C12   C     C_R   0.498107 0.500427 0.389408 0.962312
C13   C     C_R   0.568055 0.546874 0.286971 -0.039237
C14   C     C_R   0.477208 0.499255 0.328015 -0.091700
C15   C     C_R   0.362629 0.444142 0.310360 -0.225117
C16   C     C_R   0.338033 0.433483 0.252238 -0.055234
C17   C     C_R   0.427505 0.479320 0.211458 0.264803
C18   C     C_R   0.437739 0.368233 0.760777 -0.093256
C19   C     C_R   0.452872 0.372606 0.701567 -0.179375
C20   C     C_R   0.488728 0.495089 0.673585 -0.032334
C21   C     C_R   0.511913 0.612936 0.705655 -0.231354
C22   C     C_R   0.501532 0.608805 0.765881 0.004315
C23   C     C_R   0.742409 0.500018 0.502201 0.913370
C24   C     C_R   0.461961 0.484630 0.793253 0.222150
C25   C     C_3   0.068295 0.636391 0.535705 -0.176074
C26   C     C_3   0.067831 0.368061 0.540314 -0.191996
C27   C     C_3   0.924378 0.623533 0.541293 -0.418101
C28   C     C_3   0.923691 0.365439 0.535300 -0.455062
C29   C     C_3   0.079419 0.495801 0.445471 -0.497446
C30   C     C_3   0.122177 0.500175 0.508797 0.014732
C31   C     C_3   0.878928 0.499648 0.505571 0.096181
C32   C     C_3   0.936321 0.508063 0.443839 -0.322667
C33   C     C_3   0.391088 0.081481 0.467539 -0.230680
C34   C     C_3   0.394485 0.920112 0.465283 -0.230266
C35   C     C_3   0.619399 0.083507 0.473097 -0.158801
C36   C     C_3   0.621748 0.920661 0.475572 -0.160248
C37   C     C_3   0.488310 0.079339 0.558175 -0.271394
C38   C     C_3   0.483229 0.917068 0.558004 -0.254864
C39   C     C_R   0.498817 0.499001 0.610887 0.921601
C40   C     C_R   0.529267 0.391589 0.883585 0.593078
C41   C     C_R   0.349685 0.538918 0.881672 0.567312
C42   C     C_R   0.335930 0.530914 0.941600 0.023133
C43   C     C_R   0.420879 0.449616 0.972608 -0.085506
C44   C     C_R   0.516752 0.376059 0.943421 -0.172096
H1    H     H_    0.174525 0.666453 0.948169 0.201828
H2    H     H_    0.434908 0.280208 0.677692 0.163735
H3    H     H_    0.541300 0.706846 0.683689 0.186630
H4    H     H_    0.088587 0.721009 0.504046 0.136953
H5    H     H_    0.104038 0.276707 0.516780 0.149855
H6    H     H_    0.893037 0.608663 0.587073 0.199582
H7    H     H_    0.874740 0.352381 0.577987 0.186810
H8    H     H_    0.882735 0.721657 0.525999 0.209701
H9    H     H_    0.897225 0.274952 0.509359 0.211124
H10   H     H_    0.123141 0.580827 0.419312 0.184935
H11   H     H_    0.109385 0.397948 0.425011 0.189403
H12   H     H_    0.912167 0.607478 0.423506 0.240089
H13   H     H_    0.898928 0.425357 0.416737 0.236877
H14   H     H_    0.385596 0.126411 0.423705 0.199059
H15   H     H_    0.399421 0.886121 0.420017 0.209372
H16   H     H_    0.162489 0.661952 0.052775 0.200591
H17   H     H_    0.301680 0.113267 0.489443 0.162665
H18   H     H_    0.303389 0.879126 0.482811 0.149986
H19   H     H_    0.568706 0.113822 0.584142 0.160264
H20   H     H_    0.557549 0.875916 0.586205 0.165746
H21   H     H_    0.402377 0.119388 0.580294 0.211905
H22   H     H_    0.392050 0.881024 0.577480 0.188639
H23   H     H_    0.697452 0.118068 0.500585 0.120476
H24   H     H_    0.695593 0.892816 0.506852 0.115388
H25   H     H_    0.653234 0.221930 0.057878 0.223857
H26   H     H_    0.608500 0.572226 0.196070 0.186846
H27   H     H_    0.293105 0.406937 0.341800 0.138070
H28   H     H_    0.251333 0.386442 0.238881 0.157715
H29   H     H_    0.407967 0.273363 0.781842 0.158063
N1    N     N_R   0.447271 0.473015 0.854380 -0.354870
N2    N     N_R   0.410627 0.455184 0.151748 -0.354776
N3    N     N_3   0.499750 0.138610 0.498760 -0.087262
N4    N     N_3   0.499750 0.861390 0.498760 -0.088624
O1    O     O_R   0.314910 0.616040 0.499990 -0.638034
O2    O     O_R   0.314910 0.383960 0.499990 -0.631923
O3    O     O_R   0.500080 0.616070 0.416130 -0.589100
O4    O     O_R   0.500080 0.383930 0.416130 -0.605635
O5    O     O_R   0.685320 0.616040 0.499970 -0.631955
O6    O     O_R   0.685320 0.383960 0.499970 -0.622222
O7    O     O_R   0.500150 0.616010 0.583820 -0.621827
O8    O     O_R   0.500150 0.383990 0.583820 -0.632303
O9    O     O_2   0.623303 0.327611 0.854557 -0.456962
O10   O     O_2   0.267459 0.612939 0.850832 -0.531942
O11   O     O_2   0.240093 0.608686 0.151764 -0.541435
O12   O     O_2   0.573120 0.291680 0.154705 -0.526171
Zn1   Zn    Zn3+2 0.500150 0.654960 0.499970 0.958728
Zn2   Zn    Zn3+2 0.500150 0.345040 0.499970 0.953600
C45   C     C_2   0.535385 0.733575 0.798443 0.966619
O13   O     O_2   0.563311 0.725041 0.849065 -0.597488
O14   O     O_R   0.538018 0.861711 0.770590 -0.803918
H30   H     H_    0.562896 0.938745 0.796972 0.371018
C46   C     C_2   0.123645 0.686678 0.591360 0.948885
O15   O     O_2   0.211566 0.627782 0.613720 -0.614134
O16   O     O_R   0.075434 0.806369 0.615975 -0.796765
H31   H     H_    0.120074 0.832423 0.652302 0.362391
C47   C     C_2   0.106823 0.348495 0.602097 0.969402
O17   O     O_2   0.055574 0.412924 0.640953 -0.584839
O18   O     O_R   0.197826 0.250480 0.614901 -0.827465
H32   H     H_    0.212459 0.242041 0.657715 0.345088
C48   C     C_2   0.652047 0.145174 0.414005 0.996489
O19   O     O_2   0.582357 0.130530 0.373497 -0.591692
O20   O     O_R   0.766678 0.213426 0.405308 -0.827937
H33   H     H_    0.779519 0.247872 0.364214 0.354709
C49   C     C_2   0.670164 0.858252 0.419857 0.999782
O21   O     O_2   0.603233 0.848375 0.378167 -0.587410
O22   O     O_R   0.798228 0.828375 0.414383 -0.839684
H34   H     H_    0.824973 0.804861 0.373561 0.353392
F1    F     F_    0.689861 0.216505 0.948569 -0.591408
C50   C     C_2   0.695524 0.593977 0.302412 0.943450
O23   O     O_2   0.740335 0.558775 0.348091 -0.691379
O24   O     O_R   0.766838 0.674829 0.263484 -0.772356
H35   H     H_    0.853578 0.696923 0.278002 0.345865

loop_
_geom_bond_atom_site_label_1
_geom_bond_atom_site_label_2
_ccdc_geom_bond_type
C33   H14   S    
C23   O5    A    
C36   C49   S    
C41   C42   A    
C19   C20   A    
C16   H28   S    
C48   O20   S    
O8    Zn2   S    
C19   H2    S    
C7    C8    A    
O1    Zn1   S    
C37   C38   S    
C23   O6    A    
C18   C24   A    
C39   O7    A    
C29   C32   S    
C36   N4    S    
C8    F1    S    
C9    O11   S    
C5    C6    A    
C28   H7    S    
O20   H33   S    
O24   H35   S    
C34   H18   S    
C49   O21   D    
C18   C19   A    
C40   O9    S    
O22   H34   S    
C45   O13   D    
C41   N1    A    
C38   H22   S    
C10   O12   S    
C49   O22   S    
C16   C17   A    
C37   H21   S    
O2    Zn2   S    
C27   H6    S    
C3    H16   S    
C5    C43   A    
C21   C22   A    
C1    O1    A    
O18   H32   S    
O7    Zn1   S    
C32   H13   S    
C47   O18   S    
C48   O19   D    
C37   H19   S    
C38   H20   S    
C2    H1    S    
C41   O10   S    
C35   N3    S    
C11   H26   S    
C27   C31   S    
C35   C48   S    
C26   H5    S    
C20   C39   S    
C29   H11   S    
C46   O16   S    
C35   C36   S    
C23   C31   S    
C43   C44   A    
C7    H25   S    
C29   C30   S    
C10   N2    A    
C33   N3    S    
C31   C32   S    
C35   H23   S    
C46   O15   D    
C45   O14   S    
C33   C34   S    
C25   H4    S    
C37   N3    S    
C12   C14   S    
C26   C30   S    
C18   H29   S    
C34   H15   S    
C1    O2    A    
C22   C24   A    
C42   C43   A    
C39   O8    A    
C3    C4    A    
O6    Zn2   S    
C27   H8    S    
C50   O23   D    
C25   C30   S    
C11   C17   A    
C28   C31   S    
C8    C44   A    
C4    C5    A    
C6    C10   A    
C28   H9    S    
C36   H24   S    
C6    C7    A    
C38   N4    S    
C25   C27   S    
C15   H27   S    
C26   C28   S    
O5    Zn1   S    
C2    C3    A    
C34   N4    S    
C11   C13   A    
C24   N1    S    
C2    C42   A    
C12   O3    A    
C1    C30   S    
C40   N1    A    
C12   O4    A    
O3    Zn1   S    
O14   H30   S    
N3    Zn2   S    
O4    Zn2   S    
C40   C44   A    
C20   C21   A    
C25   C46   S    
C33   H17   S    
O16   H31   S    
C29   H10   S    
C17   N2    S    
N4    Zn1   S    
C22   C45   S    
C14   C15   A    
C47   O17   D    
C9    N2    A    
C21   H3    S    
C4    C9    A    
C13   C14   A    
C32   H12   S    
C13   C50   S    
C15   C16   A    
C26   C47   S    
C50   O24   S    
