data_mof_unit_44197.cif
_audit_creation_date              2012-12-11T14:04:06-0500
_audit_creation_method            fapswitch 2.2
_symmetry_space_group_name_H-M    P1
_symmetry_Int_Tables_number       1
_space_group_crystal_system       triclinic
_cell_length_a                    19.152903
_cell_length_b                    10.914385
_cell_length_c                    18.90853
_cell_angle_alpha                 90.192859
_cell_angle_beta                  89.988144
_cell_angle_gamma                 90.203621
_cell_volume                      3952.63247278

loop_
_atom_site_label
_atom_site_type_symbol
_atom_type_description
_atom_site_fract_x
_atom_site_fract_y
_atom_site_fract_z
_atom_type_partial_charge
C1    C     C_R   0.240403 0.462492 0.649821 0.542349
C2    C     C_R   0.759237 0.461788 0.349421 0.539435
C3    C     C_R   0.740355 0.962601 0.649718 0.541650
C4    C     C_R   0.260011 0.966411 0.352918 0.543499
C5    C     C_2   0.276956 0.819047 0.532432 -0.157121
C6    C     C_2   0.736246 0.895899 0.458673 -0.147103
C7    C     C_2   0.771157 0.375996 0.536615 -0.145626
C8    C     C_2   0.236127 0.393920 0.459052 -0.151501
C9    C     C_R   0.954145 0.647894 0.438989 -0.040845
C10   C     C_R   0.035685 0.657482 0.562508 -0.027287
C11   C     C_R   0.456268 0.147513 0.438867 -0.033155
C12   C     C_R   0.537658 0.157131 0.562452 -0.030345
C13   C     C_R   0.910692 0.850523 0.466281 -0.098605
C14   C     C_R   0.014907 0.884832 0.565087 -0.101071
C15   C     C_R   0.412078 0.350004 0.466471 -0.089828
C16   C     C_R   0.516594 0.384418 0.564926 -0.094440
C17   C     C_R   0.913681 0.959731 0.504110 -0.099405
C18   C     C_R   0.967734 0.978800 0.551660 -0.109559
C19   C     C_R   0.415325 0.459557 0.504042 -0.110350
C20   C     C_R   0.469494 0.478511 0.551573 -0.127714
C21   C     C_R   0.004860 0.766505 0.535373 0.016441
C22   C     C_R   0.958291 0.756547 0.478170 0.000664
C23   C     C_R   0.506471 0.265986 0.535378 0.015638
C24   C     C_R   0.459750 0.255878 0.478375 -0.000270
C25   C     C_R   0.025890 0.544464 0.525475 -0.021623
C26   C     C_R   0.977796 0.538098 0.470301 -0.017375
C27   C     C_R   0.529219 0.044158 0.524931 -0.025261
C28   C     C_R   0.481707 0.037877 0.469322 -0.010559
C29   C     C_R   0.060610 0.435405 0.544124 -0.099089
C30   C     C_R   0.954434 0.421617 0.447141 -0.077586
C31   C     C_R   0.564770 0.935080 0.543180 -0.100897
C32   C     C_R   0.460510 0.921305 0.444833 -0.069903
C33   C     C_R   0.042417 0.321283 0.515864 0.160752
C34   C     C_R   0.988106 0.313165 0.466234 0.188404
C35   C     C_R   0.550395 0.821444 0.511371 0.157995
C36   C     C_R   0.496906 0.814667 0.460686 0.174288
C37   C     C_2   0.253630 0.925833 0.917732 -0.107066
C38   C     C_2   0.746070 0.925984 0.082573 -0.104113
C39   C     C_2   0.738651 0.396998 0.928543 -0.102849
C40   C     C_2   0.246379 0.425271 0.082319 -0.106385
C41   C     C_2   0.255077 0.936733 0.073608 -0.093598
C42   C     C_2   0.744426 0.937805 0.926579 -0.103075
C43   C     C_2   0.748648 0.398139 0.084382 -0.107314
C44   C     C_2   0.244739 0.436820 0.926312 -0.100365
C45   C     C_R   0.226090 0.871143 0.646419 0.542093
C46   C     C_R   0.767223 0.892451 0.338533 0.526548
C47   C     C_R   0.729597 0.382530 0.653403 0.544678
C48   C     C_R   0.267383 0.391918 0.339058 0.529640
C49   C     C_2   0.225111 0.019701 0.030576 -0.149908
C50   C     C_2   0.774206 0.021188 0.970026 -0.149825
C51   C     C_2   0.689778 0.417283 0.048438 -0.160358
C52   C     C_2   0.274996 0.519694 0.969727 -0.150827
C53   C     C_2   0.212714 0.998574 0.955979 -0.166016
C54   C     C_2   0.786675 0.999926 0.044633 -0.163046
C55   C     C_2   0.684034 0.391174 0.973246 -0.151598
C56   C     C_2   0.287339 0.498437 0.044292 -0.164183
C57   C     C_2   0.010719 0.656620 0.926225 -0.100001
C58   C     C_2   0.008119 0.664136 0.082943 -0.106013
C59   C     C_2   0.511101 0.156722 0.926381 -0.107033
C60   C     C_2   0.508447 0.164354 0.083105 -0.106490
C61   C     C_2   0.020702 0.563810 0.044606 -0.164973
C62   C     C_2   0.035464 0.568819 0.969337 -0.153638
C63   C     C_2   0.521377 0.064150 0.044793 -0.161462
C64   C     C_2   0.536248 0.069336 0.969528 -0.154110
C65   C     C_R   0.059757 0.651158 0.636931 0.537885
C66   C     C_R   0.936836 0.648976 0.362281 0.547071
C67   C     C_R   0.560553 0.150971 0.637132 0.542236
C68   C     C_R   0.437473 0.148974 0.362482 0.546108
C69   C     C_R   0.237601 0.470572 0.852600 0.551981
C70   C     C_R   0.760955 0.463863 0.150079 0.555708
C71   C     C_R   0.737503 0.970930 0.852733 0.550521
C72   C     C_R   0.262332 0.970490 0.147413 0.556117
C73   C     C_R   0.227922 0.874918 0.851989 0.557535
C74   C     C_R   0.772011 0.874954 0.148046 0.551225
C75   C     C_R   0.725416 0.369515 0.854760 0.548280
C76   C     C_R   0.272071 0.374779 0.147980 0.549322
C77   C     C_R   0.031729 0.651811 0.852518 0.566001
C78   C     C_R   0.971742 0.652850 0.149922 0.570576
C79   C     C_R   0.531851 0.151818 0.852593 0.564208
C80   C     C_R   0.471794 0.152880 0.149948 0.569198
C81   C     C_2   0.245919 0.903450 0.574418 -0.109371
C82   C     C_2   0.739978 0.958028 0.398778 -0.102593
C83   C     C_2   0.757410 0.443930 0.592873 -0.094710
C84   C     C_2   0.240120 0.456764 0.399451 -0.099526
C85   C     C_2   0.242303 0.906822 0.419514 -0.121409
C86   C     C_2   0.752067 0.901017 0.583846 -0.104014
C87   C     C_2   0.746663 0.397176 0.413891 -0.120665
C88   C     C_2   0.252321 0.400699 0.584096 -0.104308
C89   C     C_2   0.286442 0.837159 0.455962 -0.186091
C90   C     C_2   0.732790 0.959218 0.525546 -0.167477
C91   C     C_2   0.781055 0.436632 0.470293 -0.173842
C92   C     C_2   0.231032 0.456814 0.525883 -0.171160
Cr1   Cr    Cr6+3 0.113970 0.508630 0.747920 1.008123
Cr2   Cr    Cr6+3 0.886030 0.508630 0.252080 0.993737
Cr3   Cr    Cr6+3 0.613970 0.008630 0.747920 1.010444
Cr4   Cr    Cr6+3 0.386030 0.008630 0.252080 0.992821
Cr5   Cr    Cr6+3 0.269200 0.666740 0.749850 1.021966
Cr6   Cr    Cr6+3 0.730800 0.666740 0.250150 1.001836
Cr7   Cr    Cr6+3 0.769200 0.166740 0.749850 1.023312
Cr8   Cr    Cr6+3 0.230800 0.166740 0.250150 1.010983
Cr9   Cr    Cr6+3 0.112300 0.820070 0.749800 1.013799
Cr10  Cr    Cr6+3 0.887700 0.820070 0.250200 1.008863
Cr11  Cr    Cr6+3 0.612300 0.320070 0.749800 1.010939
Cr12  Cr    Cr6+3 0.387700 0.320070 0.250200 1.007513
H1    H     H_    0.329570 0.792080 0.429840 0.150761
H2    H     H_    0.714681 0.053685 0.527582 0.118255
H3    H     H_    0.812122 0.520410 0.468562 0.122205
H4    H     H_    0.210495 0.549732 0.527867 0.125141
H5    H     H_    0.165885 0.038894 0.933620 0.153949
H6    H     H_    0.833444 0.040954 0.067197 0.152641
H7    H     H_    0.631477 0.375078 0.953444 0.154997
H8    H     H_    0.334211 0.539150 0.066830 0.152622
H9    H     H_    0.277096 0.851410 0.054347 0.088701
H10   H     H_    0.722290 0.852342 0.945530 0.093913
H11   H     H_    0.791595 0.347161 0.061147 0.101451
H12   H     H_    0.222301 0.351557 0.945236 0.087056
H13   H     H_    0.302312 0.890762 0.938977 0.104661
H14   H     H_    0.697358 0.890317 0.061256 0.104215
H15   H     H_    0.791811 0.411833 0.946578 0.094450
H16   H     H_    0.197629 0.389777 0.060992 0.098121
H17   H     H_    0.016453 0.473057 0.067710 0.152713
H18   H     H_    0.065142 0.492146 0.948328 0.155510
H19   H     H_    0.517206 0.973367 0.067869 0.152871
H20   H     H_    0.566168 0.992970 0.948504 0.157036
H21   H     H_    0.015575 0.755053 0.060922 0.108545
H22   H     H_    0.981428 0.734620 0.945814 0.097804
H23   H     H_    0.515890 0.255322 0.061126 0.099411
H24   H     H_    0.481600 0.234478 0.945969 0.096176
H25   H     H_    0.295973 0.733509 0.554290 0.159878
H26   H     H_    0.746850 0.798175 0.458676 0.131048
H27   H     H_    0.764570 0.276828 0.537481 0.138206
H28   H     H_    0.247179 0.296224 0.458914 0.130724
H29   H     H_    0.193620 0.934450 0.443755 0.108253
H30   H     H_    0.770039 0.806654 0.583190 0.083883
H31   H     H_    0.710340 0.320485 0.415705 0.087916
H32   H     H_    0.273726 0.308615 0.583448 0.091722
H33   H     H_    0.228011 0.989646 0.553494 0.088474
H34   H     H_    0.737961 0.057563 0.398281 0.082502
H35   H     H_    0.755963 0.543366 0.590248 0.085045
H36   H     H_    0.237550 0.556264 0.399186 0.099558
H37   H     H_    0.874989 0.030129 0.495631 0.156027
H38   H     H_    0.972410 0.065623 0.578962 0.160980
H39   H     H_    0.377182 0.530701 0.494884 0.144918
H40   H     H_    0.475056 0.566070 0.578033 0.149767
H41   H     H_    0.867298 0.831998 0.433116 0.148783
H42   H     H_    0.058476 0.907190 0.598576 0.168954
H43   H     H_    0.368767 0.331994 0.433013 0.150382
H44   H     H_    0.560427 0.406777 0.598034 0.173800
H45   H     H_    0.909862 0.415650 0.413254 0.163925
H46   H     H_    0.102424 0.437173 0.581087 0.166646
H47   H     H_    0.415801 0.913387 0.411316 0.158568
H48   H     H_    0.604918 0.937054 0.581616 0.166768
H49   H     H_    0.204001 0.104848 0.051412 0.154734
H50   H     H_    0.795352 0.106502 0.949434 0.159108
H51   H     H_    0.645296 0.461748 0.073144 0.152617
H52   H     H_    0.296464 0.604812 0.949199 0.155450
O1    O     O_R   0.043230 0.549300 0.667990 -0.509569
O2    O     O_R   0.956770 0.549300 0.332010 -0.521480
O3    O     O_R   0.543230 0.049300 0.667990 -0.507448
O4    O     O_R   0.456770 0.049300 0.332010 -0.528266
O5    O     O_R   0.262920 0.788600 0.824420 -0.501964
O6    O     O_R   0.737080 0.788600 0.175580 -0.500415
O7    O     O_R   0.762920 0.288600 0.824420 -0.501178
O8    O     O_R   0.237080 0.288600 0.175580 -0.507585
O9    O     O_R   0.167530 0.905110 0.830340 -0.511560
O10   O     O_R   0.832470 0.905110 0.169660 -0.519848
O11   O     O_R   0.667530 0.405110 0.830340 -0.514197
O12   O     O_R   0.332470 0.405110 0.169660 -0.519151
O13   O     O_R   0.054010 0.748440 0.822860 -0.486805
O14   O     O_R   0.945990 0.748440 0.177140 -0.490604
O15   O     O_R   0.554010 0.248440 0.822860 -0.493852
O16   O     O_R   0.445990 0.248440 0.177140 -0.493546
O17   O     O_3   0.165160 0.665150 0.749190 -0.268901
O18   O     O_3   0.834840 0.665150 0.250810 -0.262125
O19   O     O_3   0.665160 0.165150 0.749190 -0.270451
O20   O     O_3   0.334840 0.165150 0.250810 -0.263986
O21   O     O_R   0.178620 0.457600 0.674100 -0.536115
O22   O     O_R   0.821380 0.457600 0.325900 -0.540558
O23   O     O_R   0.678620 0.957600 0.674100 -0.539149
O24   O     O_R   0.321380 0.957600 0.325900 -0.534040
O25   O     O_R   0.284680 0.542100 0.669460 -0.506366
O26   O     O_R   0.715320 0.542100 0.330540 -0.513600
O27   O     O_R   0.784680 0.042100 0.669460 -0.499246
O28   O     O_R   0.215320 0.042100 0.330540 -0.514637
O29   O     O_R   0.262860 0.790390 0.676650 -0.493081
O30   O     O_R   0.737140 0.790390 0.323350 -0.500579
O31   O     O_R   0.762860 0.290390 0.676650 -0.490358
O32   O     O_R   0.237140 0.290390 0.323350 -0.497957
O33   O     O_R   0.167460 0.907030 0.670940 -0.542072
O34   O     O_R   0.832540 0.907030 0.329060 -0.551113
O35   O     O_R   0.667460 0.407030 0.670940 -0.544413
O36   O     O_R   0.332540 0.407030 0.329060 -0.540123
O37   O     O_R   0.053950 0.750220 0.675100 -0.504959
O38   O     O_R   0.946050 0.750220 0.324900 -0.484228
O39   O     O_R   0.553950 0.250220 0.675100 -0.501903
O40   O     O_R   0.446050 0.250220 0.324900 -0.487268
O41   O     O_R   0.043300 0.547370 0.827390 -0.510237
O42   O     O_R   0.956700 0.547370 0.172610 -0.510726
O43   O     O_R   0.543300 0.047370 0.827390 -0.507120
O44   O     O_R   0.456700 0.047370 0.172610 -0.511896
O45   O     O_R   0.178690 0.455820 0.821860 -0.503976
O46   O     O_R   0.821310 0.455820 0.178140 -0.501510
O47   O     O_R   0.678690 0.955820 0.821860 -0.502973
O48   O     O_R   0.321310 0.955820 0.178140 -0.497550
O49   O     O_R   0.284750 0.540170 0.828860 -0.511609
O50   O     O_R   0.715250 0.540170 0.171140 -0.512254
O51   O     O_R   0.784750 0.040170 0.828860 -0.512348
O52   O     O_R   0.215250 0.040170 0.171140 -0.512179
N1    N     N_2   0.074566 0.214356 0.543263 -0.538442
H53   H     H_    0.089424 0.219596 0.595662 0.251820
C93   C     C_3   0.125857 0.156237 0.498477 -0.311986
H54   H     H_    0.113360 0.057322 0.494976 0.143412
H55   H     H_    0.178323 0.167580 0.522175 0.124247
H56   H     H_    0.126473 0.195037 0.444138 0.176735
N2    N     N_2   0.967704 0.197045 0.436926 -0.527674
H57   H     H_    0.005221 0.129949 0.436954 0.278410
C94   C     C_3   0.923083 0.192225 0.375087 -0.314998
H58   H     H_    0.918256 0.096030 0.356467 0.166683
H59   H     H_    0.945787 0.247792 0.331589 0.151286
H60   H     H_    0.869826 0.224517 0.388602 0.154627
N3    N     N_2   0.585299 0.714337 0.535985 -0.546824
H61   H     H_    0.606004 0.720212 0.586270 0.251579
C95   C     C_3   0.629294 0.649032 0.486248 -0.289961
H62   H     H_    0.610926 0.552875 0.481399 0.158043
H63   H     H_    0.683583 0.646351 0.506251 0.126594
H64   H     H_    0.629114 0.692089 0.433035 0.185308
N4    N     N_2   0.477540 0.702303 0.426923 -0.540826
H65   H     H_    0.500555 0.625103 0.446606 0.283970
C96   C     C_3   0.477807 0.702640 0.350323 -0.306259
H66   H     H_    0.463673 0.609951 0.330357 0.150198
H67   H     H_    0.530622 0.726869 0.330332 0.145895
H68   H     H_    0.438821 0.767872 0.329249 0.158947

loop_
_geom_bond_atom_site_label_1
_geom_bond_atom_site_label_2
_ccdc_geom_bond_type
Cr10  O14   S    
C7    C83   D    
C70   O46   A    
Cr1   O17   S    
C6    C82   D    
C87   C91   D    
C20   H40   S    
Cr9   O17   S    
C35   C36   A    
C13   H41   S    
C6    H26   S    
C43   C51   D    
Cr7   O31   S    
Cr8   O52   S    
C95   H64   S    
C57   C62   D    
Cr12  O20   S    
C94   H60   S    
Cr11  O11   S    
C75   O11   A    
C12   C23   A    
C51   H51   S    
C59   C64   D    
C50   C54   S    
Cr11  O39   S    
C60   C63   D    
Cr3   O3    S    
C32   C36   A    
C14   C21   A    
C17   H37   S    
Cr8   O32   S    
C46   O34   A    
C15   C19   A    
C96   H68   S    
Cr9   O33   S    
C34   N2    S    
C35   N3    S    
C2    O26   A    
Cr6   O18   S    
C49   C53   S    
C9    C22   A    
Cr11  O35   S    
Cr5   O29   S    
Cr3   O47   S    
C80   O44   A    
C29   C33   A    
C11   C24   A    
C78   O14   A    
C54   H6    S    
C61   H17   S    
Cr2   O22   S    
C79   O15   A    
N4    H65   S    
Cr3   O19   S    
C9    C66   S    
C3    O23   A    
C43   H11   S    
C29   H46   S    
C46   C82   S    
C33   N1    S    
C92   H4    S    
C39   C55   D    
C88   C92   D    
Cr9   O37   S    
C40   C56   D    
C17   C18   A    
Cr8   O20   S    
C73   O5    A    
C23   C24   A    
Cr9   O13   S    
C8    C92   S    
C39   C75   S    
Cr1   O45   S    
C94   H59   S    
Cr7   O27   S    
C72   O48   A    
C37   C53   D    
C36   N4    S    
C44   C52   D    
C1    C88   S    
C5    H25   S    
Cr10  O10   S    
N3    C95   S    
C21   C22   A    
C3    C86   S    
Cr11  O15   S    
C61   C62   S    
C1    O21   A    
C4    O24   A    
C67   O39   A    
Cr10  O38   S    
C41   C49   D    
Cr6   O6    S    
C86   H30   S    
C9    C26   A    
Cr4   O48   S    
C65   O37   A    
C10   C21   A    
C25   C29   A    
C69   O45   A    
C12   C67   S    
C79   O43   A    
C30   C34   A    
C12   C27   A    
C27   C31   A    
C87   H31   S    
C18   H38   S    
Cr5   O17   S    
C88   H32   S    
C74   O10   A    
C72   O52   A    
C86   C90   D    
C59   C79   S    
C57   H22   S    
C74   O6    A    
Cr1   O21   S    
Cr3   O23   S    
C30   H45   S    
C4    C85   S    
C51   C55   S    
C94   H58   S    
C64   H20   S    
C4    O28   A    
C95   H62   S    
C48   C84   S    
Cr7   O51   S    
Cr2   O42   S    
Cr6   O26   S    
C71   O47   A    
N2    H57   S    
Cr8   O8    S    
C8    H28   S    
C96   H66   S    
Cr6   O30   S    
N1    C93   S    
C57   C77   S    
Cr12  O12   S    
N3    H61   S    
C5    C81   D    
C93   H54   S    
C38   C54   D    
C28   C32   A    
C16   C20   A    
C7    C91   S    
C59   H24   S    
Cr11  O19   S    
N1    H53   S    
Cr12  O40   S    
Cr7   O19   S    
C2    C87   S    
C68   O40   A    
C48   O32   A    
C46   O30   A    
Cr1   O1    S    
C66   O2    A    
C90   H2    S    
C42   C50   D    
C41   C72   S    
Cr2   O46   S    
C50   H50   S    
C75   O7    A    
C65   O1    A    
C15   C24   A    
C93   H55   S    
C73   O9    A    
Cr2   O18   S    
C26   C30   A    
C16   C23   A    
C85   C89   D    
C83   H35   S    
C96   H67   S    
Cr7   O7    S    
C42   H10   S    
C76   O8    A    
C55   H7    S    
C70   O50   A    
C80   O16   A    
C47   O31   A    
C68   O4    A    
C40   H16   S    
C84   H36   S    
C62   H18   S    
C11   C68   S    
C10   C25   A    
C67   O3    A    
C38   C74   S    
C10   C65   S    
C49   H49   S    
Cr4   O44   S    
C77   O13   A    
C37   C73   S    
C60   C80   S    
C1    O25   A    
Cr4   O20   S    
N4    C96   S    
C8    C84   D    
C7    H27   S    
C14   C18   A    
C60   H23   S    
C45   C81   S    
C41   H9    S    
C47   C83   S    
Cr2   O2    S    
C63   H19   S    
C95   H63   S    
Cr5   O25   S    
Cr10  O18   S    
C13   C17   A    
C43   C70   S    
C78   O42   A    
C14   H42   S    
Cr5   O5    S    
Cr12  O16   S    
C16   H44   S    
Cr4   O24   S    
C19   C20   A    
N2    C94   S    
Cr4   O4    S    
C25   C26   A    
C82   H34   S    
C6    C90   S    
Cr9   O9    S    
C15   H43   S    
C31   H48   S    
C45   O29   A    
C32   H47   S    
C3    O27   A    
C11   C28   A    
C58   C61   D    
C39   H15   S    
Cr1   O41   S    
C71   O51   A    
C42   C71   S    
Cr10  O34   S    
C33   C34   A    
C13   C22   A    
C76   O12   A    
C31   C35   A    
C47   O35   A    
C52   H52   S    
Cr8   O28   S    
C19   H39   S    
C48   O36   A    
C58   C78   S    
C63   C64   S    
C38   H14   S    
C69   O49   A    
C93   H56   S    
C37   H13   S    
C44   H12   S    
C58   H21   S    
Cr3   O43   S    
C40   C76   S    
C89   H1    S    
C27   C28   A    
C81   H33   S    
C45   O33   A    
C44   C69   S    
Cr6   O50   S    
C53   H5    S    
C2    O22   A    
Cr5   O49   S    
C66   O38   A    
C77   O41   A    
C56   H8    S    
C5    C89   S    
C52   C56   S    
C85   H29   S    
C91   H3    S    
Cr12  O36   S    
