data_mof_unit_59764.cif
_audit_creation_date              2012-12-11T14:17:41-0500
_audit_creation_method            fapswitch 2.2
_symmetry_space_group_name_H-M    P1
_symmetry_Int_Tables_number       1
_space_group_crystal_system       triclinic
_cell_length_a                    11.226401
_cell_length_b                    11.100614
_cell_length_c                    18.665538
_cell_angle_alpha                 88.890328
_cell_angle_beta                  90.284544
_cell_angle_gamma                 120.112143
_cell_volume                      2011.77226224

loop_
_atom_site_label
_atom_site_type_symbol
_atom_type_description
_atom_site_fract_x
_atom_site_fract_y
_atom_site_fract_z
_atom_type_partial_charge
C1    C     C_R   0.520819 0.463090 0.147253 0.667174
C2    C     C_R   0.546493 0.066246 0.146013 0.666860
C3    C     C_R   0.933010 0.479088 0.146029 0.669538
C4    C     C_R   0.459157 0.521960 0.854262 0.614892
C5    C     C_R   0.067237 0.540822 0.854461 0.606822
C6    C     C_R   0.476889 0.935896 0.852732 0.605309
C7    C     C_R   0.414345 0.005497 0.462807 -0.152138
C8    C     C_R   0.923910 0.373482 0.472816 -0.161015
C9    C     C_R   0.637726 0.499445 0.482412 -0.161184
C10   C     C_R   0.931209 0.385869 0.547252 -0.176744
C11   C     C_R   0.396355 0.964052 0.533416 -0.129543
C12   C     C_R   0.614746 0.527203 0.552055 -0.141779
C13   C     C_R   0.650552 0.837777 0.540556 -0.110164
C14   C     C_R   0.022353 0.753779 0.555190 -0.095922
C15   C     C_R   0.232038 0.379632 0.541761 -0.064043
C16   C     C_R   0.104926 0.748379 0.416100 -0.064684
C17   C     C_R   0.613722 0.847624 0.393936 -0.056695
C18   C     C_R   0.271886 0.233568 0.438202 -0.075739
C19   C     C_R   0.732678 0.816936 0.492540 -0.148944
C20   C     C_R   0.064892 0.868911 0.510008 -0.163234
C21   C     C_R   0.120286 0.260685 0.514879 -0.107152
C22   C     C_R   0.105170 0.865533 0.440162 -0.126259
C23   C     C_R   0.709544 0.814059 0.419580 -0.097661
C24   C     C_R   0.139752 0.190392 0.461217 -0.137367
C25   C     C_R   0.545933 0.414128 0.360813 0.544791
C26   C     C_R   0.540390 0.055676 0.351025 0.534270
C27   C     C_R   0.936534 0.479458 0.354213 0.552266
C28   C     C_R   0.452789 0.520396 0.644753 0.531591
C29   C     C_R   0.056996 0.543532 0.647752 0.540647
C30   C     C_R   0.454163 0.872763 0.639290 0.531964
C31   C     C_R   0.487195 0.999925 0.922481 0.036869
C32   C     C_R   0.004859 0.480229 0.924848 0.032358
C33   C     C_R   0.508709 0.517254 0.928618 0.119591
C34   C     C_R   0.968592 0.485954 0.070581 0.000863
C35   C     C_R   0.518744 0.016091 0.071839 0.053986
C36   C     C_R   0.507615 0.532364 0.079513 0.121539
C37   C     C_R   0.369211 0.955757 0.967830 0.000794
C38   C     C_R   0.048840 0.404446 0.971620 0.023316
C39   C     C_R   0.626348 0.635236 0.963355 0.022721
C40   C     C_R   0.046937 0.426686 0.046821 0.043929
C41   C     C_R   0.384576 0.948231 0.043391 -0.002423
C42   C     C_R   0.623604 0.640861 0.041589 0.028402
C43   C     C_R   0.632996 0.069803 0.024345 0.260510
C44   C     C_R   0.872376 0.486241 0.021767 0.174134
C45   C     C_R   0.391258 0.475499 0.038468 0.162651
C46   C     C_R   0.898134 0.496754 0.948588 0.251546
C47   C     C_R   0.616349 0.069898 0.951203 0.280280
C48   C     C_R   0.407218 0.421259 0.974733 0.216996
C49   C     C_R   0.236353 0.919196 0.941574 0.302566
C50   C     C_R   0.075212 0.295163 0.950912 0.319958
C51   C     C_R   0.742537 0.748097 0.927045 0.274938
C52   C     C_R   0.102342 0.367398 0.095947 0.311332
C53   C     C_R   0.265020 0.871810 0.086902 0.281372
C54   C     C_R   0.723095 0.760913 0.077294 0.266017
C55   C     C_R   0.121828 0.843252 0.984907 -0.157834
C56   C     C_R   0.100738 0.219493 0.003523 -0.077100
C57   C     C_R   0.837411 0.862933 0.965300 -0.108684
C58   C     C_R   0.118371 0.257331 0.074654 -0.080531
C59   C     C_R   0.135575 0.821202 0.056766 -0.139633
C60   C     C_R   0.831539 0.866500 0.039107 -0.115597
C61   C     C_R   0.467308 0.901678 0.562074 -0.005607
C62   C     C_R   0.991732 0.516921 0.576790 -0.001840
C63   C     C_R   0.481677 0.492967 0.572756 0.008073
C64   C     C_R   0.985534 0.493315 0.427836 0.007705
C65   C     C_R   0.489182 0.972019 0.416404 0.007679
C66   C     C_R   0.525484 0.419191 0.438032 -0.002768
C67   C     C_R   0.552599 0.873760 0.516122 0.010832
C68   C     C_R   0.020879 0.632849 0.531303 0.025976
C69   C     C_R   0.368289 0.411087 0.527337 0.027274
C70   C     C_R   0.044591 0.625434 0.458481 0.014857
C71   C     C_R   0.547193 0.893035 0.441381 0.024154
C72   C     C_R   0.389458 0.351524 0.467721 0.047415
Cr1   Cr    Cr6+3 0.768550 0.541320 0.250660 1.096216
Cr2   Cr    Cr6+3 0.458680 0.227230 0.250660 1.077336
Cr3   Cr    Cr6+3 0.772770 0.231450 0.250660 1.127987
Cr4   Cr    Cr6+3 0.541320 0.768550 0.749340 1.119767
Cr5   Cr    Cr6+3 0.227230 0.458680 0.749340 1.140669
Cr6   Cr    Cr6+3 0.231450 0.772770 0.749340 1.127359
H1    H     H_    0.021086 0.802034 0.962496 0.160906
H2    H     H_    0.112631 0.132331 0.988916 0.182954
H3    H     H_    0.923032 0.948292 0.937389 0.214343
H4    H     H_    0.151575 0.205145 0.112534 0.165080
H5    H     H_    0.044178 0.766295 0.089311 0.170885
H6    H     H_    0.910007 0.955849 0.066918 0.180128
H7    H     H_    0.377031 0.072441 0.445835 0.122143
H8    H     H_    0.868430 0.270182 0.450600 0.151606
H9    H     H_    0.742115 0.542224 0.462845 0.135353
H10   H     H_    0.890953 0.294408 0.581959 0.143422
H11   H     H_    0.336643 0.993299 0.566769 0.164432
H12   H     H_    0.700939 0.583364 0.587744 0.132430
H13   H     H_    0.672295 0.830035 0.595714 0.179748
H14   H     H_    0.982118 0.757931 0.607031 0.162322
H15   H     H_    0.212135 0.443823 0.575666 0.154483
H16   H     H_    0.138844 0.749923 0.361663 0.172177
H17   H     H_    0.598354 0.846588 0.336566 0.183938
H18   H     H_    0.277154 0.169796 0.397544 0.141546
H19   H     H_    0.808858 0.793984 0.512711 0.120200
H20   H     H_    0.063353 0.958632 0.529785 0.127995
H21   H     H_    0.018360 0.219095 0.535981 0.121459
H22   H     H_    0.133442 0.950912 0.403228 0.106382
H23   H     H_    0.768034 0.788967 0.382959 0.155694
H24   H     H_    0.051989 0.101911 0.437554 0.115418
O1    O     O_R   0.910960 0.572410 0.171010 -0.490497
O2    O     O_R   0.427590 0.338550 0.171010 -0.469199
O3    O     O_R   0.661450 0.089040 0.171010 -0.416034
O4    O     O_R   0.572410 0.910960 0.828990 -0.434388
O5    O     O_R   0.338550 0.427590 0.828990 -0.427830
O6    O     O_R   0.089040 0.661450 0.828990 -0.452314
O7    O     O_R   0.639750 0.528530 0.175600 -0.442687
O8    O     O_R   0.471470 0.111220 0.175600 -0.462645
O9    O     O_R   0.888780 0.360250 0.175600 -0.428982
O10   O     O_R   0.528530 0.639750 0.824400 -0.463956
O11   O     O_R   0.111220 0.471470 0.824400 -0.447819
O12   O     O_R   0.360250 0.888780 0.824400 -0.464734
O13   O     O_R   0.909330 0.572400 0.331540 -0.533971
O14   O     O_R   0.427600 0.336930 0.331540 -0.513227
O15   O     O_R   0.663070 0.090670 0.331540 -0.526477
O16   O     O_R   0.572400 0.909330 0.668460 -0.508346
O17   O     O_R   0.336930 0.427600 0.668460 -0.506005
O18   O     O_R   0.090670 0.663070 0.668460 -0.521627
O19   O     O_R   0.638240 0.528520 0.324410 -0.485442
O20   O     O_R   0.471480 0.109720 0.324410 -0.531085
O21   O     O_R   0.890280 0.361760 0.324410 -0.488566
O22   O     O_R   0.528520 0.638240 0.675590 -0.523433
O23   O     O_R   0.109720 0.471480 0.675590 -0.510301
O24   O     O_R   0.361760 0.890280 0.675590 -0.483595
O25   O     O_3   0.666667 0.333333 0.250630 -0.314516
O26   O     O_3   0.333333 0.666667 0.749370 -0.340181
Cl1   Cl    Cl    0.800511 0.129632 0.052988 -0.586090
Cl2   Cl    Cl    0.700355 0.405990 0.048411 -0.559461
Cl3   Cl    Cl    0.348935 0.608785 0.022473 -0.680093
Cl4   Cl    Cl    0.770351 0.470945 0.885799 -0.432106
Cl5   Cl    Cl    0.756933 0.163613 0.893020 -0.434440
Cl6   Cl    Cl    0.394125 0.257764 0.977974 -0.543638
Cl7   Cl    Cl    0.208121 0.998670 0.865162 -0.442188
Cl8   Cl    Cl    0.050143 0.218384 0.865922 -0.423976
Cl9   Cl    Cl    0.797346 0.752886 0.837600 -0.461191
Cl10  Cl    Cl    0.170298 0.436897 0.180944 -0.499610
Cl11  Cl    Cl    0.267763 0.814568 0.175556 -0.531934
Cl12  Cl    Cl    0.700043 0.802603 0.165179 -0.536262

loop_
_geom_bond_atom_site_label_1
_geom_bond_atom_site_label_2
_ccdc_geom_bond_type
C2    C35   S    
C39   C51   A    
C30   O24   A    
C29   O23   A    
C3    O1    A    
C18   H18   S    
C36   C42   A    
Cr3   O15   S    
C26   O15   A    
Cr6   O26   S    
C53   C59   A    
C54   C60   A    
Cr6   O18   S    
C7    C11   A    
C10   H10   S    
C17   C23   A    
C37   C41   A    
C34   C40   A    
C12   H12   S    
C59   H5    S    
C42   C54   A    
C55   C59   A    
C58   H4    S    
C46   Cl4   S    
C21   H21   S    
C23   H23   S    
C44   Cl2   S    
C37   C49   A    
Cr6   O6    S    
C11   H11   S    
C9    C66   A    
C6    O12   A    
C1    O7    A    
C4    C33   S    
C66   C72   A    
C63   C69   A    
C65   C71   A    
Cr1   O1    S    
C52   Cl10  S    
C51   C57   A    
C32   C38   A    
C35   C43   A    
C8    H8    S    
C5    C32   S    
C6    C31   S    
C4    O10   A    
C31   C47   A    
C47   Cl5   S    
C18   C72   A    
Cr3   O9    S    
C10   C62   A    
Cr5   O11   S    
C29   O18   A    
C44   C46   A    
C39   C42   A    
C19   H19   S    
C15   C69   A    
C4    O5    A    
C54   Cl12  S    
C22   H22   S    
C13   C19   A    
Cr4   O22   S    
C14   C20   A    
Cr5   O5    S    
C16   C70   A    
C18   C24   A    
C27   C64   S    
C25   O14   A    
C3    O9    A    
C12   C63   A    
C27   O21   A    
C57   C60   A    
C30   O16   A    
C3    C34   S    
Cr5   O17   S    
Cr1   O25   S    
Cr4   O16   S    
C31   C37   A    
C16   C22   A    
C69   C72   A    
C19   C23   A    
C64   C70   A    
C15   H15   S    
C7    C65   A    
C24   H24   S    
C55   H1    S    
C61   C67   A    
Cr2   O25   S    
C43   Cl1   S    
Cr4   O10   S    
Cr2   O14   S    
C6    O4    A    
C34   C44   A    
C36   C45   A    
C33   C39   A    
Cr1   O7    S    
C1    O2    A    
C14   H14   S    
Cr5   O26   S    
C52   C58   A    
C8    C64   A    
C17   H17   S    
C51   Cl9   S    
C68   C70   A    
Cr2   O20   S    
C20   C22   A    
C45   Cl3   S    
Cr1   O19   S    
Cr4   O26   S    
Cr3   O21   S    
C21   C24   A    
Cr6   O24   S    
Cr5   O23   S    
Cr2   O2    S    
C13   C67   A    
C45   C48   A    
C48   Cl6   S    
C29   C62   S    
Cr6   O12   S    
Cr4   O4    S    
C5    O11   A    
C53   Cl11  S    
C26   C65   S    
C32   C46   A    
C25   C66   S    
C11   C61   A    
C28   O17   A    
Cr1   O13   S    
Cr2   O8    S    
C28   O22   A    
C17   C71   A    
C38   C50   A    
C2    O3    A    
C16   H16   S    
C56   H2    S    
C62   C68   A    
C40   C52   A    
C9    H9    S    
C38   C40   A    
C60   H6    S    
Cr3   O25   S    
C7    H7    S    
C43   C47   A    
C56   C58   A    
C67   C71   A    
C49   C55   A    
C49   Cl7   S    
C35   C41   A    
C57   H3    S    
C50   C56   A    
C9    C12   A    
C41   C53   A    
C28   C63   S    
C15   C21   A    
C20   H20   S    
C8    C10   A    
C30   C61   S    
C33   C48   A    
C14   C68   A    
C50   Cl8   S    
C26   O20   A    
Cr3   O3    S    
C25   O19   A    
C13   H13   S    
C1    C36   S    
C27   O13   A    
C5    O6    A    
C2    O8    A    
