data_mof_unit_11335.cif
_audit_creation_date              2012-12-10T16:44:40-0500
_audit_creation_method            fapswitch 2.2
_symmetry_space_group_name_H-M    P1
_symmetry_Int_Tables_number       1
_space_group_crystal_system       triclinic
_cell_length_a                    14.970522
_cell_length_b                    8.683887
_cell_length_c                    7.621825
_cell_angle_alpha                 103.038078
_cell_angle_beta                  95.921337
_cell_angle_gamma                 95.529074
_cell_volume                      952.816326907

loop_
_atom_site_label
_atom_site_type_symbol
_atom_type_description
_atom_site_fract_x
_atom_site_fract_y
_atom_site_fract_z
_atom_type_partial_charge
C1    C     C_R   0.497066 0.200133 0.453196 0.845875
C2    C     C_R   0.502934 0.799867 0.546804 0.845875
C3    C     C_R   0.020664 0.218992 0.329415 0.172306
C4    C     C_R   0.979336 0.781008 0.670585 0.172306
C5    C     C_2   0.495928 0.031521 0.427939 -0.365481
C6    C     C_2   0.504071 0.968479 0.572061 -0.365481
C7    C     C_R   0.329359 0.499142 0.499414 0.774085
C8    C     C_R   0.670641 0.500858 0.500586 0.774085
C9    C     C_R   0.825193 0.638187 0.588888 -0.263642
C10   C     C_R   0.174807 0.361813 0.411112 -0.263642
C11   C     C_R   0.767147 0.500838 0.501346 -0.039878
C12   C     C_R   0.232853 0.499162 0.498654 -0.039878
C13   C     C_R   0.800649 0.363997 0.412964 -0.218868
C14   C     C_R   0.199351 0.636003 0.587036 -0.218869
C15   C     C_R   0.893649 0.362216 0.413970 0.073683
C16   C     C_R   0.106351 0.637784 0.586030 0.073683
C17   C     C_R   0.953215 0.500988 0.500600 0.011550
C18   C     C_R   0.046785 0.499012 0.499400 0.011550
C19   C     C_R   0.919004 0.641530 0.587784 0.113451
C20   C     C_R   0.080996 0.358470 0.412216 0.113451
C21   C     C_R   0.927466 0.223198 0.330286 -0.211291
C22   C     C_R   0.072534 0.776802 0.669713 -0.211291
Cu1   Cu    Cu3+1 0.510010 0.517380 0.684380 0.965319
Cu2   Cu    Cu3+1 0.489990 0.482620 0.315620 0.965319
H1    H     H_    0.795981 0.741940 0.654870 0.137473
H2    H     H_    0.204019 0.258060 0.345130 0.137473
H3    H     H_    0.754118 0.258454 0.346048 0.132750
H4    H     H_    0.245882 0.741546 0.653952 0.132750
H5    H     H_    0.880857 0.117154 0.266130 0.140122
H6    H     H_    0.119143 0.882846 0.733869 0.140122
H7    H     H_    0.488451 0.959027 0.289655 0.196576
H8    H     H_    0.511549 0.040973 0.710345 0.196576
N1    N     N_2   0.474890 0.456420 0.038520 0.029726
N2    N     N_2   0.525110 0.543580 0.961480 0.029726
O1    O     O_R   0.506510 0.286130 0.619770 -0.595481
O2    O     O_R   0.493490 0.713870 0.380230 -0.595480
O3    O     O_R   0.489600 0.256770 0.308360 -0.578109
O4    O     O_R   0.510400 0.743230 0.691640 -0.578109
O5    O     O_R   0.378710 0.514640 0.655720 -0.603289
O6    O     O_R   0.621290 0.485360 0.344280 -0.603289
O7    O     O_R   0.361800 0.485290 0.344300 -0.584957
O8    O     O_R   0.638200 0.514710 0.655700 -0.584957
C23   C     C_3   0.053815 0.064657 0.242173 -0.876263
H9    H     H_    0.997170 0.967653 0.187501 0.237999
H10   H     H_    0.091281 0.081203 0.128142 0.228270
H11   H     H_    0.099015 0.025654 0.344325 0.235346
C24   C     C_3   0.946185 0.935343 0.757826 -0.876264
H12   H     H_    0.002830 0.032347 0.812497 0.237999
H13   H     H_    0.900985 0.974345 0.655674 0.235347
H14   H     H_    0.908719 0.918798 0.871857 0.228270
N3    N     N_2   0.420607 0.324162 0.928844 -0.306310
H15   H     H_    0.403635 0.328368 0.798795 0.295530
C25   C     C_3   0.338560 0.274519 0.996443 -0.587379
H16   H     H_    0.298821 0.173290 0.893177 0.161486
H17   H     H_    0.295919 0.373252 0.019951 0.227997
H18   H     H_    0.352742 0.230170 0.119599 0.251404
N4    N     N_2   0.579393 0.675838 0.071155 -0.306310
H19   H     H_    0.596365 0.671632 0.201205 0.295530
C26   C     C_3   0.661440 0.725481 0.003557 -0.587380
H20   H     H_    0.701179 0.826709 0.106823 0.161486
H21   H     H_    0.647258 0.769830 0.880401 0.251404
H22   H     H_    0.704081 0.626748 0.980049 0.227997

loop_
_geom_bond_atom_site_label_1
_geom_bond_atom_site_label_2
_ccdc_geom_bond_type
C5    H7    S    
N2    N4    S    
C15   C21   A    
Cu1   Cu2   S    
C22   H6    S    
N1    N3    S    
Cu1   O4    S    
C4    C22   A    
C2    O4    A    
Cu1   O1    S    
C24   H12   S    
C1    C5    S    
C26   H21   S    
C1    O3    A    
C23   H9    S    
Cu1   N2    S    
C14   H4    S    
C10   H2    S    
C25   H17   S    
Cu2   O3    S    
C9    H1    S    
C26   H20   S    
C24   H13   S    
C3    C20   A    
C25   H16   S    
Cu2   O7    S    
C9    C11   A    
C3    C23   S    
N4    H19   S    
Cu2   O2    S    
Cu1   O8    S    
C10   C12   A    
C8    C11   S    
Cu1   O5    S    
Cu2   O6    S    
C12   C14   A    
Cu2   N1    S    
C17   C18   A    
C24   H14   S    
C18   C20   A    
C13   C15   A    
C5    C6    D    
C23   H11   S    
C14   C16   A    
C7    C12   S    
C3    C21   A    
N4    C26   S    
C8    O8    A    
N3    H15   S    
C11   C13   A    
N1    N2    D    
C1    O1    A    
C16   C18   A    
C6    H8    S    
C25   H18   S    
C2    O2    A    
C15   C17   A    
C7    O5    A    
C13   H3    S    
C26   H22   S    
C16   C22   A    
C8    O6    A    
C17   C19   A    
C4    C19   A    
C21   H5    S    
C23   H10   S    
C9    C19   A    
C2    C6    S    
C7    O7    A    
C10   C20   A    
N3    C25   S    
C4    C24   S    
