data_mof_unit_52056.cif
_audit_creation_date              2012-12-10T17:39:19-0500
_audit_creation_method            fapswitch 2.2
_symmetry_space_group_name_H-M    P1
_symmetry_Int_Tables_number       1
_space_group_crystal_system       triclinic
_cell_length_a                    12.426348
_cell_length_b                    13.363948
_cell_length_c                    27.612443
_cell_angle_alpha                 75.165838
_cell_angle_beta                  101.858522
_cell_angle_gamma                 116.935944
_cell_volume                      3930.37479077

loop_
_atom_site_label
_atom_site_type_symbol
_atom_type_description
_atom_site_fract_x
_atom_site_fract_y
_atom_site_fract_z
_atom_type_partial_charge
C1    C     C_R   0.854952 0.287605 0.503415 0.789124
C2    C     C_R   0.969518 0.379698 0.731488 0.178730
C3    C     C_R   0.974104 0.475615 0.746936 0.234427
C4    C     C_R   0.903958 0.467586 0.891798 -0.093081
C5    C     C_R   0.875310 0.364367 0.877196 -0.019455
C6    C     C_R   0.846533 0.263646 0.913236 -0.143635
C7    C     C_R   0.923717 0.566482 0.854519 -0.051796
C8    C     C_R   0.995189 0.487855 0.645890 -0.096796
C9    C     C_R   0.994141 0.498794 0.353807 -0.037100
C10   C     C_R   0.909715 0.378142 0.031506 0.062558
C11   C     C_R   0.915272 0.570755 0.007698 0.006621
C12   C     C_R   0.999521 0.497957 0.592361 0.833951
C13   C     C_R   0.920632 0.478165 0.045274 0.019208
C14   C     C_R   0.921760 0.289884 0.069781 -0.208819
C15   C     C_R   0.940664 0.298192 0.120081 -0.142560
C16   C     C_R   0.947477 0.394369 0.134136 0.003250
C17   C     C_R   0.936044 0.484759 0.096869 -0.087532
C18   C     C_R   0.940234 0.580924 0.111330 -0.066650
C19   C     C_R   0.964653 0.585702 0.163562 0.549776
C20   C     C_R   0.964132 0.401001 0.185053 0.529055
C21   C     C_R   0.083025 0.495175 0.284030 -0.096918
C22   C     C_R   0.089400 0.495663 0.335119 -0.218327
C23   C     C_R   0.145465 0.713308 0.491539 0.813287
C24   C     C_R   0.892449 0.500663 0.320679 -0.215158
C25   C     C_R   0.885967 0.499408 0.269955 -0.108961
C26   C     C_R   0.981159 0.497117 0.251258 0.354739
C27   C     C_R   0.889774 0.370366 0.979936 0.053619
C28   C     C_R   0.905375 0.469875 0.942946 0.059472
C29   C     C_R   0.922719 0.571430 0.956730 0.037496
C30   C     C_R   0.855534 0.266683 0.963917 -0.209826
C31   C     C_R   0.950684 0.670156 0.868766 0.177356
C32   C     C_R   0.897246 0.656378 0.022085 0.137965
C33   C     C_R   0.913919 0.664693 0.073614 0.128901
C34   C     C_R   0.999110 0.500146 0.407395 0.789486
C35   C     C_R   0.953276 0.671862 0.919542 -0.197603
C36   C     C_R   0.268741 0.034679 0.461318 -0.188204
C37   C     C_R   0.230466 0.834975 0.483562 -0.051344
C38   C     C_R   0.813790 0.084744 0.533019 -0.189491
C39   C     C_R   0.733016 0.971424 0.547516 0.219443
C40   C     C_R   0.609079 0.938770 0.533822 -0.206368
C41   C     C_R   0.564338 0.015052 0.501309 0.030112
C42   C     C_R   0.646012 0.130470 0.487022 0.076749
C43   C     C_R   0.438460 0.981157 0.485776 0.040026
C44   C     C_R   0.393752 0.065409 0.466757 0.137711
C45   C     C_R   0.875674 0.364479 0.826437 0.596806
C46   C     C_R   0.474461 0.177488 0.450280 -0.225795
C47   C     C_R   0.598233 0.206591 0.456034 -0.181424
C48   C     C_R   0.356240 0.866421 0.485521 0.104905
C49   C     C_R   0.187906 0.920081 0.472572 -0.249936
C50   C     C_R   0.771315 0.166108 0.505499 -0.154854
C51   C     C_R   0.327583 0.308497 0.572968 -0.287153
C52   C     C_R   0.763568 0.651948 0.434211 0.050557
C53   C     C_R   0.669587 0.686561 0.419680 0.111825
C54   C     C_R   0.563123 0.625858 0.443748 -0.226373
C55   C     C_R   0.549175 0.530485 0.482752 -0.082474
C56   C     C_R   0.919888 0.558392 0.804160 0.560800
C57   C     C_R   0.648689 0.497782 0.497203 0.253874
C58   C     C_R   0.440602 0.468355 0.508613 -0.023128
C59   C     C_R   0.428724 0.370202 0.545655 0.143166
C60   C     C_R   0.519759 0.335304 0.557583 -0.312503
C61   C     C_R   0.630284 0.399357 0.537906 0.178099
C62   C     C_R   0.341944 0.498564 0.500122 0.016007
C63   C     C_R   0.237328 0.345342 0.564221 0.082606
C64   C     C_R   0.035062 0.583197 0.715552 0.201098
C65   C     C_R   0.034589 0.587755 0.664419 -0.274680
C66   C     C_R   0.968978 0.382837 0.679813 0.083266
Cu1   Cu    Cu3+1 0.098270 0.475420 0.511360 0.944354
Cu2   Cu    Cu3+1 0.901730 0.524580 0.488640 0.943226
H1    H     H_    0.817159 0.502278 0.333940 0.162127
H2    H     H_    0.806511 0.499913 0.245029 0.140522
H3    H     H_    0.986623 0.754275 0.929793 0.161161
H4    H     H_    0.091793 0.897891 0.469722 0.167488
H5    H     H_    0.441610 0.241346 0.430752 0.149161
H6    H     H_    0.233822 0.099126 0.448576 0.149079
H7    H     H_    0.909172 0.110895 0.546418 0.154877
H8    H     H_    0.548460 0.854990 0.551128 0.146313
H9    H     H_    0.654272 0.289812 0.436315 0.178262
H10   H     H_    0.158254 0.298665 0.584818 0.123399
H11   H     H_    0.509547 0.260661 0.586968 0.153132
H12   H     H_    0.319365 0.233253 0.601484 0.138287
H13   H     H_    0.337997 0.568223 0.471059 0.137690
H14   H     H_    0.845555 0.698389 0.415451 0.143223
H15   H     H_    0.821288 0.182596 0.902641 0.179011
H16   H     H_    0.492204 0.654748 0.431110 0.138980
H17   H     H_    0.168888 0.494422 0.359810 0.157116
H18   H     H_    0.157153 0.493520 0.269883 0.146016
H19   H     H_    0.950270 0.228426 0.148042 0.187041
H20   H     H_    0.921471 0.214833 0.061830 0.139782
H21   H     H_    0.832387 0.185980 0.989738 0.138710
H22   H     H_    0.073042 0.669907 0.639591 0.153230
N1    N     N_R   0.926309 0.466165 0.793542 -0.446623
N2    N     N_R   0.972479 0.495500 0.198720 -0.465054
N3    N     N_R   0.246290 0.438210 0.528570 -0.183824
N4    N     N_R   0.754320 0.561170 0.471730 -0.219373
O1    O     O_R   0.972510 0.318140 0.514280 -0.590322
O2    O     O_2   0.970445 0.312920 0.220802 -0.545928
O3    O     O_2   0.902122 0.637844 0.766381 -0.502996
O4    O     O_2   0.982473 0.679625 0.179658 -0.546883
O5    O     O_R   0.806530 0.359640 0.495100 -0.566580
O6    O     O_R   0.082990 0.479270 0.579320 -0.575545
O7    O     O_R   0.917010 0.520770 0.560140 -0.545662
O8    O     O_R   0.193470 0.640360 0.504900 -0.563588
O9    O     O_R   0.027490 0.681860 0.485720 -0.599193
O10   O     O_R   0.082990 0.479230 0.439860 -0.580009
O11   O     O_R   0.917010 0.520730 0.420680 -0.595382
O12   O     O_2   0.815816 0.264706 0.809997 -0.542087
C67   C     C_3   0.941475 0.274186 0.662393 -0.876415
H23   H     H_    0.932160 0.283531 0.620917 0.234273
H24   H     H_    0.014676 0.245597 0.678396 0.231442
H25   H     H_    0.853816 0.206261 0.675138 0.234754
C68   C     C_3   0.121687 0.689935 0.735981 -0.784679
H26   H     H_    0.212187 0.721770 0.722769 0.209659
H27   H     H_    0.089348 0.758253 0.721943 0.262029
H28   H     H_    0.136238 0.673728 0.777709 0.217435
N5    N     N_3   0.983339 0.775102 0.832442 -0.517663
H29   H     H_    0.988183 0.840983 0.847861 0.208753
H30   H     H_    0.070540 0.798385 0.823679 0.214548
N6    N     N_3   0.847900 0.725568 0.984584 -0.602611
H31   H     H_    0.907455 0.811811 0.983097 0.214455
H32   H     H_    0.763479 0.710178 0.993721 0.235013
C69   C     C_3   0.897431 0.759156 0.087929 -0.761190
H33   H     H_    0.985766 0.819789 0.103781 0.264707
H34   H     H_    0.863977 0.811400 0.056454 0.194778
H35   H     H_    0.829402 0.721504 0.115560 0.251447
N7    N     N_3   0.991483 0.291418 0.768309 -0.545633
H36   H     H_    0.925147 0.211543 0.761725 0.262465
H37   H     H_    0.075616 0.296761 0.763899 0.208202
N8    N     N_3   0.395409 0.789537 0.473915 -0.598486
H38   H     H_    0.415849 0.739593 0.506917 0.225091
H39   H     H_    0.471035 0.834250 0.453516 0.219521
C70   C     C_3   0.777167 0.885773 0.579978 -0.852829
H40   H     H_    0.877561 0.924023 0.588129 0.228241
H41   H     H_    0.736623 0.852636 0.616284 0.243397
H42   H     H_    0.749682 0.813476 0.560432 0.236570
N9    N     N_3   0.683594 0.783607 0.379964 -0.585122
H43   H     H_    0.752924 0.855457 0.392978 0.218245
H44   H     H_    0.604980 0.797535 0.372350 0.225028
N10   N     N_3   0.721163 0.364450 0.565585 -0.496480
H45   H     H_    0.691012 0.276687 0.567371 0.206809
H46   H     H_    0.732159 0.375833 0.602741 0.212980

loop_
_geom_bond_atom_site_label_1
_geom_bond_atom_site_label_2
_ccdc_geom_bond_type
C10   C27   A    
C58   C62   A    
Cu1   O1    S    
C21   C26   A    
C60   H11   S    
C8    C66   A    
C67   H24   S    
C41   C42   A    
C68   H26   S    
C53   N9    S    
Cu2   O9    S    
C66   C67   S    
C70   H42   S    
N8    H38   S    
C1    O5    A    
C54   H16   S    
N9    H43   S    
C53   C54   A    
C52   C53   A    
C20   N2    A    
C7    C56   A    
C28   C29   A    
C4    C7    A    
C5    C6    A    
C61   N10   S    
C23   O8    A    
C26   N2    S    
C15   C16   A    
C3    N1    S    
C18   C19   A    
C46   C47   A    
C22   H17   S    
N6    H31   S    
C69   H35   S    
C19   N2    A    
C51   H12   S    
C56   N1    A    
C23   O9    A    
C16   C17   A    
N5    H30   S    
C49   H4    S    
Cu1   O10   S    
C67   H23   S    
C52   N4    A    
C43   C48   A    
C1    O1    A    
N7    H36   S    
C20   O2    S    
C35   H3    S    
C59   C60   A    
C21   C22   A    
C27   C30   A    
C33   C69   S    
C41   C43   A    
C56   O3    S    
C30   H21   S    
C31   N5    S    
C4    C28   A    
C19   O4    S    
C44   C46   A    
C24   H1    S    
N6    H32   S    
C38   H7    S    
C65   H22   S    
C7    C31   A    
Cu1   Cu2   S    
C51   C63   A    
Cu2   O7    S    
C10   C14   A    
C39   C40   A    
C64   C68   S    
C70   H41   S    
C58   C59   A    
C23   C37   S    
C5    C45   A    
Cu2   N4    S    
C40   H8    S    
C12   O6    A    
C60   C61   A    
C43   C44   A    
C48   N8    S    
C37   C49   A    
C8    C12   S    
C62   N3    A    
C17   C18   A    
C68   H27   S    
C16   C20   A    
C24   C25   A    
C37   C48   A    
C52   H14   S    
C69   H33   S    
C36   H6    S    
Cu1   O6    S    
C42   C50   A    
C40   C41   A    
C6    C30   A    
C62   H13   S    
C11   C32   A    
C57   N4    A    
C55   C57   A    
C9    C34   S    
C67   H25   S    
C31   C35   A    
C36   C44   A    
C51   C59   A    
Cu2   O11   S    
C47   H9    S    
C70   H40   S    
C45   O12   S    
C15   H19   S    
C1    C50   S    
N9    H44   S    
C63   N3    A    
C54   C55   A    
C6    H15   S    
C34   O11   A    
C32   N6    S    
C4    C5    A    
C2    C66   A    
C10   C13   A    
N8    H39   S    
C21   H18   S    
C9    C24   A    
C57   C61   A    
C38   C50   A    
C29   C35   A    
C13   C17   A    
C64   C65   A    
N10   H46   S    
C2    C3    A    
C25   C26   A    
Cu2   O5    S    
C14   H20   S    
C12   O7    A    
C32   C33   A    
C11   C13   A    
C38   C39   A    
C39   C70   S    
Cu1   N3    S    
C68   H28   S    
C42   C47   A    
C3    C64   A    
C45   N1    A    
C18   C33   A    
C34   O10   A    
C69   H34   S    
N10   H45   S    
C2    N7    S    
C8    C65   A    
C11   C29   A    
C9    C22   A    
C55   C58   A    
C27   C28   A    
N7    H37   S    
C14   C15   A    
C25   H2    S    
C46   H5    S    
C36   C49   A    
N5    H29   S    
Cu1   O8    S    
C63   H10   S    
