data_mof_unit_13935.cif
_audit_creation_date              2012-12-10T19:18:17-0500
_audit_creation_method            fapswitch 2.2
_symmetry_space_group_name_H-M    P1
_symmetry_Int_Tables_number       1
_space_group_crystal_system       triclinic
_cell_length_a                    15.899717
_cell_length_b                    15.994277
_cell_length_c                    14.759852
_cell_angle_alpha                 89.917001
_cell_angle_beta                  90.096295
_cell_angle_gamma                 90.315709
_cell_volume                      3753.43028637

loop_
_atom_site_label
_atom_site_type_symbol
_atom_type_description
_atom_site_fract_x
_atom_site_fract_y
_atom_site_fract_z
_atom_type_partial_charge
C1    C     C_R   0.500548 0.340861 0.500020 0.823003
C2    C     C_R   0.500340 0.659156 0.500040 0.825391
C3    C     C_R   0.502599 0.912815 0.501430 0.013134
C4    C     C_R   0.502213 0.087253 0.499082 0.015908
C5    C     C_R   0.461047 0.955385 0.431821 -0.382907
C6    C     C_R   0.544631 0.044552 0.567981 -0.368184
C7    C     C_1   0.502346 0.823250 0.500999 0.027842
C8    C     C_1   0.502409 0.176818 0.499688 0.039057
C9    C     C_1   0.501713 0.251822 0.500010 -0.169658
C10   C     C_1   0.501471 0.748231 0.500358 -0.177542
C11   C     C_R   0.499419 0.575543 0.950504 0.428924
C12   C     C_R   0.481915 0.425927 0.049357 0.439801
C13   C     C_R   0.495097 0.499184 0.902858 -0.150602
C14   C     C_R   0.495542 0.501393 0.096994 -0.156603
C15   C     C_R   0.486689 0.423868 0.952716 0.018493
C16   C     C_R   0.503825 0.576757 0.046993 0.026531
C17   C     C_1   0.497994 0.499457 0.802586 0.233528
C18   C     C_1   0.498508 0.500772 0.197368 0.221962
C19   C     C_R   0.339595 0.499576 0.499999 0.822165
C20   C     C_R   0.660408 0.500949 0.499972 0.823610
C21   C     C_3   0.968179 0.435927 0.537977 0.366033
C22   C     C_3   0.032249 0.571048 0.458052 0.280555
C23   C     C_3   0.028631 0.434802 0.456253 0.283427
C24   C     C_3   0.972109 0.571714 0.540879 0.269415
C25   C     C_1   0.250427 0.499164 0.500439 -0.177293
C26   C     C_1   0.749556 0.503694 0.499240 -0.176010
C27   C     C_3   0.023514 0.501706 0.586033 0.330995
C28   C     C_3   0.976737 0.505102 0.410019 0.236357
C29   C     C_3   0.084021 0.500530 0.503885 -0.199402
C30   C     C_3   0.915986 0.505786 0.493080 -0.245343
C31   C     C_1   0.175256 0.499230 0.502002 0.098024
C32   C     C_1   0.824699 0.505615 0.496711 0.071938
C33   C     C_R   0.543624 0.956967 0.570812 0.467593
C34   C     C_R   0.458957 0.043616 0.430652 0.475117
Cu1   Cu    Cu3+1 0.500020 0.500000 0.589220 0.970616
Cu2   Cu    Cu3+1 0.499980 0.500000 0.410780 0.972174
H1    H     H_    0.579106 0.079353 0.619035 0.162601
H2    H     H_    0.431760 0.919208 0.378401 0.151349
N1    N     N_1   0.500030 0.499980 0.276710 -0.165275
N2    N     N_1   0.499970 0.500020 0.723290 -0.169612
O1    O     O_R   0.500040 0.380310 0.575320 -0.574493
O2    O     O_R   0.499960 0.619690 0.424680 -0.573539
O3    O     O_R   0.500000 0.380310 0.424640 -0.561150
O4    O     O_R   0.500000 0.619690 0.575360 -0.574517
O5    O     O_R   0.379100 0.499990 0.575330 -0.584920
O6    O     O_R   0.620900 0.500010 0.424670 -0.581471
O7    O     O_R   0.379060 0.499990 0.424640 -0.568159
O8    O     O_R   0.620940 0.500010 0.575360 -0.557324
O9    O     O_3   0.063945 0.359879 0.422998 -0.601423
C35   C     C_3   0.028864 0.338331 0.338492 0.102241
H3    H     H_    0.055053 0.380088 0.285082 0.198857
H4    H     H_    0.958995 0.342668 0.339343 0.136204
C36   C     C_3   0.052208 0.248221 0.316086 -0.366797
H5    H     H_    0.121779 0.241929 0.315221 0.237290
H6    H     H_    0.026684 0.205817 0.369184 0.218724
C37   C     C_3   0.016759 0.222125 0.224175 -0.929351
H7    H     H_    0.947312 0.229380 0.223087 0.258881
H8    H     H_    0.031683 0.155499 0.211264 0.262233
H9    H     H_    0.044977 0.260890 0.169476 0.262748
O10   O     O_3   0.935470 0.641595 0.583559 -0.585330
C38   C     C_3   0.997318 0.698870 0.613900 0.098052
H10   H     H_    0.989022 0.758383 0.576220 0.139494
H11   H     H_    0.063272 0.678526 0.602357 0.131185
C39   C     C_3   0.983735 0.716260 0.714601 -0.318815
H12   H     H_    0.922054 0.747441 0.724003 0.227971
H13   H     H_    0.982238 0.656380 0.752709 0.239219
C40   C     C_3   0.053284 0.772038 0.753018 -0.957065
H14   H     H_    0.115250 0.740915 0.746485 0.253772
H15   H     H_    0.041165 0.784036 0.825896 0.263393
H16   H     H_    0.055099 0.832807 0.716526 0.263181
O11   O     O_3   0.934700 0.366611 0.585484 -0.555113
C41   C     C_3   0.892351 0.311615 0.525783 0.095348
H17   H     H_    0.937190 0.263293 0.502186 0.167086
H18   H     H_    0.865255 0.343531 0.465409 0.106970
C42   C     C_3   0.820261 0.269000 0.576685 -0.332498
H19   H     H_    0.846058 0.232314 0.634294 0.230132
H20   H     H_    0.777489 0.317464 0.604246 0.230492
C43   C     C_3   0.769894 0.210902 0.514802 -0.921703
H21   H     H_    0.741371 0.246922 0.458245 0.256306
H22   H     H_    0.718592 0.180527 0.554057 0.263065
H23   H     H_    0.811174 0.161552 0.486659 0.259757
O12   O     O_3   0.073674 0.640157 0.418026 -0.599382
C44   C     C_3   0.015618 0.698686 0.383361 0.113874
H24   H     H_    0.026186 0.759046 0.418756 0.132446
H25   H     H_    0.948367 0.681490 0.393964 0.138333
C45   C     C_3   0.032535 0.712069 0.282435 -0.325404
H26   H     H_    0.096979 0.738050 0.273429 0.219184
H27   H     H_    0.029199 0.651271 0.246380 0.247356
C46   C     C_3   0.969068 0.772035 0.240507 -0.951379
H28   H     H_    0.904318 0.746228 0.246759 0.252888
H29   H     H_    0.983501 0.780854 0.167530 0.262143
H30   H     H_    0.972335 0.833789 0.274717 0.261378
O13   O     O_3   0.963362 0.506380 0.315125 -0.620097
C47   C     C_3   0.883657 0.537780 0.290886 0.064433
H31   H     H_    0.892175 0.576284 0.228872 0.167647
H32   H     H_    0.855701 0.580220 0.342020 0.134907
C48   C     C_3   0.823857 0.465508 0.267828 -0.370836
H33   H     H_    0.853406 0.424861 0.215942 0.225187
H34   H     H_    0.812085 0.426943 0.329092 0.206585
C49   C     C_3   0.740236 0.497649 0.231057 -0.853704
H35   H     H_    0.711034 0.541400 0.279934 0.266023
H36   H     H_    0.696586 0.444250 0.219623 0.265173
H37   H     H_    0.750107 0.530675 0.165647 0.246595
O14   O     O_3   0.037815 0.493330 0.680311 -0.560527
C50   C     C_3   0.114791 0.529795 0.708092 0.063757
H38   H     H_    0.102237 0.567557 0.769604 0.160345
H39   H     H_    0.143299 0.573374 0.657987 0.115295
C51   C     C_3   0.177153 0.461115 0.733701 -0.313653
H40   H     H_    0.148502 0.419714 0.785884 0.229834
H41   H     H_    0.191432 0.422445 0.673307 0.226663
C52   C     C_3   0.258806 0.498020 0.771264 -0.924865
H42   H     H_    0.287704 0.541320 0.721260 0.275635
H43   H     H_    0.303870 0.446974 0.786027 0.257435
H44   H     H_    0.246379 0.532624 0.834996 0.242048
O15   O     O_3   0.589231 0.914091 0.635816 -0.597749
C53   C     C_3   0.550311 0.923619 0.721100 0.028911
H45   H     H_    0.483548 0.901950 0.718317 0.137300
H46   H     H_    0.552513 0.990068 0.743392 0.143589
C54   C     C_3   0.597488 0.870894 0.790891 -0.295701
H47   H     H_    0.595578 0.804117 0.770241 0.236816
H48   H     H_    0.664421 0.891221 0.793432 0.225864
C55   C     C_3   0.559192 0.879614 0.885163 -0.907733
H49   H     H_    0.565455 0.945115 0.909250 0.251638
H50   H     H_    0.592574 0.837903 0.933308 0.269443
H51   H     H_    0.491598 0.861893 0.884140 0.253020
O16   O     O_3   0.422304 0.089763 0.360897 -0.600589
C56   C     C_3   0.347284 0.052815 0.328159 0.056614
H52   H     H_    0.307057 0.029397 0.384749 0.135615
H53   H     H_    0.362608 0.000860 0.281099 0.146525
C57   C     C_3   0.297949 0.118352 0.275058 -0.314194
H54   H     H_    0.282077 0.171402 0.320409 0.224820
H55   H     H_    0.337506 0.142661 0.218731 0.226511
C58   C     C_3   0.217040 0.081436 0.235821 -0.961247
H56   H     H_    0.231283 0.026944 0.191977 0.260268
H57   H     H_    0.184789 0.129264 0.194053 0.261035
H58   H     H_    0.174189 0.061428 0.291231 0.262189
C59   C     C_3   0.516297 0.658281 0.096820 -0.807614
H59   H     H_    0.573221 0.654343 0.140295 0.229932
H60   H     H_    0.525073 0.712214 0.050429 0.254715
H61   H     H_    0.460728 0.670743 0.140112 0.218413
C60   C     C_3   0.482544 0.341699 0.902504 -0.815718
H62   H     H_    0.539047 0.335078 0.859034 0.235724
H63   H     H_    0.480720 0.286944 0.948620 0.255082
H64   H     H_    0.425416 0.339992 0.859151 0.213828
O17   O     O_3   0.500151 0.649526 0.901673 -0.603859
C61   C     C_3   0.416420 0.677842 0.889695 0.041711
H65   H     H_    0.406703 0.732843 0.934303 0.157600
H66   H     H_    0.366900 0.630497 0.907072 0.121427
C62   C     C_3   0.403399 0.704083 0.790935 -0.308761
H67   H     H_    0.451918 0.750685 0.771223 0.230264
H68   H     H_    0.410118 0.648767 0.746290 0.234677
C63   C     C_3   0.316495 0.741768 0.776124 -0.967915
H69   H     H_    0.266695 0.695781 0.794280 0.256309
H70   H     H_    0.308884 0.759056 0.703691 0.260672
H71   H     H_    0.309043 0.798868 0.818031 0.259429
O18   O     O_3   0.467747 0.353201 0.098388 -0.599050
C64   C     C_3   0.380744 0.332837 0.097022 0.035056
H72   H     H_    0.375173 0.263622 0.099988 0.167244
H73   H     H_    0.348009 0.352599 0.033567 0.136260
C65   C     C_3   0.335944 0.369547 0.179720 -0.329153
H74   H     H_    0.367899 0.348277 0.242656 0.244792
H75   H     H_    0.338662 0.438850 0.176825 0.211168
C66   C     C_3   0.243672 0.343066 0.182871 -0.933324
H76   H     H_    0.209753 0.366825 0.122316 0.257361
H77   H     H_    0.213839 0.369295 0.244486 0.272599
H78   H     H_    0.238058 0.273987 0.185172 0.256823

loop_
_geom_bond_atom_site_label_1
_geom_bond_atom_site_label_2
_ccdc_geom_bond_type
C25   C31   T    
C7    C10   T    
C26   C32   T    
O13   C47   S    
C22   C29   S    
C27   C29   S    
C14   C18   S    
Cu2   O2    S    
C52   H42   S    
C24   C27   S    
C4    C8    S    
C56   H53   S    
O17   C61   S    
C36   H5    S    
C53   H45   S    
C59   H60   S    
O16   C56   S    
C21   O11   S    
C23   C29   S    
O18   C64   S    
C66   H77   S    
C3    C7    S    
C62   H68   S    
C43   H22   S    
C23   O9    S    
C3    C33   A    
O15   C53   S    
C27   O14   S    
C51   H40   S    
Cu2   O7    S    
C38   H11   S    
C18   N1    T    
C48   H34   S    
C15   C60   S    
C1    O3    A    
C64   H72   S    
Cu1   Cu2   S    
C2    O4    A    
C8    C9    T    
C58   H58   S    
C35   H4    S    
C12   C15   A    
Cu2   O6    S    
C46   H29   S    
C21   C30   S    
C34   O16   S    
C54   H48   S    
C21   C27   S    
C64   H73   S    
C22   C28   S    
C5    H2    S    
C47   H31   S    
C12   O18   S    
C41   C42   S    
Cu1   O1    S    
Cu1   O8    S    
O14   C50   S    
C59   H61   S    
C48   H33   S    
C61   H66   S    
C36   H6    S    
C50   C51   S    
C4    C34   A    
C33   O15   S    
C35   C36   S    
C45   H27   S    
C40   H14   S    
C39   C40   S    
C66   H78   S    
C1    C9    S    
C41   H18   S    
C60   H64   S    
C45   H26   S    
C11   O17   S    
C47   C48   S    
C49   H37   S    
C19   O5    A    
C28   O13   S    
C40   H15   S    
C17   N2    T    
C39   H13   S    
C38   C39   S    
C57   H55   S    
C42   H19   S    
C65   C66   S    
C61   C62   S    
C50   H39   S    
C11   C16   A    
C44   H24   S    
C63   H71   S    
C24   O10   S    
C5    C34   A    
C49   H36   S    
C35   H3    S    
C6    H1    S    
C52   H43   S    
C51   C52   S    
C23   C28   S    
C46   H30   S    
C47   H32   S    
Cu1   O4    S    
C42   H20   S    
C20   O8    A    
C53   H46   S    
C4    C6    A    
C44   H25   S    
C12   C14   A    
O9    C35   S    
C64   C65   S    
C21   C23   S    
C13   C15   A    
C58   H56   S    
C14   C16   A    
C62   C63   S    
C57   C58   S    
C37   H7    S    
C55   H50   S    
C56   H52   S    
C2    C10   S    
C22   O12   S    
C48   C49   S    
C61   H65   S    
C50   H38   S    
C36   C37   S    
C1    O1    A    
C53   C54   S    
C16   C59   S    
C43   H21   S    
Cu2   N1    S    
C63   H70   S    
C41   H17   S    
C3    C5    A    
C45   C46   S    
C54   H47   S    
C6    C33   A    
C59   H59   S    
C37   H9    S    
C13   C17   S    
C40   H16   S    
C39   H12   S    
C55   H51   S    
C60   H63   S    
Cu1   N2    S    
C46   H28   S    
C56   C57   S    
O11   C41   S    
C29   C31   S    
C60   H62   S    
C65   H74   S    
C30   C32   S    
C11   C13   A    
C43   H23   S    
C51   H41   S    
C20   C26   S    
C2    O2    A    
C28   C30   S    
C49   H35   S    
C54   C55   S    
C37   H8    S    
C57   H54   S    
C52   H44   S    
C22   C24   S    
C38   H10   S    
C19   C25   S    
C42   C43   S    
C24   C30   S    
C66   H76   S    
C44   C45   S    
C63   H69   S    
O12   C44   S    
C19   O7    A    
C58   H57   S    
O10   C38   S    
Cu2   O3    S    
C55   H49   S    
C62   H67   S    
C20   O6    A    
C65   H75   S    
Cu1   O5    S    
