data_mof_unit_31968.cif
_audit_creation_date              2013-03-05T16:07:22-0500
_audit_creation_method            fapswitch 2.2
_symmetry_space_group_name_H-M    P1
_symmetry_Int_Tables_number       1
_space_group_crystal_system       triclinic
_cell_length_a                    9.503222
_cell_length_b                    10.867603
_cell_length_c                    16.958341
_cell_angle_alpha                 89.417684
_cell_angle_beta                  92.631506
_cell_angle_gamma                 89.307341
_cell_volume                      1749.3352491

loop_
_atom_site_label
_atom_site_type_symbol
_atom_site_description
_atom_site_fract_x
_atom_site_fract_y
_atom_site_fract_z
_atom_type_partial_charge
O1    O     O_R   0.618740 0.319660 0.500000 -0.596328
O2    O     O_R   0.381260 0.680340 0.500000 -0.597558
O3    O     O_R   0.381170 0.319630 0.500010 -0.581748
O4    O     O_R   0.618830 0.680370 0.499990 -0.579363
C1    C     C_R   0.502155 0.261848 0.501613 0.821940
C2    C     C_R   0.499543 0.737491 0.504796 0.814071
O5    O     O_R   0.631780 0.498870 0.613920 -0.552240
O6    O     O_R   0.368220 0.501130 0.386080 -0.576377
O7    O     O_R   0.394210 0.498840 0.613930 -0.595364
O8    O     O_R   0.605790 0.501160 0.386070 -0.579305
C3    C     C_R   0.515804 0.498376 0.650918 0.873998
C4    C     C_R   0.483738 0.505396 0.348925 0.896500
Cu1   Cu    Cu3+1 0.640660 0.500020 0.500000 0.959262
Cu2   Cu    Cu3+1 0.359340 0.499980 0.500000 0.943440
C5    C     C_R   0.518346 0.503465 0.737055 -0.195005
C6    C     C_R   0.478618 0.514504 0.262343 -0.199650
C7    C     C_R   0.565481 0.611369 0.774708 0.148220
C8    C     C_R   0.527922 0.414079 0.219503 0.166225
C9    C     C_R   0.542784 0.628378 0.855097 0.231362
C10   C     C_R   0.556039 0.428511 0.139808 0.235461
C11   C     C_R   0.469809 0.538609 0.897019 0.199708
C12   C     C_R   0.526648 0.540888 0.101120 0.188483
C13   C     C_R   0.424903 0.430366 0.859832 0.216625
C14   C     C_R   0.465367 0.639147 0.141507 0.232111
C15   C     C_R   0.454079 0.409251 0.780420 -0.047847
C16   C     C_R   0.440684 0.626612 0.222833 -0.066883
N1    N     N_2   0.443458 0.551780 0.977851 -0.110486
N2    N     N_2   0.554116 0.549828 0.020115 -0.121474
C17   C     C_R   0.386869 0.067365 0.529749 -0.265133
C18   C     C_R   0.622756 0.931039 0.491007 -0.220649
H1    H     H_    0.295599 0.120155 0.546518 0.161382
H2    H     H_    0.713109 0.878246 0.473272 0.152493
C19   C     C_R   0.384815 0.939783 0.537802 0.087324
C20   C     C_R   0.633077 0.058084 0.493847 0.110175
C21   C     C_R   0.500208 0.871043 0.511327 -0.048484
C22   C     C_R   0.508401 0.127721 0.506879 -0.074278
C23   C     C_R   0.080032 0.437146 0.556880 -0.042566
C24   C     C_R   0.919957 0.562446 0.442966 -0.018230
H3    H     H_    0.140613 0.386363 0.602214 0.127169
H4    H     H_    0.859401 0.613196 0.397620 0.123129
C25   C     C_R   0.931130 0.437171 0.556848 -0.010942
C26   C     C_R   0.068810 0.562297 0.442941 -0.007099
H5    H     H_    0.879538 0.386351 0.602193 0.126136
H6    H     H_    0.120276 0.612912 0.397498 0.113188
N3    N     N_R   0.852070 0.500030 0.499980 -0.158428
N4    N     N_R   0.147930 0.499970 0.500020 -0.160729
Br1   Br    Br    0.545038 0.253919 0.268151 -0.519107
Br2   Br    Br    0.655508 0.738333 0.715195 -0.505312
Br3   Br    Br    0.632879 0.293782 0.081676 -0.303160
Br4   Br    Br    0.604378 0.777019 0.906150 -0.316715
Br5   Br    Br    0.323045 0.311824 0.920148 -0.388783
Br6   Br    Br    0.418296 0.790332 0.085056 -0.358174
C27   C     C_3   0.426028 0.283470 0.744630 -0.372908
C28   C     C_3   0.541084 0.191324 0.773935 -0.321981
C29   C     C_3   0.514136 0.062718 0.742146 -0.731592
H7    H     H_    0.408156 0.030722 0.757487 0.265657
H8    H     H_    0.522608 0.062430 0.677239 0.244807
H9    H     H_    0.594601 0.998045 0.768678 0.301929
H10   H     H_    0.645090 0.222677 0.754533 0.218018
H11   H     H_    0.546430 0.186087 0.839434 0.285565
H12   H     H_    0.320247 0.251048 0.759979 0.232920
H13   H     H_    0.424346 0.285870 0.679235 0.175045
C30   C     C_3   0.372022 0.731816 0.265819 -0.354183
C31   C     C_3   0.479074 0.830054 0.290550 -0.348453
C32   C     C_3   0.404301 0.945150 0.319167 -0.733913
H14   H     H_    0.341603 0.989693 0.269635 0.290602
H15   H     H_    0.332968 0.921514 0.366946 0.231182
H16   H     H_    0.483485 0.011328 0.342158 0.271909
H17   H     H_    0.551139 0.792603 0.338595 0.196990
H18   H     H_    0.543926 0.856210 0.240333 0.274014
H19   H     H_    0.285477 0.772924 0.227512 0.241725
H20   H     H_    0.319585 0.699008 0.318942 0.185362
C33   C     C_3   0.266247 0.883612 0.582209 -0.348724
C34   C     C_3   0.132995 0.870008 0.529052 -0.398589
C35   C     C_3   0.016206 0.809199 0.573816 -0.746256
H21   H     H_    0.051948 0.717872 0.597543 0.270089
H22   H     H_    0.984944 0.868252 0.623310 0.266567
H23   H     H_    0.922971 0.795685 0.533317 0.235570
H24   H     H_    0.096152 0.962294 0.507984 0.207738
H25   H     H_    0.155918 0.814042 0.476683 0.232745
H26   H     H_    0.298795 0.793967 0.609671 0.226827
H27   H     H_    0.242105 0.943862 0.632639 0.190990
C36   C     C_3   0.780710 0.109714 0.487445 -0.411938
C37   C     C_3   0.809295 0.155039 0.403836 -0.296625
C38   C     C_3   0.965421 0.180172 0.394476 -0.800941
H28   H     H_    0.005142 0.245322 0.440076 0.254648
H29   H     H_    0.027639 0.093128 0.399480 0.237637
H30   H     H_    0.980306 0.221445 0.335304 0.272257
H31   H     H_    0.774679 0.084900 0.360013 0.242613
H32   H     H_    0.750440 0.241778 0.390918 0.281408
H33   H     H_    0.802809 0.181490 0.532130 0.207625
H34   H     H_    0.859506 0.036422 0.503769 0.192679

loop_
_geom_bond_atom_site_label_1
_geom_bond_atom_site_label_2
_geom_bond_distance
_ccdc_geom_bond_type
C14   Br6   1.930535 S    
C18   H2    1.082678 S    
C29   H7    1.110684 S    
C33   C34   1.529860 S    
C7    Br2   1.932328 S    
O7    Cu2   1.945112 S    
C8    Br1   1.920474 S    
Cu2   N4    2.009094 S    
C28   H11   1.110423 S    
C27   C28   1.535851 S    
O5    C3    1.293052 A    
C36   H34   1.110792 S    
C17   C22   1.403154 A    
C26   H6    1.080819 S    
C18   C21   1.396711 A    
O1    C1    1.281508 A    
C24   H4    1.081568 S    
C14   C16   1.415026 A    
C24   C26   1.414580 A    
C5    C15   1.415345 A    
C1    C22   1.459795 S    
C17   C19   1.392295 A    
C2    C21   1.456799 S    
C26   N4    1.366977 A    
O4    Cu1   1.968422 S    
C24   N3    1.365896 A    
C19   C21   1.412234 A    
C3    C5    1.461465 S    
C4    C6    1.469162 S    
C32   H15   1.110156 S    
O6    Cu2   1.937525 S    
C31   H18   1.110574 S    
C8    C10   1.397284 A    
C11   N1    1.413117 S    
C12   N2    1.412611 S    
Cu1   Cu2   2.673451 S    
C17   H1    1.084549 S    
C25   H5    1.081326 S    
O2    C2    1.290511 A    
C37   H32   1.105082 S    
C33   H26   1.109933 S    
C28   H10   1.112211 S    
C38   H29   1.109896 S    
C6    C16   1.419105 A    
C34   C35   1.526341 S    
C18   C20   1.386514 A    
C37   C38   1.526988 S    
O4    C2    1.292115 A    
C38   H28   1.110211 S    
C35   H21   1.110632 S    
C10   Br3   1.928349 S    
O7    C3    1.289170 A    
C27   H13   1.108399 S    
C13   Br5   1.933162 S    
C36   C37   1.533355 S    
O6    C4    1.291689 A    
C32   H16   1.107869 S    
C31   H17   1.110761 S    
C35   H22   1.110786 S    
C30   H19   1.110931 S    
O3    Cu2   1.968424 S    
O8    C4    1.294322 A    
C19   C33   1.514792 S    
C10   C12   1.399495 A    
C34   H24   1.108528 S    
C29   H8    1.107373 S    
C12   C14   1.408894 A    
O1    Cu1   1.973622 S    
C20   C36   1.525373 S    
C27   H12   1.110490 S    
C33   H27   1.112886 S    
C38   H30   1.110650 S    
C5    C7    1.408947 A    
C28   C29   1.523448 S    
C16   C30   1.518856 S    
C9    C11   1.409121 A    
C15   C27   1.522750 S    
O3    C1    1.302422 A    
O8    Cu1   1.945112 S    
C36   H33   1.108223 S    
C31   C32   1.525608 S    
C11   C13   1.402167 A    
C23   H3    1.081726 S    
Cu1   N3    2.009093 S    
C9    Br4   1.925193 S    
C7    C9    1.403692 A    
C20   C22   1.425171 A    
C13   C15   1.407897 A    
C23   C25   1.415024 A    
O2    Cu2   1.973622 S    
C35   H23   1.107990 S    
C30   C31   1.531943 S    
O5    Cu1   1.937522 S    
C30   H20   1.107265 S    
C6    C8    1.404787 A    
C32   H14   1.110720 S    
C37   H31   1.112055 S    
C29   H9    1.109111 S    
N1    N2    1.244978 D    
C25   N3    1.367060 A    
C34   H25   1.109784 S    
C23   N4    1.366260 A    
