data_mof_unit_63873.cif
_audit_creation_date              2013-03-05T16:45:50-0500
_audit_creation_method            fapswitch 2.2
_symmetry_space_group_name_H-M    P1
_symmetry_Int_Tables_number       1
_space_group_crystal_system       triclinic
_cell_length_a                    15.851793
_cell_length_b                    15.885993
_cell_length_c                    17.107133
_cell_angle_alpha                 90.288819
_cell_angle_beta                  96.091576
_cell_angle_gamma                 92.181175
_cell_volume                      4280.33656558

loop_
_atom_site_label
_atom_site_type_symbol
_atom_site_description
_atom_site_fract_x
_atom_site_fract_y
_atom_site_fract_z
_atom_type_partial_charge
O1    O     O_R   0.579470 0.503780 0.617500 -0.597196
O2    O     O_R   0.420530 0.496220 0.382500 -0.584158
O3    O     O_R   0.436280 0.496950 0.611050 -0.543111
O4    O     O_R   0.563720 0.503050 0.388950 -0.559261
C1    C     C_R   0.510132 0.498633 0.651248 0.854120
C2    C     C_R   0.489888 0.501332 0.348747 0.854086
O5    O     O_R   0.571580 0.624340 0.503230 -0.541341
O6    O     O_R   0.428420 0.375660 0.496770 -0.556911
O7    O     O_R   0.428390 0.617510 0.496780 -0.591813
O8    O     O_R   0.571610 0.382490 0.503220 -0.577950
C3    C     C_R   0.499638 0.660179 0.500016 0.825422
C4    C     C_R   0.500350 0.339822 0.499983 0.824602
Cu1   Cu    Cu3+1 0.584780 0.504040 0.503820 1.013482
Cu2   Cu    Cu3+1 0.415220 0.495960 0.496180 1.012810
C5    C     C_3   0.539539 0.030269 0.568993 -0.241272
C6    C     C_3   0.460139 0.969730 0.430956 -0.241108
C7    C     C_3   0.458629 0.970435 0.560246 -0.242703
C8    C     C_3   0.541049 0.029565 0.439704 -0.243398
H1    H     H_    0.423577 0.945976 0.608731 0.198837
H2    H     H_    0.576099 0.054021 0.391217 0.198114
H3    H     H_    0.573368 0.055300 0.624930 0.198074
H4    H     H_    0.426310 0.944698 0.375020 0.198259
C9    C     C_1   0.498931 0.749695 0.499955 -0.097820
C10   C     C_1   0.500986 0.250307 0.500029 -0.099735
C11   C     C_3   0.578409 0.975734 0.508504 0.391832
C12   C     C_3   0.421269 0.024276 0.491445 0.391315
C13   C     C_3   0.499481 0.916690 0.499973 0.010552
C14   C     C_3   0.500205 0.083310 0.499977 0.010862
C15   C     C_1   0.498911 0.825126 0.499940 0.082972
C16   C     C_1   0.500886 0.174874 0.500026 0.081925
C17   C     C_R   0.515372 0.498163 0.737174 -0.154773
C18   C     C_R   0.484768 0.501590 0.262817 -0.156035
C19   C     C_R   0.454072 0.454310 0.777051 0.235887
C20   C     C_R   0.546242 0.545184 0.222930 0.232521
C21   C     C_R   0.459255 0.459075 0.858659 -0.191842
C22   C     C_R   0.541227 0.540140 0.141346 -0.188953
C23   C     C_R   0.525268 0.507011 0.901869 0.270166
C24   C     C_R   0.475240 0.492159 0.098155 0.270433
C25   C     C_R   0.587492 0.548103 0.862004 0.279396
C26   C     C_R   0.412916 0.451232 0.138016 0.277333
C27   C     C_R   0.582503 0.543591 0.780315 -0.276631
C28   C     C_R   0.417718 0.456040 0.219689 -0.273863
N1    N     N_2   0.531376 0.515012 0.984923 -0.183558
N2    N     N_2   0.469182 0.484063 0.015109 -0.183370
H5    H     H_    0.589030 0.574274 0.112009 0.224785
H6    H     H_    0.411557 0.424782 0.887995 0.224239
H7    H     H_    0.630283 0.577197 0.750422 0.200856
H8    H     H_    0.369865 0.422556 0.249587 0.204287
N3    N     N_R   0.287870 0.489880 0.490440 -0.216068
N4    N     N_R   0.712130 0.510120 0.509560 -0.215534
C29   C     C_R   0.249363 0.550157 0.529150 0.026922
C30   C     C_R   0.750414 0.476564 0.449557 0.035411
C31   C     C_R   0.160726 0.549451 0.529565 0.148518
C32   C     C_R   0.839110 0.481517 0.449270 0.151457
C33   C     C_R   0.109709 0.483110 0.489761 0.251999
C34   C     C_R   0.890377 0.519335 0.514195 0.252237
C35   C     C_R   0.152207 0.421576 0.450698 0.155355
C36   C     C_R   0.848585 0.553452 0.575186 0.153223
C37   C     C_R   0.240914 0.426486 0.451309 0.024176
C38   C     C_R   0.759655 0.548425 0.571508 0.016081
N5    N     N_2   0.018526 0.473431 0.486806 -0.115789
N6    N     N_2   0.981249 0.530268 0.518494 -0.103966
H9    H     H_    0.711730 0.447085 0.400362 0.184746
H10   H     H_    0.288086 0.599475 0.560619 0.178384
H11   H     H_    0.272465 0.378930 0.420974 0.178997
H12   H     H_    0.728525 0.575676 0.618329 0.172081
Br1   Br    Br    0.090901 0.328805 0.396142 -0.276791
Br2   Br    Br    0.910874 0.607214 0.665037 -0.286536
N7    N     N_R   0.333430 0.049688 0.481910 0.149673
O9    O     O_R   0.272072 0.992570 0.475314 -0.279296
O10   O     O_R   0.315697 0.128945 0.479899 -0.303676
N8    N     N_R   0.666257 0.950357 0.518033 0.149094
O11   O     O_R   0.727593 0.007498 0.524658 -0.283195
O12   O     O_R   0.684022 0.871110 0.519979 -0.300847
Br3   Br    Br    0.635979 0.616397 0.275224 -0.383854
Br4   Br    Br    0.364399 0.383093 0.724660 -0.381729
Br5   Br    Br    0.679450 0.612715 0.917934 -0.348638
Br6   Br    Br    0.321062 0.386469 0.082097 -0.354327
Br7   Br    Br    0.882733 0.442712 0.355505 -0.309856
Br8   Br    Br    0.119042 0.641349 0.586097 -0.308614

loop_
_geom_bond_atom_site_label_1
_geom_bond_atom_site_label_2
_geom_bond_distance
_ccdc_geom_bond_type
C2    C18   1.463660 S    
C13   C15   1.454279 S    
O7    Cu2   1.934136 S    
C25   C27   1.392631 A    
O5    C3    1.290017 A    
O1    C1    1.294759 A    
C7    C12   1.538940 S    
C9    C15   1.198310 T    
C21   C23   1.410964 A    
C35   C37   1.404282 A    
Cu2   N3    2.009284 S    
C36   C38   1.403619 A    
O4    Cu1   1.957896 S    
N7    O10   1.300302 A    
C7    H1    1.110100 S    
N3    C29   1.360870 A    
N4    C30   1.362874 A    
C17   C19   1.410282 A    
C8    H2    1.110100 S    
N5    N6    1.249773 D    
C20   Br3   1.923757 S    
C34   N6    1.438364 S    
C6    C13   1.544870 S    
C26   C28   1.392716 A    
C38   H12   1.081249 S    
Cu1   Cu2   2.675255 S    
O2    C2    1.295078 A    
C8    C11   1.538845 S    
C35   Br1   1.916274 S    
C30   C32   1.405732 A    
C31   C33   1.428071 A    
C6    C12   1.538893 S    
C32   C34   1.421105 A    
C7    C13   1.544794 S    
C31   Br8   1.923015 S    
C8    C14   1.544734 S    
N8    O12   1.300270 A    
O6    Cu2   1.930368 S    
C30   H9    1.080853 S    
C29   C31   1.405441 A    
C18   C20   1.410428 A    
C23   N1    1.418548 S    
N1    N2    1.246627 D    
C24   N2    1.418574 S    
C19   Br4   1.923757 S    
O5    Cu1   1.930365 S    
O6    C4    1.289834 A    
C27   H7    1.083672 S    
C22   H5    1.082713 S    
C11   N8    1.457230 S    
C28   H8    1.083667 S    
O7    C3    1.290801 A    
O3    Cu2   1.957898 S    
O8    C4    1.290955 A    
O4    C2    1.292308 A    
C33   C35   1.412453 A    
C26   Br6   1.916794 S    
O1    Cu1   1.955481 S    
C25   Br5   1.916801 S    
C32   Br7   1.920696 S    
C36   Br2   1.915071 S    
C5    C7    1.560739 S    
C6    H4    1.110136 S    
C17   C27   1.402626 A    
C29   H10   1.081390 S    
N8    O11   1.300219 A    
O3    C1    1.292556 A    
O8    Cu1   1.934139 S    
C11   C13   1.528724 S    
C4    C10   1.422461 S    
C12   C14   1.528728 S    
N3    C37   1.358950 A    
N4    C38   1.360184 A    
C22   C24   1.410913 A    
C14   C16   1.454211 S    
C23   C25   1.400845 A    
C37   H11   1.081700 S    
C24   C26   1.400821 A    
C5    C14   1.544821 S    
C33   N5    1.443236 S    
C3    C9    1.422519 S    
C19   C21   1.391263 A    
C34   C36   1.410529 A    
C20   C22   1.391224 A    
N7    O9    1.300220 A    
O2    Cu2   1.955481 S    
C10   C16   1.198272 T    
C5    C11   1.538806 S    
Cu1   N4    2.009284 S    
C5    H3    1.110136 S    
C6    C8    1.560738 S    
C12   N7    1.457274 S    
C18   C28   1.402603 A    
C21   H6    1.082719 S    
C1    C17   1.463530 S    
