data_mof_unit_13101.cif
_audit_creation_date              2013-03-05T16:05:41-0500
_audit_creation_method            fapswitch 2.2
_symmetry_space_group_name_H-M    P1
_symmetry_Int_Tables_number       1
_space_group_crystal_system       triclinic
_cell_length_a                    10.646002
_cell_length_b                    15.019521
_cell_length_c                    15.35304
_cell_angle_alpha                 82.501646
_cell_angle_beta                  89.885597
_cell_angle_gamma                 104.480809
_cell_volume                      2355.0690802

loop_
_atom_site_label
_atom_site_type_symbol
_atom_site_description
_atom_site_fract_x
_atom_site_fract_y
_atom_site_fract_z
_atom_type_partial_charge
O1    O     O_R   0.462770 0.383110 0.605620 -0.624219
O2    O     O_R   0.510160 0.531900 0.639510 -0.610458
C1    C     C_R   0.485255 0.442232 0.662526 0.846142
O3    O     O_R   0.661510 0.425600 0.483070 -0.584498
O4    O     O_R   0.708900 0.574390 0.516960 -0.634933
C2    C     C_R   0.741881 0.500124 0.501687 0.835589
Zn1   Zn    Zn3+2 0.468350 0.400660 0.477370 0.976406
Zn2   Zn    Zn3+2 0.531650 0.599340 0.522630 0.932224
O5    O     O_R   0.489840 0.468100 0.360490 -0.603781
O6    O     O_R   0.537230 0.616890 0.394380 -0.593426
O7    O     O_R   0.291100 0.425610 0.483040 -0.602337
O8    O     O_R   0.338490 0.574400 0.516930 -0.636285
C3    C     C_R   0.526424 0.558020 0.338060 0.922179
C4    C     C_R   0.257656 0.498771 0.502205 0.844768
C5    C     C_3   0.895831 0.409899 0.558168 -0.375626
H1    H     H_    0.833313 0.346337 0.536331 0.215892
H2    H     H_    0.866256 0.408622 0.628030 0.148325
C6    C     C_3   0.038355 0.406497 0.552672 -0.379277
H3    H     H_    0.074009 0.393889 0.620153 0.151060
H4    H     H_    0.046021 0.347490 0.517741 0.213720
H5    H     H_    0.099050 0.458145 0.371353 0.204301
C7    C     C_3   0.933048 0.510487 0.406236 0.199861
C8    C     C_3   0.957036 0.583320 0.546662 -0.476362
C9    C     C_3   0.878517 0.500244 0.502722 0.062752
H6    H     H_    0.949906 0.650330 0.508843 0.188820
H7    H     H_    0.918001 0.580462 0.614632 0.180354
C10   C     C_3   0.121056 0.499175 0.503149 0.121209
C11   C     C_3   0.078330 0.512380 0.407268 -0.449992
C12   C     C_3   0.099302 0.580707 0.549850 -0.389258
H8    H     H_    0.128118 0.572123 0.619526 0.182246
H9    H     H_    0.159389 0.648678 0.517199 0.182723
H10   H     H_    0.924700 0.578748 0.372067 0.083464
H11   H     H_    0.136008 0.580137 0.372557 0.148172
C13   C     C_R   0.480585 0.406063 0.756228 -0.113756
C14   C     C_R   0.581145 0.590313 0.248793 -0.120273
C15   C     C_R   0.372267 0.289262 0.874669 -0.199521
C16   C     C_R   0.394954 0.319847 0.785452 -0.238831
C17   C     C_R   0.555234 0.458210 0.817255 0.130430
C18   C     C_R   0.539307 0.423424 0.908049 0.053486
C19   C     C_R   0.438206 0.343010 0.936001 0.131078
C20   C     C_R   0.610184 0.472098 0.972869 0.063993
C21   C     C_R   0.552357 0.460644 0.057440 0.099022
C22   C     C_R   0.450738 0.380812 0.083983 -0.198168
C23   C     C_R   0.399500 0.320035 0.024692 -0.217020
C24   C     C_R   0.735496 0.531748 0.956432 -0.199370
C25   C     C_R   0.791381 0.590559 0.016366 -0.159837
C26   C     C_R   0.723093 0.592133 0.094104 0.026068
C27   C     C_R   0.600394 0.528377 0.113090 0.088797
C28   C     C_R   0.775137 0.654995 0.153714 0.280311
C29   C     C_R   0.705025 0.653085 0.232532 0.120282
C30   C     C_R   0.527306 0.534709 0.186210 -0.283762
H12   H     H_    0.322921 0.258553 0.047106 0.151953
H13   H     H_    0.429527 0.491742 0.198965 0.142224
H14   H     H_    0.886539 0.636483 0.999822 0.195945
H15   H     H_    0.298364 0.225822 0.895693 0.150334
H16   H     H_    0.338422 0.278840 0.739292 0.168892
H17   H     H_    0.413346 0.362170 0.151110 0.148652
H18   H     H_    0.792564 0.532218 0.897980 0.169938
N1    N     N_R   0.573860 0.731700 0.552730 -0.103597
N2    N     N_R   0.426060 0.268290 0.447230 -0.122502
C31   C     C_R   0.727986 0.851393 0.609964 -0.321674
C32   C     C_R   0.683535 0.759255 0.597203 0.003595
C33   C     C_R   0.505852 0.791666 0.517764 -0.043731
C34   C     C_R   0.552808 0.887836 0.520762 0.003149
C35   C     C_R   0.662614 0.916055 0.572198 0.174860
C36   C     C_R   0.493042 0.955948 0.477590 0.026464
C37   C     C_R   0.532133 0.048900 0.499119 0.058047
C38   C     C_R   0.640356 0.073042 0.552229 -0.200116
C39   C     C_R   0.705978 0.008197 0.586114 -0.208377
C40   C     C_R   0.398243 0.936214 0.412526 0.165587
C41   C     C_R   0.329175 0.000653 0.383318 -0.241628
C42   C     C_R   0.360801 0.088740 0.408267 0.090286
C43   C     C_R   0.463790 0.115381 0.464834 -0.000114
C44   C     C_R   0.293009 0.151748 0.372450 -0.316820
C45   C     C_R   0.326858 0.242693 0.391802 0.363418
C46   C     C_R   0.492751 0.207851 0.484356 -0.062987
H19   H     H_    0.789855 0.030054 0.625389 0.144656
H20   H     H_    0.566634 0.233925 0.528854 0.133654
H21   H     H_    0.254436 0.982976 0.336001 0.157821
H22   H     H_    0.813856 0.872183 0.647659 0.147537
H23   H     H_    0.736841 0.709391 0.622253 0.135114
H24   H     H_    0.415556 0.761819 0.489453 0.153501
H25   H     H_    0.679159 0.142397 0.567433 0.138361
H26   H     H_    0.216753 0.129891 0.327580 0.160676
N3    N     N_2   0.766111 0.704139 0.299810 -0.288596
H27   H     H_    0.865216 0.713021 0.301665 0.245937
C47   C     C_3   0.729093 0.789452 0.305827 -0.690065
H28   H     H_    0.760265 0.839324 0.245116 0.257091
H29   H     H_    0.775587 0.821197 0.362920 0.229540
H30   H     H_    0.622756 0.775498 0.315866 0.256940
N4    N     N_2   0.637276 0.548393 0.788939 -0.326962
H31   H     H_    0.691598 0.556367 0.731503 0.221410
C48   C     C_3   0.584045 0.625864 0.801890 -0.713522
H32   H     H_    0.501830 0.628690 0.758259 0.255948
H33   H     H_    0.660711 0.691636 0.787089 0.224191
H34   H     H_    0.549100 0.620156 0.871049 0.243061
N5    N     N_R   0.902455 0.716121 0.137666 0.179671
O9    O     O_R   0.003837 0.682366 0.139576 -0.405721
O10   O     O_R   0.918021 0.805605 0.128728 -0.413597
N6    N     N_2   0.264143 0.310019 0.350793 -0.281648
H35   H     H_    0.322285 0.356603 0.303170 0.229834
C49   C     C_3   0.132422 0.278471 0.322502 -0.779284
H36   H     H_    0.130404 0.240274 0.265088 0.224073
H37   H     H_    0.093405 0.338908 0.300086 0.270273
H38   H     H_    0.069116 0.234446 0.377544 0.265708
N7    N     N_2   0.380783 0.857073 0.367798 -0.332909
H39   H     H_    0.285029 0.819852 0.368442 0.223128
C50   C     C_3   0.439557 0.876535 0.280054 -0.748912
H40   H     H_    0.430797 0.810396 0.252812 0.240728
H41   H     H_    0.543968 0.912969 0.281551 0.249751
H42   H     H_    0.389500 0.920385 0.236053 0.248916
N8    N     N_R   0.860942 0.437912 0.356474 0.224093
O11   O     O_R   0.864568 0.351725 0.376603 -0.420485
O12   O     O_R   0.798131 0.460522 0.287968 -0.394391

loop_
_geom_bond_atom_site_label_1
_geom_bond_atom_site_label_2
_geom_bond_distance
_ccdc_geom_bond_type
C5    C6    1.533412 S    
C47   H28   1.110065 S    
C48   H32   1.109099 S    
C10   C12   1.561290 S    
C13   C16   1.401983 A    
C20   C21   1.407136 A    
C39   H19   1.084409 S    
N8    O12   1.300709 A    
N5    O9    1.301033 A    
C18   C20   1.418172 A    
C36   C40   1.426871 A    
N3    H27   1.030773 S    
Zn1   O7    2.017497 S    
C7    H10   1.113377 S    
C8    C12   1.525575 S    
C15   C16   1.387284 A    
C46   H20   1.075499 S    
C3    C14   1.461139 S    
Zn2   N1    2.039952 S    
O4    C2    1.298562 A    
O7    C4    1.304008 A    
N7    H39   1.032132 S    
C31   H22   1.083824 S    
C5    H1    1.110603 S    
C50   H40   1.110265 S    
C49   H38   1.111125 S    
C5    H2    1.113659 S    
C6    H3    1.113376 S    
C8    H7    1.114072 S    
O5    C3    1.307397 A    
C45   N6    1.427546 S    
C29   N3    1.427533 S    
C16   H16   1.083535 S    
C27   C30   1.391457 A    
C38   C39   1.384478 A    
C8    C9    1.552760 S    
C40   C41   1.386516 A    
C37   C43   1.425186 A    
C4    C10   1.455828 S    
C23   H12   1.084086 S    
C36   C37   1.435948 A    
C48   H33   1.109556 S    
O1    Zn1   1.950980 S    
C31   C32   1.386009 A    
O3    Zn1   2.000180 S    
C41   H21   1.085504 S    
N8    O11   1.301275 A    
N5    O10   1.301178 A    
N3    C47   1.445349 S    
C24   H18   1.080997 S    
C44   C45   1.394318 A    
C33   H24   1.072835 S    
C37   C38   1.412717 A    
C15   C19   1.395990 A    
C42   C44   1.387863 A    
C40   N7    1.422008 S    
N4    H31   1.030610 S    
C1    C13   1.466094 S    
C24   C25   1.390111 A    
C17   N4    1.428175 S    
N2    C46   1.357172 A    
O1    C1    1.306199 A    
C34   C36   1.428620 A    
C22   C23   1.388989 A    
C12   H8    1.113629 S    
N4    C48   1.450623 S    
C26   C27   1.417147 A    
Zn2   O8    2.000180 S    
C2    C9    1.454300 S    
C25   H14   1.081826 S    
C14   C29   1.416311 A    
N6    C49   1.450335 S    
C21   C27   1.412394 A    
C49   H37   1.105702 S    
O3    C2    1.293128 A    
C5    C9    1.556964 S    
H5    C11   1.105822 S    
O8    C4    1.288757 A    
C11   H11   1.114156 S    
C48   H34   1.109900 S    
C7    N8    1.470509 S    
C47   H29   1.110619 S    
C14   C30   1.386164 A    
C43   C46   1.417270 A    
C7    C9    1.564459 S    
C21   C22   1.412839 A    
Zn1   N2    2.040294 S    
C18   C19   1.419201 A    
Zn1   O5    1.925230 S    
C25   C26   1.402161 A    
N1    C32   1.355012 A    
C13   C17   1.416368 A    
C38   H25   1.076507 S    
C32   H23   1.081254 S    
O2    Zn2   1.925230 S    
C6    C10   1.548895 S    
C44   H26   1.081373 S    
C42   C43   1.411237 A    
O6    C3    1.300697 A    
O4    Zn2   2.017496 S    
C26   C28   1.414895 A    
N2    C45   1.368673 A    
N1    C33   1.350943 A    
C50   H42   1.111286 S    
C34   C35   1.418828 A    
O2    C1    1.306054 A    
C41   C42   1.385817 A    
C12   H9    1.114119 S    
C15   H15   1.083927 S    
C17   C18   1.417571 A    
N7    C50   1.447118 S    
C35   C39   1.389983 A    
N6    H35   1.027301 S    
C50   H41   1.111184 S    
C6    H4    1.113452 S    
C8    H6    1.114320 S    
C49   H36   1.110170 S    
C22   H17   1.079963 S    
C28   N5    1.434592 S    
C33   C34   1.412346 A    
C31   C35   1.398725 A    
C19   C23   1.395365 A    
Zn2   O6    1.950980 S    
C28   C29   1.413826 A    
C47   H30   1.105197 S    
C10   C11   1.544277 S    
C20   C24   1.409966 A    
C7    C11   1.539952 S    
C30   H13   1.081035 S    
