data_mof_unit_48029.cif
_audit_creation_date              2012-12-10T17:55:29-0500
_audit_creation_method            fapswitch 2.2
_symmetry_space_group_name_H-M    P1
_symmetry_Int_Tables_number       1
_space_group_crystal_system       triclinic
_cell_length_a                    10.833816
_cell_length_b                    9.531027
_cell_length_c                    10.932856
_cell_angle_alpha                 90.000012
_cell_angle_beta                  90.510281
_cell_angle_gamma                 90.000023
_cell_volume                      1128.85343566

loop_
_atom_site_label
_atom_site_type_symbol
_atom_type_description
_atom_site_fract_x
_atom_site_fract_y
_atom_site_fract_z
_atom_type_partial_charge
C1    C     C_R   0.262096 0.499989 0.500275 0.781107
C2    C     C_R   0.737904 0.499989 0.499726 0.781121
C3    C     C_R   0.498206 0.500006 0.265267 0.855618
C4    C     C_R   0.501795 0.500007 0.734732 0.855627
C5    C     C_2   0.497564 0.384509 0.932981 -0.152982
C6    C     C_2   0.502443 0.384509 0.067019 -0.152970
C7    C     C_2   0.508164 0.502154 0.866751 -0.318091
C8    C     C_2   0.491837 0.502153 0.133249 -0.318093
C9    C     C_R   0.063813 0.372755 0.501117 -0.198285
C10   C     C_R   0.936188 0.372754 0.499016 -0.198197
C11   C     C_R   0.871767 0.500156 0.499421 -0.008781
C12   C     C_R   0.128233 0.500156 0.500585 -0.008777
C13   C     C_R   0.936132 0.627699 0.499930 -0.186520
C14   C     C_R   0.063867 0.627699 0.499954 -0.186497
C15   C     C_R   0.428801 0.075061 0.417037 0.494348
C16   C     C_R   0.571201 0.075065 0.582964 0.494401
C17   C     C_R   0.432064 0.925044 0.416059 -0.153743
C18   C     C_R   0.567936 0.925044 0.583941 -0.153830
Cu1   Cu    Cu3+1 0.500000 0.640660 0.500000 0.939144
Cu2   Cu    Cu3+1 0.500000 0.359340 0.500000 1.013374
H1    H     H_    0.524195 0.603801 0.907916 0.143919
H2    H     H_    0.475804 0.603800 0.092083 0.143921
H3    H     H_    0.888101 0.727394 0.500094 0.145534
H4    H     H_    0.111898 0.727394 0.499690 0.145525
N1    N     N_R   0.500000 0.852070 0.500000 -0.197623
N2    N     N_R   0.500000 0.147940 0.500000 -0.236810
O1    O     O_R   0.319640 0.618740 0.499990 -0.590071
O2    O     O_R   0.680360 0.618740 0.500010 -0.590077
O3    O     O_R   0.319620 0.381170 0.499990 -0.569579
O4    O     O_R   0.680380 0.381170 0.500010 -0.569535
O5    O     O_R   0.500000 0.618750 0.321940 -0.592113
O6    O     O_R   0.500000 0.618750 0.678060 -0.592115
O7    O     O_R   0.499970 0.381180 0.321940 -0.531010
O8    O     O_R   0.500030 0.381180 0.678060 -0.531006
H5    H     H_    0.486639 0.283480 0.888126 0.189557
H6    H     H_    0.513372 0.283481 0.111874 0.189557
H7    H     H_    0.111690 0.273093 0.503132 0.138585
H8    H     H_    0.888312 0.273090 0.497103 0.138613
O9    O     O_3   0.364809 0.151098 0.328465 -0.551799
C19   C     C_3   0.245023 0.098184 0.303735 0.046449
H9    H     H_    0.179604 0.187617 0.307474 0.173665
H10   H     H_    0.211036 0.019921 0.371342 0.101101
C20   C     C_3   0.238953 0.038798 0.174358 -0.834735
H11   H     H_    0.304795 0.950637 0.163767 0.235128
H12   H     H_    0.144179 0.000211 0.154446 0.211109
H13   H     H_    0.262364 0.121978 0.107262 0.256105
O10   O     O_3   0.635200 0.151119 0.671523 -0.551784
C21   C     C_3   0.754925 0.098107 0.696395 0.046374
H14   H     H_    0.820407 0.187485 0.692721 0.173631
H15   H     H_    0.788940 0.019817 0.628826 0.101126
C22   C     C_3   0.760808 0.038735 0.825785 -0.834725
H16   H     H_    0.694856 0.950672 0.836333 0.235137
H17   H     H_    0.855522 0.000015 0.845789 0.211121
H18   H     H_    0.737426 0.121962 0.892845 0.256078
H19   H     H_    0.380646 0.866393 0.348267 0.156379
H20   H     H_    0.619350 0.866384 0.651731 0.156397

loop_
_geom_bond_atom_site_label_1
_geom_bond_atom_site_label_2
_ccdc_geom_bond_type
C8    H2    S    
C20   H11   S    
C15   C17   A    
C11   C13   A    
C9    C10   A    
C17   H19   S    
Cu1   Cu2   S    
C18   H20   S    
C10   H8    S    
C22   H18   S    
Cu2   O8    S    
C21   H15   S    
Cu1   O5    S    
C16   C18   A    
Cu2   O4    S    
C13   C14   A    
C3    O5    A    
Cu1   O2    S    
C20   H12   S    
C15   O9    S    
C4    O6    A    
C18   N1    A    
Cu2   N2    S    
C4    C7    S    
C6    C8    D    
C2    C11   S    
C5    H5    S    
C16   O10   S    
C1    O3    A    
C19   H9    S    
C9    C12   A    
C12   C14   A    
C3    C8    S    
Cu2   O3    S    
C19   C20   S    
C16   N2    A    
C5    C6    S    
Cu1   N1    S    
C20   H13   S    
C4    O8    A    
C2    O4    A    
Cu2   O7    S    
C22   H16   S    
Cu1   O1    S    
C13   H3    S    
C5    C7    D    
C9    H7    S    
C10   C11   A    
C14   H4    S    
O9    C19   S    
C1    O1    A    
C3    O7    A    
C21   H14   S    
C15   N2    A    
C2    O2    A    
C17   N1    A    
C7    H1    S    
Cu1   O6    S    
C21   C22   S    
C1    C12   S    
O10   C21   S    
C6    H6    S    
C19   H10   S    
C22   H17   S    
