data_mof_unit_60404.cif
_audit_creation_date              2012-12-10T17:51:42-0500
_audit_creation_method            fapswitch 2.2
_symmetry_space_group_name_H-M    P1
_symmetry_Int_Tables_number       1
_space_group_crystal_system       triclinic
_cell_length_a                    18.904185
_cell_length_b                    18.715497
_cell_length_c                    18.59758
_cell_angle_alpha                 108.812721
_cell_angle_beta                  109.523632
_cell_angle_gamma                 109.826792
_cell_volume                      5080.45354331

loop_
_atom_site_label
_atom_site_type_symbol
_atom_type_description
_atom_site_fract_x
_atom_site_fract_y
_atom_site_fract_z
_atom_type_partial_charge
C1    C     C_R   0.619558 0.122161 0.001156 1.068893
C2    C     C_R   0.821463 0.242870 0.001565 0.088091
C3    C     C_R   0.814680 0.316263 0.004097 -0.287576
C4    C     C_R   0.746735 0.329509 0.009797 0.342216
C5    C     C_R   0.674923 0.258438 0.995871 0.321408
C6    C     C_R   0.683595 0.186728 0.996987 -0.316382
C7    C     C_R   0.498146 0.742236 0.823418 0.294096
C8    C     C_R   0.506890 0.682755 0.762943 0.381301
C9    C     C_R   0.498510 0.688086 0.687129 -0.287569
C10   C     C_R   0.492146 0.755723 0.674454 0.196712
C11   C     C_R   0.493704 0.820085 0.738969 0.205326
C12   C     C_R   0.502212 0.120808 0.119853 0.918006
C13   C     C_R   0.495536 0.812307 0.812307 -0.326063
C14   C     C_R   0.322231 0.817310 0.076061 -0.303784
C15   C     C_R   0.258312 0.754293 0.076303 0.247475
C16   C     C_R   0.183754 0.687488 0.996789 -0.238791
C17   C     C_R   0.173652 0.684421 0.916886 0.151053
C18   C     C_R   0.237765 0.749731 0.917054 0.409704
C19   C     C_R   0.312758 0.814149 0.997702 -0.227954
C20   C     C_R   0.619611 0.503688 0.623812 0.959717
C21   C     C_R   0.499461 0.382963 0.383818 0.953609
C22   C     C_R   0.380510 0.504959 0.384398 1.014993
C23   C     C_R   0.379970 0.880065 0.999900 0.927307
C24   C     C_R   0.499058 0.622606 0.621331 1.041477
C25   C     C_R   0.879439 0.500734 0.880073 0.984612
C26   C     C_R   0.878618 0.380193 0.999416 1.038776
C27   C     C_R   0.119918 0.499348 0.119954 1.034070
C28   C     C_R   0.118456 0.620642 0.997876 0.986613
C29   C     C_R   0.755989 0.583995 0.762273 0.176899
C30   C     C_R   0.819512 0.582808 0.826598 0.390500
C31   C     C_R   0.813094 0.501926 0.814912 -0.241945
C32   C     C_R   0.741681 0.422815 0.742982 0.238956
C33   C     C_R   0.677432 0.424606 0.680615 -0.244571
C34   C     C_R   0.499358 0.880459 0.879986 1.017660
C35   C     C_R   0.685094 0.504009 0.689886 -0.205917
C36   C     C_R   0.318682 0.490956 0.238506 0.077891
C37   C     C_R   0.255021 0.493291 0.173202 0.435028
C38   C     C_R   0.188030 0.501340 0.187397 -0.262645
C39   C     C_R   0.184822 0.510892 0.264288 0.208139
C40   C     C_R   0.250264 0.514539 0.329801 0.220130
C41   C     C_R   0.315622 0.504340 0.316379 -0.234290
C42   C     C_2   0.457936 0.230316 0.294245 0.523989
C43   C     C_2   0.495094 0.315441 0.315227 -0.311115
C44   C     C_2   0.464364 0.170895 0.225256 -0.355139
C45   C     C_2   0.510995 0.191455 0.187601 0.104291
C46   C     C_R   0.753020 0.175194 0.995853 0.407290
H1    H     H_    0.380624 0.868559 0.137622 0.204763
H2    H     H_    0.510157 0.335570 0.272049 0.180618
H3    H     H_    0.622834 0.363396 0.624247 0.206678
H4    H     H_    0.424148 0.101935 0.200162 0.099057
O1    O     O_R   0.539900 0.091920 0.948590 -0.627076
O2    O     O_R   0.643360 0.554400 0.594170 -0.581613
O3    O     O_R   0.448310 0.360490 0.412110 -0.576788
O4    O     O_R   0.551750 0.463920 0.412090 -0.597255
O5    O     O_R   0.356690 0.452080 0.412090 -0.610162
O6    O     O_R   0.460130 0.555510 0.412070 -0.575777
O7    O     O_R   0.448290 0.542560 0.594160 -0.582014
O8    O     O_R   0.551730 0.645990 0.594150 -0.593533
O9    O     O_R   0.908290 0.449200 0.857490 -0.572686
O10   O     O_R   0.908310 0.551980 0.960300 -0.642724
O11   O     O_R   0.908280 0.357000 0.948510 -0.572198
O12   O     O_R   0.643340 0.091290 0.051390 -0.585469
O13   O     O_R   0.908310 0.459790 0.051330 -0.635631
O14   O     O_R   0.091510 0.448020 0.039520 -0.561435
O15   O     O_R   0.091540 0.550800 0.142340 -0.588638
O16   O     O_R   0.091520 0.540220 0.948490 -0.590989
O17   O     O_R   0.091540 0.643000 0.051310 -0.604461
O18   O     O_R   0.448270 0.091350 0.039630 -0.633136
O19   O     O_R   0.551710 0.090720 0.142430 -0.605758
O20   O     O_R   0.356660 0.908710 0.948610 -0.635723
O21   O     O_R   0.460100 0.908080 0.051410 -0.638308
O22   O     O_R   0.448290 0.909280 0.857570 -0.605198
O23   O     O_R   0.551730 0.908650 0.960370 -0.576396
O24   O     O_R   0.539910 0.450960 0.594180 -0.630239
Zn1   Zn    Zn3+2 0.430930 0.000420 0.931360 0.982089
Zn2   Zn    Zn3+2 0.569070 0.999580 0.068640 1.029755
Zn3   Zn    Zn3+2 0.430950 0.434180 0.503140 1.059836
Zn4   Zn    Zn3+2 0.569090 0.572300 0.503120 1.110927
Zn5   Zn    Zn3+2 0.999890 0.431370 0.931260 1.122203
Zn6   Zn    Zn3+2 0.999930 0.568630 0.068560 1.022046
O25   O     O_3   0.417481 0.202600 0.339063 -0.580434
C47   C     C_3   0.357679 0.112015 0.293409 0.107408
H5    H     H_    0.394202 0.076617 0.298063 0.167392
H6    H     H_    0.313677 0.090417 0.224162 0.136060
C48   C     C_3   0.300655 0.090418 0.333619 -0.745181
H7    H     H_    0.258266 0.119813 0.324729 0.245968
H8    H     H_    0.257448 0.018319 0.299197 0.213384
H9    H     H_    0.340930 0.113799 0.404384 0.266240
O26   O     O_3   0.518808 0.614530 0.767810 -0.608941
C49   C     C_3   0.551861 0.619197 0.849904 0.182661
H10   H     H_    0.505331 0.611960 0.873692 0.186778
H11   H     H_    0.616213 0.679068 0.898324 0.169021
C50   C     C_3   0.559810 0.538727 0.836959 -0.848768
H12   H     H_    0.611390 0.541315 0.820376 0.255245
H13   H     H_    0.575103 0.532708 0.897048 0.207757
H14   H     H_    0.497450 0.479274 0.782115 0.274641
Br1   Br    Br    0.478893 0.760034 0.568091 -0.340207
Br2   Br    Br    0.501979 0.923108 0.730087 -0.374567
Br3   Br    Br    0.280658 0.758563 0.186935 -0.458455
Br4   Br    Br    0.072822 0.591523 0.806212 -0.427871
O27   O     O_3   0.236199 0.740944 0.839184 -0.605365
C51   C     C_3   0.194032 0.781378 0.804924 0.162720
H15   H     H_    0.221404 0.851327 0.850046 0.148323
H16   H     H_    0.125554 0.750621 0.789210 0.166246
C52   C     C_3   0.191716 0.765919 0.717506 -0.693399
H17   H     H_    0.138461 0.698621 0.665184 0.258530
H18   H     H_    0.179554 0.813140 0.698492 0.196278
H19   H     H_    0.253617 0.771927 0.721534 0.272429
Br5   Br    Br    0.766827 0.695605 0.776969 -0.467567
O28   O     O_3   0.894561 0.659227 0.892913 -0.568330
C53   C     C_3   0.883457 0.699711 0.964474 0.149212
H20   H     H_    0.859530 0.654494 0.989431 0.132997
H21   H     H_    0.835433 0.720861 0.944775 0.161594
C54   C     C_3   0.970161 0.779555 0.040479 -0.755301
H22   H     H_    0.987013 0.832196 0.024051 0.254993
H23   H     H_    0.963178 0.803376 0.100916 0.189437
H24   H     H_    0.021575 0.761895 0.054480 0.273817
Br6   Br    Br    0.722784 0.309153 0.724103 -0.430411
Br7   Br    Br    0.404186 0.459342 0.225865 -0.552761
O29   O     O_3   0.247439 0.484250 0.092654 -0.598795
C55   C     C_3   0.316246 0.487859 0.078093 0.165829
H25   H     H_    0.317481 0.426506 0.065562 0.199809
H26   H     H_    0.378744 0.547063 0.132692 0.186586
C56   C     C_3   0.299725 0.493127 0.994671 -0.799974
H27   H     H_    0.292559 0.550815 0.000280 0.264255
H28   H     H_    0.354581 0.498386 0.982755 0.204884
H29   H     H_    0.238954 0.433238 0.937785 0.265215
Br8   Br    Br    0.088026 0.512314 0.278810 -0.376877
Br9   Br    Br    0.251698 0.536788 0.440008 -0.375177
Br10  Br    Br    0.614208 0.298783 0.233507 -0.469021
O30   O     O_3   0.741083 0.092139 0.979896 -0.601827
C57   C     C_3   0.812638 0.079955 0.995257 0.175670
H30   H     H_    0.868616 0.130770 0.061486 0.188372
H31   H     H_    0.826659 0.074633 0.940793 0.207917
C58   C     C_3   0.791230 0.994415 0.995660 -0.780063
H32   H     H_    0.732710 0.939758 0.932584 0.270098
H33   H     H_    0.846200 0.982138 0.004036 0.216081
H34   H     H_    0.779215 0.997025 0.050840 0.255007
Br11  Br    Br    0.930386 0.246646 0.016214 -0.512695
O31   O     O_3   0.741404 0.401078 0.007126 -0.603068
C59   C     C_3   0.775584 0.469705 0.091198 0.215661
H35   H     H_    0.846203 0.497466 0.131259 0.168363
H36   H     H_    0.747688 0.450703 0.130646 0.164014
C60   C     C_3   0.760066 0.541391 0.079719 -0.814612
H37   H     H_    0.694946 0.528691 0.069345 0.243486
H38   H     H_    0.809027 0.606354 0.139247 0.205982
H39   H     H_    0.762790 0.542250 0.020877 0.260387
O32   O     O_3   0.605593 0.266362 0.999966 -0.584198
C61   C     C_3   0.537006 0.234217 0.916151 0.190926
H40   H     H_    0.506878 0.163155 0.875458 0.170066
H41   H     H_    0.557146 0.262926 0.877648 0.153128
C62   C     C_3   0.467189 0.252068 0.927273 -0.772298
H42   H     H_    0.482416 0.318388 0.938599 0.238439
H43   H     H_    0.402589 0.205060 0.867439 0.200140
H44   H     H_    0.465051 0.247777 0.984987 0.287288
O33   O     O_3   0.506342 0.740870 0.899545 -0.629437
C63   C     C_3   0.424185 0.700794 0.892291 0.099482
H45   H     H_    0.385622 0.630798 0.840733 0.152972
H46   H     H_    0.386239 0.732654 0.874901 0.172581
C64   C     C_3   0.438722 0.707063 0.980877 -0.774672
H47   H     H_    0.480014 0.776313 0.033861 0.281707
H48   H     H_    0.375959 0.678543 0.979326 0.216800
H49   H     H_    0.472782 0.671749 0.997476 0.232743

loop_
_geom_bond_atom_site_label_1
_geom_bond_atom_site_label_2
_ccdc_geom_bond_type
C16   C28   S    
C58   H34   S    
C40   Br9   S    
C25   C31   S    
C63   H45   S    
C19   C23   S    
C53   H20   S    
C12   O19   A    
C1    O12   A    
O25   C47   S    
C58   H32   S    
C48   H7    S    
C2    C46   A    
O18   Zn1   S    
O16   Zn5   S    
C12   O18   A    
O27   C51   S    
C51   C52   S    
C11   Br2   S    
C2    Br11  S    
C29   Br5   S    
O33   C63   S    
C37   C38   A    
O1    Zn1   S    
C61   H41   S    
C5    C6    A    
O5    Zn3   S    
C22   C41   S    
C27   C38   S    
C33   H3    S    
C15   C16   A    
O6    Zn4   S    
O19   Zn2   S    
C18   C19   A    
C36   Br7   S    
O28   C53   S    
C55   C56   S    
C33   C35   A    
C21   C43   S    
C20   C35   S    
C7    O33   S    
C8    C9    A    
O24   Zn3   S    
C36   C37   A    
C25   O10   A    
C43   H2    S    
C45   Br10  S    
C50   H13   S    
C5    O32   S    
C23   O20   A    
O12   Zn2   S    
C36   C41   A    
C42   O25   S    
C42   C44   S    
C60   H39   S    
O2    Zn4   S    
C54   H22   S    
O13   Zn6   S    
C48   H8    S    
C38   C39   A    
C52   H19   S    
C1    C6    S    
C64   H49   S    
C23   O21   A    
C7    C8    A    
C28   O17   A    
C32   Br6   S    
O31   C59   S    
C60   H38   S    
C10   C11   A    
C61   C62   S    
O9    Zn5   S    
C39   C40   A    
C16   C17   A    
C22   O6    A    
C18   O27   S    
C64   H48   S    
C10   Br1   S    
C28   O16   A    
C26   O13   A    
C29   C30   A    
C27   O15   A    
O7    Zn3   S    
C4    O31   S    
C52   H18   S    
C49   H11   S    
C31   C32   A    
C62   H44   S    
C7    C13   A    
C30   C31   A    
C17   C18   A    
C20   O24   A    
C53   H21   S    
C50   H12   S    
O32   C61   S    
C51   H16   S    
C1    O1    A    
C55   H25   S    
C22   O5    A    
C56   H29   S    
C24   O8    A    
C40   C41   A    
C30   O28   S    
C50   H14   S    
C47   H6    S    
O3    Zn3   S    
O14   Zn5   S    
C59   C60   S    
C42   C43   D    
C3    C4    A    
C34   O22   A    
C46   O30   S    
C44   C45   D    
C49   C50   S    
C56   H28   S    
C9    C10   A    
C48   H9    S    
C44   H4    S    
C58   H33   S    
O10   Zn6   S    
C39   Br8   S    
C6    C46   A    
C14   C15   A    
C14   C19   A    
C26   O11   A    
C3    C26   S    
O17   Zn6   S    
C62   H43   S    
C12   C45   S    
C54   H23   S    
C9    C24   S    
C24   O7    A    
C14   H1    S    
C63   C64   S    
C47   C48   S    
C52   H17   S    
C29   C35   A    
C21   O4    A    
C60   H37   S    
C64   H47   S    
C59   H36   S    
C2    C3    A    
C13   C34   S    
C20   O2    A    
C61   H40   S    
C32   C33   A    
C21   O3    A    
C11   C13   A    
O22   Zn1   S    
C49   H10   S    
O21   Zn2   S    
C37   O29   S    
O11   Zn5   S    
C57   C58   S    
C57   H31   S    
O23   Zn2   S    
C57   H30   S    
C53   C54   S    
C51   H15   S    
C17   Br4   S    
C55   H26   S    
C54   H24   S    
C27   O14   A    
O8    Zn4   S    
C34   O23   A    
C4    C5    A    
C62   H42   S    
C63   H46   S    
C47   H5    S    
C15   Br3   S    
O20   Zn1   S    
O15   Zn6   S    
O29   C55   S    
C8    O26   S    
C25   O9    A    
O26   C49   S    
C59   H35   S    
O30   C57   S    
C56   H27   S    
O4    Zn4   S    
