data_mof_unit_26729.cif
_audit_creation_date              2012-12-11T16:56:10-0500
_audit_creation_method            fapswitch 2.2
_symmetry_space_group_name_H-M    P1
_symmetry_Int_Tables_number       1
_space_group_crystal_system       triclinic
_cell_length_a                    6.957803
_cell_length_b                    14.563449
_cell_length_c                    16.175683
_cell_angle_alpha                 90.396286
_cell_angle_beta                  90.114499
_cell_angle_gamma                 90.097394
_cell_volume                      1639.03075164

loop_
_atom_site_label
_atom_site_type_symbol
_atom_type_description
_atom_site_fract_x
_atom_site_fract_y
_atom_site_fract_z
_atom_type_partial_charge
O1    O     O_R   0.505830 0.583360 0.413880 -0.539877
O2    O     O_R   0.175830 0.595460 0.585520 -0.530278
O3    O     O_R   0.005520 0.416640 0.586120 -0.532875
C1    C     C_R   0.344916 0.617102 0.614762 0.725303
O4    O     O_R   0.176120 0.594390 0.414490 -0.546837
O5    O     O_R   0.005810 0.415570 0.413870 -0.543325
C2    C     C_R   0.344919 0.616243 0.385908 0.680696
O6    O     O_R   0.505540 0.584430 0.586130 -0.534289
O7    O     O_3   0.339200 0.441330 0.500000 -0.372450
V1    V     V_3+5 0.064350 0.510880 0.500000 1.421348
O8    O     O_R   0.676100 0.404540 0.414480 -0.542851
C3    C     C_R   0.844995 0.382545 0.385706 0.680874
O9    O     O_R   0.675810 0.405610 0.585510 -0.536555
C4    C     C_R   0.845198 0.382604 0.612734 0.790809
V2    V     V_3+5 0.564340 0.489120 0.500000 1.421305
O10   O     O_3   0.839360 0.558670 0.500000 -0.370617
C5    C     C_2   0.720945 0.208557 0.785678 -0.127972
C6    C     C_2   0.885543 0.181831 0.822593 -0.305510
H1    H     H_    0.585424 0.179725 0.806401 0.135737
H2    H     H_    0.022577 0.210337 0.804173 0.132444
C7    C     C_2   0.708692 0.277099 0.717753 -0.115222
C8    C     C_2   0.861701 0.313773 0.679110 -0.283495
H3    H     H_    0.565156 0.297349 0.698773 0.137678
H4    H     H_    0.006320 0.294060 0.696134 0.128575
C9    C     C_R   0.728098 0.181117 0.243005 0.096028
C10   C     C_R   0.882764 0.180435 0.187605 -0.110316
C11   C     C_R   0.034157 0.242508 0.203243 -0.174189
H5    H     H_    0.156772 0.244489 0.162438 0.136402
C12   C     C_R   0.022528 0.307201 0.268235 -0.175247
H6    H     H_    0.137295 0.356733 0.275737 0.128362
C13   C     C_R   0.858821 0.312023 0.319373 -0.106736
C14   C     C_R   0.716154 0.245379 0.307089 0.099671
C15   C     C_3   0.505423 0.257289 0.294920 -0.409400
C16   C     C_3   0.518269 0.186858 0.225442 -0.395927
H7    H     H_    0.469269 0.327355 0.273061 0.168615
H8    H     H_    0.421103 0.232930 0.348809 0.173412
H9    H     H_    0.488662 0.215825 0.163315 0.175019
H10   H     H_    0.442179 0.121591 0.239328 0.165018
C17   C     C_R   0.504963 0.680222 0.743841 0.122528
C18   C     C_R   0.353604 0.681982 0.686196 -0.131336
C19   C     C_R   0.203352 0.744655 0.701660 -0.144056
H11   H     H_    0.082126 0.748029 0.659930 0.126500
C20   C     C_R   0.213510 0.807680 0.768231 -0.170810
H12   H     H_    0.099323 0.857296 0.775813 0.122177
C21   C     C_R   0.375473 0.810882 0.820805 -0.109852
C22   C     C_R   0.516590 0.744146 0.808242 0.083695
C23   C     C_3   0.727927 0.755118 0.799203 -0.431372
C24   C     C_3   0.717150 0.683197 0.730700 -0.002022
H13   H     H_    0.807098 0.732931 0.855322 0.206260
H14   H     H_    0.766708 0.824504 0.776384 0.142747
H15   H     H_    0.755916 0.709614 0.668646 0.109809
C25   C     C_R   0.507304 0.681365 0.260119 0.105261
C26   C     C_R   0.352995 0.681296 0.315709 -0.110877
C27   C     C_R   0.201699 0.743028 0.300186 -0.180309
H16   H     H_    0.079294 0.745489 0.341104 0.131652
C28   C     C_R   0.213082 0.806788 0.235156 -0.177810
H17   H     H_    0.098442 0.856107 0.227805 0.126614
C29   C     C_R   0.376447 0.811051 0.183807 -0.112249
C30   C     C_R   0.519013 0.744711 0.196012 0.112783
C31   C     C_3   0.729853 0.756980 0.207941 -0.409253
C32   C     C_3   0.717238 0.687591 0.277435 -0.401927
H18   H     H_    0.766349 0.827415 0.229759 0.163668
H19   H     H_    0.813743 0.731877 0.153945 0.182658
H20   H     H_    0.747251 0.717533 0.339536 0.168004
H21   H     H_    0.793070 0.622189 0.263460 0.171300
O11   O     O_R   0.229930 0.912420 0.917160 -0.539153
O12   O     O_R   0.559420 0.902500 0.088780 -0.539591
O13   O     O_R   0.729660 0.081330 0.089380 -0.537414
C33   C     C_R   0.390384 0.880787 0.117516 0.697696
O14   O     O_R   0.559650 0.901420 0.917750 -0.539454
O15   O     O_R   0.729880 0.080250 0.917130 -0.537743
C34   C     C_R   0.390288 0.880039 0.888440 0.703705
O16   O     O_R   0.229700 0.913500 0.089410 -0.539127
O17   O     O_3   0.396250 0.055540 0.003280 -0.371768
V3    V     V_3+5 0.671130 0.986010 0.003260 1.405273
O18   O     O_R   0.059600 0.091310 0.917720 -0.544934
C35   C     C_R   0.890866 0.113207 0.889539 0.740647
O19   O     O_R   0.059370 0.092380 0.088750 -0.544849
C36   C     C_R   0.890723 0.114545 0.117368 0.694333
V4    V     V_3+5 0.171120 0.007820 0.003230 1.398020
O20   O     O_3   0.896130 0.938240 0.003240 -0.368919
I1    I     I_    0.850498 0.557194 0.766133 -0.413832

loop_
_geom_bond_atom_site_label_1
_geom_bond_atom_site_label_2
_ccdc_geom_bond_type
C11   C12   A    
C16   H9    S    
C19   H11   S    
C1    O6    A    
C23   H13   S    
C21   C22   A    
O13   V3    S    
C10   C11   A    
C31   H19   S    
C25   C32   S    
O5    C3    A    
C15   H7    S    
O19   V4    S    
V2    O10   S    
C15   H8    S    
C28   H17   S    
C31   H18   S    
O1    C2    A    
C22   C23   S    
O8    V2    S    
C24   H15   S    
O11   C34   A    
C13   C14   A    
C24   I1    S    
C33   O16   A    
O1    V2    S    
O7    V1    S    
C9    C16   S    
C9    C14   A    
C30   C31   S    
O17   V4    S    
C7    C8    D    
C21   C34   S    
C19   C20   A    
C5    C6    D    
C23   H14   S    
C27   C28   A    
O17   V3    S    
C1    C18   S    
O18   C35   A    
C17   C18   A    
O4    C2    A    
O19   C36   A    
V3    O20   S    
C29   C30   A    
C26   C27   A    
C5    C7    S    
C31   C32   S    
O12   C33   A    
C32   H20   S    
O2    C1    A    
C20   H12   S    
C12   H6    S    
C25   C30   A    
C23   C24   S    
C15   C16   S    
C20   C21   A    
O3    C4    A    
C17   C22   A    
C18   C19   A    
O6    V2    S    
O9    V2    S    
C3    C13   S    
C8    H4    S    
O12   V3    S    
C2    C26   S    
O2    V1    S    
O15   C35   A    
C25   C26   A    
C27   H16   S    
C16   H10   S    
O18   V4    S    
V4    O20   S    
O5    V1    S    
O8    C3    A    
C29   C33   S    
O11   V4    S    
C10   C36   S    
C14   C15   S    
C4    C8    S    
C7    H3    S    
C9    C10   A    
O4    V1    S    
C12   C13   A    
O3    V1    S    
V1    O10   S    
O15   V3    S    
O13   C36   A    
C6    C35   S    
C5    H1    S    
O16   V4    S    
C28   C29   A    
C6    H2    S    
O7    V2    S    
C32   H21   S    
O14   V3    S    
O14   C34   A    
O9    C4    A    
C17   C24   S    
C11   H5    S    
