data_mof_unit_67240.cif
_audit_creation_date              2012-12-11T18:15:41-0500
_audit_creation_method            fapswitch 2.2
_symmetry_space_group_name_H-M    P1
_symmetry_Int_Tables_number       1
_space_group_crystal_system       triclinic
_cell_length_a                    20.086449
_cell_length_b                    20.370244
_cell_length_c                    8.545404
_cell_angle_alpha                 89.818575
_cell_angle_beta                  92.335966
_cell_angle_gamma                 90.377732
_cell_volume                      3493.49146657

loop_
_atom_site_label
_atom_site_type_symbol
_atom_type_description
_atom_site_fract_x
_atom_site_fract_y
_atom_site_fract_z
_atom_type_partial_charge
Ba1   Ba    Ba6+2 0.999980 0.452130 0.155200 1.694836
Ba2   Ba    Ba6+2 0.999980 0.547870 0.655200 1.666467
Ba3   Ba    Ba6+2 0.499980 0.952130 0.155200 1.694551
Ba4   Ba    Ba6+2 0.499980 0.047870 0.655200 1.666358
C1    C     C_3   0.939483 0.146803 0.362952 0.591556
C2    C     C_R   0.128170 0.650993 0.154106 -0.305483
C3    C     C_3   0.578097 0.379671 0.491079 -0.311165
C4    C     C_3   0.787956 0.414907 0.914228 -0.356631
C5    C     C_3   0.797122 0.586551 0.402386 -0.185198
C6    C     C_3   0.287934 0.914918 0.914269 -0.356485
C7    C     C_3   0.297118 0.086561 0.402330 -0.185159
C8    C     C_R   0.609757 0.835381 0.682878 -0.224252
C9    C     C_R   0.628153 0.151005 0.154103 -0.305600
C10   C     C_R   0.127332 0.287448 0.573908 -0.046544
C11   C     C_R   0.131917 0.709147 0.065533 -0.006136
C12   C     C_R   0.627291 0.787413 0.573952 -0.047437
C13   C     C_R   0.631890 0.209165 0.065534 -0.006279
C14   C     C_R   0.177538 0.242726 0.613329 0.496508
C15   C     C_R   0.168886 0.762760 0.123993 0.471394
C16   C     C_R   0.677504 0.742698 0.613362 0.496659
C17   C     C_3   0.940870 0.848979 0.846000 0.531631
C18   C     C_R   0.668868 0.262773 0.123984 0.471030
C19   C     C_R   0.212008 0.245807 0.760034 -0.079424
C20   C     C_R   0.205653 0.757970 0.267333 -0.062950
C21   C     C_R   0.711978 0.745783 0.760058 -0.079413
C22   C     C_R   0.705635 0.257982 0.267325 -0.063254
C23   C     C_R   0.199738 0.298718 0.863400 -0.140165
C24   C     C_R   0.197773 0.701453 0.363189 -0.099895
C25   C     C_R   0.699718 0.798702 0.863410 -0.140407
C26   C     C_R   0.697761 0.201462 0.363177 -0.099989
C27   C     C_R   0.797024 0.699196 0.945061 -0.022452
C28   C     C_3   0.439870 0.646485 0.363513 0.594794
C29   C     C_R   0.792605 0.302870 0.450038 -0.050736
C30   C     C_R   0.297044 0.199211 0.945053 -0.022432
C31   C     C_R   0.292615 0.802863 0.450059 -0.050521
C32   C     C_R   0.784972 0.752013 0.047953 0.024463
C33   C     C_R   0.783051 0.247612 0.548625 0.019782
C34   C     C_R   0.284992 0.252028 0.047947 0.024340
C35   C     C_R   0.283059 0.747606 0.548650 0.020089
C36   C     C_R   0.847221 0.651705 0.988402 0.043566
C37   C     C_R   0.842848 0.350522 0.493673 0.013095
C38   C     C_R   0.347236 0.151716 0.988395 0.043364
C39   C     C_3   0.440782 0.348921 0.846310 0.533541
C40   C     C_R   0.342852 0.850520 0.493697 0.013460
C41   C     C_R   0.884167 0.660070 0.129618 -0.284162
C42   C     C_R   0.876555 0.344276 0.639024 -0.268361
C43   C     C_R   0.384193 0.160088 0.129600 -0.284314
C44   C     C_R   0.376550 0.844279 0.639065 -0.268065
C45   C     C_3   0.003742 0.201240 0.881561 0.485231
C46   C     C_3   0.008279 0.795382 0.340147 0.383013
C47   C     C_3   0.503994 0.701357 0.882771 0.459711
C48   C     C_3   0.508747 0.295115 0.341114 0.382736
C49   C     C_R   0.870248 0.710646 0.233069 0.005520
C50   C     C_R   0.149829 0.346987 0.820155 0.062432
C51   C     C_R   0.865982 0.290994 0.737947 0.035128
C52   C     C_R   0.370285 0.210673 0.233044 0.006307
C53   C     C_R   0.365978 0.790996 0.737997 0.032979
C54   C     C_R   0.821104 0.756531 0.192156 -0.072907
C55   C     C_R   0.820020 0.242227 0.691854 -0.109071
C56   C     C_R   0.321134 0.256553 0.192138 -0.072731
C57   C     C_R   0.320021 0.742226 0.691892 -0.110239
C58   C     C_R   0.758537 0.696290 0.803840 0.038162
C59   C     C_R   0.750962 0.308574 0.314156 -0.033655
C60   C     C_R   0.258562 0.196311 0.803822 0.038490
C61   C     C_R   0.153415 0.649382 0.311133 0.016120
C62   C     C_R   0.250977 0.808563 0.314168 -0.033746
C63   C     C_3   0.020679 0.128275 0.879165 0.458702
C64   C     C_3   0.037785 0.864717 0.339862 0.547584
C65   C     C_3   0.520587 0.628329 0.878971 0.459825
C66   C     C_3   0.538023 0.364543 0.339913 0.547730
C67   C     C_3   0.777999 0.484869 0.967863 0.243167
C68   C     C_3   0.782549 0.518185 0.463044 0.220283
C69   C     C_3   0.277983 0.984887 0.967867 0.243114
C70   C     C_3   0.282567 0.018199 0.463046 0.220409
C71   C     C_3   0.705399 0.495421 0.008570 0.544540
C72   C     C_R   0.649811 0.846974 0.820167 0.062461
C73   C     C_3   0.709810 0.511065 0.504953 0.515001
C74   C     C_3   0.205381 0.995456 0.008534 0.544799
C75   C     C_3   0.209841 0.011069 0.505053 0.514840
C76   C     C_3   0.255382 0.477016 0.049508 0.821896
C77   C     C_3   0.224498 0.488485 0.555409 0.871943
C78   C     C_3   0.755391 0.977001 0.049492 0.822042
C79   C     C_3   0.724498 0.988486 0.555403 0.871646
C80   C     C_3   0.310482 0.435366 0.981658 -0.305136
C81   C     C_3   0.274725 0.533005 0.644744 -0.318130
C82   C     C_3   0.810486 0.935343 0.981632 -0.305407
C83   C     C_R   0.653406 0.149388 0.311125 0.015747
C84   C     C_3   0.774727 0.033006 0.644732 -0.317919
C85   C     C_3   0.974154 0.213352 0.376594 0.366759
C86   C     C_3   0.975910 0.783343 0.856180 0.366504
C87   C     C_3   0.474397 0.713093 0.377651 0.370831
C88   C     C_3   0.475869 0.283313 0.856498 0.366665
C89   C     C_R   0.236268 0.299567 0.007945 -0.045192
C90   C     C_R   0.236384 0.698299 0.504604 -0.014191
C91   C     C_R   0.736257 0.799558 0.007938 -0.045469
C92   C     C_R   0.736376 0.198306 0.504584 -0.013808
C93   C     C_3   0.284559 0.544469 0.094605 -0.242722
C94   C     C_R   0.109787 0.335403 0.682846 -0.223816
C95   C     C_3   0.257446 0.423394 0.514793 -0.209072
C96   C     C_3   0.784575 0.044452 0.094586 -0.242901
C97   C     C_3   0.757444 0.923392 0.514789 -0.208976
C98   C     C_3   0.045374 0.370457 0.651558 -0.195077
C99   C     C_3   0.104272 0.588821 0.073910 -0.229303
C100  C     C_3   0.545361 0.870460 0.651554 -0.194792
C101  C     C_3   0.604272 0.088829 0.073899 -0.229148
C102  C     C_3   0.081042 0.115302 0.782189 -0.205993
C103  C     C_3   0.078267 0.879225 0.490783 -0.311523
C104  C     C_3   0.581188 0.615476 0.782714 -0.207494
F1    F     F_    0.695960 0.560184 0.049670 -0.691305
F2    F     F_    0.170392 0.818832 0.038100 -0.742521
F3    F     F_    0.690679 0.694667 0.509869 -0.689042
F4    F     F_    0.670387 0.318840 0.038071 -0.742432
F5    F     F_    0.968395 0.102952 0.468765 -0.676930
F6    F     F_    0.961431 0.887960 0.971288 -0.654593
F7    F     F_    0.469779 0.602175 0.466662 -0.674968
F8    F     F_    0.461510 0.388017 0.971251 -0.652977
F9    F     F_    0.033594 0.106039 0.030551 -0.625233
F10   F     F_    0.987011 0.910074 0.320759 -0.606162
F11   F     F_    0.532931 0.605432 0.030010 -0.623186
F12   F     F_    0.694194 0.556308 0.617259 -0.701488
F13   F     F_    0.487130 0.409683 0.319259 -0.604785
F14   F     F_    0.195934 0.060240 0.049453 -0.690775
F15   F     F_    0.194225 0.056357 0.617260 -0.701620
F16   F     F_    0.235925 0.448252 0.185751 -0.740780
F17   F     F_    0.170489 0.473674 0.641484 -0.739927
F18   F     F_    0.735934 0.948241 0.185740 -0.740745
F19   F     F_    0.670490 0.973676 0.641482 -0.739878
F20   F     F_    0.190701 0.194686 0.509853 -0.689100
H1    H     H_    0.948927 0.247199 0.291391 0.001348
H2    H     H_    0.676310 0.518202 0.399618 0.104153
H3    H     H_    0.588956 0.561720 0.775103 0.193303
H4    H     H_    0.573629 0.635434 0.662265 0.143848
H5    H     H_    0.548416 0.369264 0.594694 0.159775
H6    H     H_    0.624245 0.349850 0.498572 0.041491
H7    H     H_    0.591599 0.432467 0.492773 0.143012
H8    H     H_    0.759328 0.405035 0.802607 0.092108
H9    H     H_    0.841646 0.408730 0.895816 0.112470
H10   H     H_    0.772459 0.379354 0.002642 0.167410
H11   H     H_    0.768408 0.596502 0.291206 0.141425
H12   H     H_    0.784873 0.624214 0.487823 0.190676
H13   H     H_    0.192384 0.963556 0.108619 0.020563
H14   H     H_    0.851029 0.589368 0.381349 0.061417
H15   H     H_    0.259306 0.905038 0.802653 0.092164
H16   H     H_    0.341622 0.908733 0.895860 0.112633
H17   H     H_    0.272432 0.879378 0.002701 0.167421
H18   H     H_    0.268378 0.096499 0.291178 0.141430
H19   H     H_    0.284891 0.124232 0.487768 0.190673
H20   H     H_    0.351019 0.089380 0.381225 0.061261
H21   H     H_    0.176315 0.018142 0.399738 0.103752
H22   H     H_    0.290262 0.405246 0.883557 0.039463
H23   H     H_    0.248949 0.565675 0.725751 0.110509
H24   H     H_    0.790261 0.905218 0.883547 0.039627
H25   H     H_    0.748951 0.065681 0.725731 0.110397
H26   H     H_    0.332738 0.402580 0.073516 0.161478
H27   H     H_    0.311866 0.504174 0.713294 0.059911
H28   H     H_    0.832748 0.902561 0.073489 0.161411
H29   H     H_    0.958319 0.753425 0.754656 0.034098
H30   H     H_    0.811864 0.004175 0.713291 0.060088
H31   H     H_    0.352070 0.465584 0.938225 0.124802
H32   H     H_    0.303053 0.563269 0.561524 0.076136
H33   H     H_    0.852072 0.965559 0.938178 0.124606
H34   H     H_    0.803058 0.063266 0.561509 0.077182
H35   H     H_    0.968193 0.231930 0.497149 -0.078735
H36   H     H_    0.961765 0.758565 0.966008 -0.082252
H37   H     H_    0.468919 0.731216 0.498770 -0.086457
H38   H     H_    0.461868 0.258610 0.966533 -0.081725
H39   H     H_    0.885972 0.152148 0.388174 -0.133174
H40   H     H_    0.448707 0.747158 0.293690 -0.000613
H41   H     H_    0.886438 0.840162 0.848554 -0.092337
H42   H     H_    0.386599 0.651469 0.391337 -0.135948
H43   H     H_    0.386372 0.340065 0.849388 -0.093501
H44   H     H_    0.943109 0.127283 0.242542 0.116586
H45   H     H_    0.951629 0.874497 0.734962 0.049808
H46   H     H_    0.442575 0.627660 0.242233 0.115260
H47   H     H_    0.451330 0.374350 0.735034 0.048699
H48   H     H_    0.977327 0.100492 0.827540 0.085425
H49   H     H_    0.071074 0.869803 0.239676 0.064521
H50   H     H_    0.477251 0.600944 0.825990 0.084697
H51   H     H_    0.458164 0.253326 0.755182 0.033430
H52   H     H_    0.571545 0.369406 0.240113 0.063797
H53   H     H_    0.811314 0.795940 0.272861 0.089384
H54   H     H_    0.812538 0.200601 0.768649 0.064328
H55   H     H_    0.311343 0.295962 0.272844 0.089352
H56   H     H_    0.312536 0.700601 0.768690 0.064478
H57   H     H_    0.922394 0.624958 0.163260 0.054210
H58   H     H_    0.909559 0.383261 0.678907 0.042094
H59   H     H_    0.422417 0.124974 0.163242 0.054222
H60   H     H_    0.409546 0.883269 0.678955 0.042268
H61   H     H_    0.227641 0.337252 0.091819 0.150780
H62   H     H_    0.671477 0.483384 0.906596 0.089914
H63   H     H_    0.231685 0.657090 0.581393 0.070580
H64   H     H_    0.727647 0.837255 0.091789 0.150956
H65   H     H_    0.731683 0.157093 0.581365 0.070503
H66   H     H_    0.764220 0.655240 0.727400 0.183073
H67   H     H_    0.753919 0.352301 0.244011 0.125967
H68   H     H_    0.264249 0.155266 0.727372 0.183058
H69   H     H_    0.253932 0.852291 0.244029 0.125953
H70   H     H_    0.045949 0.229197 0.938148 0.035339
H71   H     H_    0.048481 0.759459 0.369043 -0.108405
H72   H     H_    0.546108 0.728895 0.940969 0.040006
H73   H     H_    0.701921 0.461043 0.552810 -0.053473
H74   H     H_    0.548968 0.259425 0.371699 -0.105648
H75   H     H_    0.995672 0.218278 0.758592 -0.292627
H76   H     H_    0.987763 0.785618 0.219891 -0.029749
H77   H     H_    0.496538 0.718962 0.760098 -0.268259
H78   H     H_    0.488756 0.284803 0.220654 -0.032771
H79   H     H_    0.810093 0.495149 0.073008 0.076152
H80   H     H_    0.813833 0.507564 0.569352 0.085310
H81   H     H_    0.310072 0.995171 0.073021 0.076017
H82   H     H_    0.313873 0.007594 0.569326 0.085314
H83   H     H_    0.327102 0.538931 0.180889 0.119126
H84   H     H_    0.171464 0.983370 0.906587 0.089554
H85   H     H_    0.302120 0.570931 0.990056 0.034270
H86   H     H_    0.246576 0.575087 0.148674 0.075149
H87   H     H_    0.272402 0.395742 0.622175 0.006167
H88   H     H_    0.221693 0.392029 0.445741 0.131762
H89   H     H_    0.302436 0.432184 0.445962 0.130668
H90   H     H_    0.827128 0.038911 0.180842 0.119021
H91   H     H_    0.802124 0.070917 0.990029 0.034064
H92   H     H_    0.746598 0.075069 0.148686 0.075382
H93   H     H_    0.772398 0.895741 0.622172 0.006239
H94   H     H_    0.721690 0.892028 0.445741 0.131932
H95   H     H_    0.201995 0.961067 0.553061 -0.053396
H96   H     H_    0.802435 0.932180 0.445960 0.130797
H97   H     H_    0.020895 0.389402 0.749251 0.133090
H98   H     H_    0.052019 0.412056 0.569349 0.173499
H99   H     H_    0.007183 0.333564 0.616809 0.021232
H100  H     H_    0.130493 0.545537 0.122141 0.133929
H101  H     H_    0.049834 0.582540 0.085723 0.125390
H102  H     H_    0.117333 0.588482 0.949141 0.143580
H103  H     H_    0.520879 0.889413 0.749237 0.133174
H104  H     H_    0.552032 0.912057 0.569354 0.173668
H105  H     H_    0.507159 0.833583 0.616769 0.019974
H106  H     H_    0.692402 0.463475 0.108576 0.020921
H107  H     H_    0.630500 0.045549 0.122133 0.133885
H108  H     H_    0.549834 0.082536 0.085700 0.125381
H109  H     H_    0.617339 0.088494 0.949134 0.143583
H110  H     H_    0.126076 0.138458 0.838144 0.155860
H111  H     H_    0.088905 0.061544 0.775193 0.192055
H112  H     H_    0.073156 0.134966 0.661552 0.146046
H113  H     H_    0.048799 0.868584 0.594611 0.159930
H114  H     H_    0.124309 0.849234 0.497109 0.041796
H115  H     H_    0.091961 0.931967 0.493264 0.142066
H116  H     H_    0.626138 0.638421 0.839589 0.156312
O1    O     O_2   0.130070 0.404060 0.104920 -0.416144
O2    O     O_3   0.957948 0.791229 0.449795 -0.595315
O3    O     O_3   0.446271 0.709058 0.967904 -0.608525
O4    O     O_3   0.457999 0.291235 0.449763 -0.594908
O5    O     O_3   0.924190 0.533610 0.949240 -0.509363
O6    O     O_3   0.924190 0.466390 0.449240 -0.495411
O7    O     O_3   0.424190 0.033610 0.949240 -0.509347
O8    O     O_3   0.424190 0.966390 0.449240 -0.495443
O9    O     O_3   0.075780 0.466370 0.861070 -0.456990
O10   O     O_3   0.075780 0.533630 0.361070 -0.462369
O11   O     O_3   0.575780 0.966370 0.861070 -0.457003
O12   O     O_2   0.130070 0.595940 0.604920 -0.443352
O13   O     O_3   0.575780 0.033630 0.361070 -0.462348
O14   O     O_3   0.022320 0.344950 0.359800 -0.515004
O15   O     O_3   0.022320 0.655050 0.859800 -0.520301
O16   O     O_3   0.522320 0.844950 0.359800 -0.514347
O17   O     O_3   0.522320 0.155050 0.859800 -0.520325
O18   O     O_2   0.129643 0.291370 0.243654 -0.443175
O19   O     O_2   0.128302 0.710246 0.734858 -0.468411
O20   O     O_2   0.629751 0.791547 0.243820 -0.443471
O21   O     O_2   0.628297 0.210233 0.734853 -0.468522
O22   O     O_3   0.201368 0.486802 0.938783 -0.615834
O23   O     O_2   0.630070 0.904060 0.104920 -0.416009
O24   O     O_3   0.203715 0.519157 0.415799 -0.602269
O25   O     O_3   0.701375 0.986795 0.938776 -0.615812
O26   O     O_3   0.703715 0.019156 0.415793 -0.602245
O27   O     O_3   0.041904 0.207140 0.343197 -0.513197
O28   O     O_3   0.045138 0.792851 0.853253 -0.557697
O29   O     O_3   0.541991 0.707194 0.342534 -0.512878
O30   O     O_3   0.545084 0.292840 0.853077 -0.557459
O31   O     O_2   0.869860 0.403670 0.205810 -0.454858
O32   O     O_2   0.869860 0.596330 0.705810 -0.476253
O33   O     O_2   0.369860 0.903670 0.205810 -0.454734
O34   O     O_2   0.630070 0.095940 0.604920 -0.443348
O35   O     O_2   0.369860 0.096330 0.705810 -0.476270
O36   O     O_3   0.977590 0.344880 0.951200 -0.509267
O37   O     O_3   0.977590 0.655120 0.451200 -0.481310
O38   O     O_3   0.477590 0.844880 0.951200 -0.509257
O39   O     O_3   0.477590 0.155120 0.451200 -0.481699
O40   O     O_2   0.865817 0.295894 0.064912 -0.487545
O41   O     O_2   0.870469 0.711180 0.562809 -0.508723
O42   O     O_2   0.365806 0.795931 0.064979 -0.486607
O43   O     O_2   0.370483 0.211210 0.562794 -0.508846
O44   O     O_3   0.794095 0.475475 0.340778 -0.698725
O45   O     O_3   0.792882 0.524928 0.841548 -0.591321
O46   O     O_3   0.294095 0.975476 0.340793 -0.698798
O47   O     O_3   0.292883 0.024930 0.841538 -0.591264
O48   O     O_3   0.946336 0.209064 0.967764 -0.610095
P1    P     P_3+3 0.136530 0.426510 0.931350 1.100510
P2    P     P_3+3 0.917145 0.715790 0.423507 0.945738
P3    P     P_3+3 0.413044 0.786658 0.928688 0.947933
P4    P     P_3+3 0.417169 0.215808 0.423507 0.946064
P5    P     P_3+3 0.083565 0.716346 0.876974 1.023481
P6    P     P_3+3 0.081890 0.282738 0.379476 1.090948
P7    P     P_3+3 0.583549 0.216358 0.876944 1.023717
P8    P     P_3+3 0.581918 0.782768 0.379422 1.090732
P9    P     P_3+3 0.136530 0.573490 0.431350 1.072220
P10   P     P_3+3 0.636530 0.926510 0.931350 1.100518
P11   P     P_3+3 0.636530 0.073490 0.431350 1.072171
P12   P     P_3+3 0.863410 0.426100 0.379280 0.938816
P13   P     P_3+3 0.863410 0.573900 0.879280 0.991759
P14   P     P_3+3 0.363410 0.926100 0.379280 0.938933
P15   P     P_3+3 0.363410 0.073900 0.879280 0.991807
P16   P     P_3+3 0.913058 0.286648 0.928613 0.949071

loop_
_geom_bond_atom_site_label_1
_geom_bond_atom_site_label_2
_ccdc_geom_bond_type
O36   P16   S    
O6    P12   S    
C51   C55   A    
Ba4   O34   S    
C30   C38   A    
C72   P10   S    
C8    C100  S    
O25   P10   S    
O38   P3    S    
O45   P13   S    
Ba4   O39   S    
C85   H1    S    
C4    H10   S    
C81   H27   S    
C82   H28   S    
C104  H3    S    
C26   C92   A    
C80   H26   S    
C8    C12   A    
C96   H91   S    
C42   C51   A    
C77   O24   S    
C84   H30   S    
C75   H21   S    
C99   H102  S    
C67   H79   S    
C79   C84   S    
C101  H107  S    
C27   C58   A    
C103  H115  S    
C48   O4    S    
O33   P14   D    
C80   H31   S    
Ba2   O37   S    
C17   C86   S    
C21   C25   A    
C35   C57   A    
C71   F1    S    
C71   H62   S    
Ba4   O8    S    
C74   H13   S    
O13   P11   S    
C77   C95   S    
C31   C62   A    
C94   C98   S    
C65   F11   S    
C98   H97   S    
C33   C92   A    
C86   H36   S    
C13   P7    S    
Ba4   P11   S    
C55   H54   S    
C47   O3    S    
C81   H23   S    
C35   C90   A    
C53   P3    S    
C82   H24   S    
C65   H50   S    
C16   F3    S    
O35   P15   D    
C63   H48   S    
C12   C16   A    
C42   H58   S    
C53   C57   A    
C19   C60   A    
C17   H45   S    
C70   C75   S    
C23   C89   A    
C58   H66   S    
C74   H84   S    
Ba1   O10   S    
Ba1   O14   S    
C4    C67   S    
C1    F5    S    
O24   P9    S    
C7    C70   S    
C49   C54   A    
C3    H5    S    
O26   P11   S    
C38   P15   S    
O29   P8    S    
Ba1   O1    S    
O30   P7    S    
C41   H57   S    
C84   H34   S    
C24   C61   A    
C21   C58   A    
C11   P5    S    
O7    P15   S    
C95   H88   S    
C101  H109  S    
C27   C32   A    
C103  H113  S    
C47   C65   S    
C26   C83   A    
C46   O2    S    
C1    C85   S    
C40   C44   A    
C97   H94   S    
Ba2   P13   S    
C76   C93   S    
C83   P11   S    
C5    C68   S    
C66   H52   S    
C44   C53   A    
C68   H80   S    
O22   P1    S    
C76   O22   S    
C24   C90   A    
Ba3   O7    S    
C5    H12   S    
Ba1   O5    S    
C7    H20   S    
Ba3   O33   S    
C64   H49   S    
C64   F10   S    
C81   H32   S    
C52   P4    S    
Ba2   O15   S    
O17   P7    S    
C41   C49   A    
C28   F7    S    
C39   H47   S    
C10   C94   A    
Ba3   O38   S    
O46   P14   S    
Ba2   O5    S    
C39   H43   S    
O31   P12   D    
C100  H103  S    
O5    P13   S    
C61   P9    S    
Ba3   O13   S    
C79   O26   S    
C22   C59   A    
C39   F8    S    
C29   C59   A    
C9    C83   A    
C30   C60   A    
C82   H33   S    
C6    H16   S    
C33   C55   A    
C91   H64   S    
C34   C56   A    
C97   H96   S    
C22   C26   A    
C18   F4    S    
C102  H110  S    
C43   H59   S    
Ba3   Ba4   S    
C49   P2    S    
O15   P5    S    
C57   H56   S    
C93   H83   S    
C77   F17   S    
C87   H37   S    
C20   C24   A    
O27   P6    S    
C79   F19   S    
C73   H73   S    
C46   H71   S    
C47   H77   S    
C7    H18   S    
C75   H95   S    
C89   H61   S    
C12   P8    S    
C39   C88   S    
Ba1   P1    S    
C10   P6    S    
C86   H29   S    
O40   P16   D    
C32   C91   A    
C17   H41   S    
C60   H68   S    
C34   C89   A    
C1    H44   S    
C48   H74   S    
C104  H4    S    
C47   H72   S    
C96   H92   S    
O18   P6    D    
C45   O48   S    
C102  H112  S    
C77   C81   S    
C43   C52   A    
C99   H101  S    
C45   H75   S    
C97   H93   S    
C4    H8    S    
C76   C80   S    
C73   F12   S    
C3    C66   S    
C25   C72   A    
C11   C15   A    
C78   O25   S    
C6    C69   S    
C16   C21   A    
C98   H98   S    
C27   C36   A    
C71   H106  S    
C40   P14   S    
C90   H63   S    
C78   F18   S    
C2    C61   A    
O41   P2    D    
Ba1   P12   S    
C64   C103  S    
C79   C97   S    
Ba3   P10   S    
C20   C62   A    
C56   H55   S    
C93   H85   S    
C37   P12   S    
C36   C41   A    
Ba3   O23   S    
O20   P8    D    
C44   H60   S    
C3    H6    S    
C9    C101  S    
C99   H100  S    
C78   C82   S    
C28   H46   S    
C29   C33   A    
C52   C56   A    
C4    H9    S    
C30   C34   A    
O9    P1    S    
O32   P13   D    
C88   H51   S    
C5    H14   S    
C69   O47   S    
C2    C99   S    
C63   F9    S    
O12   P9    D    
C8    C72   A    
O47   P15   S    
C101  H108  S    
C59   H67   S    
Ba2   O9    S    
C76   F16   S    
C69   H81   S    
Ba4   O7    S    
C63   C102  S    
C9    C13   A    
O8    P14   S    
C13   C18   A    
C29   C37   A    
C15   C20   A    
C54   H53   S    
C5    H11   S    
C7    H19   S    
Ba3   P14   S    
O2    P2    S    
O42   P3    D    
C73   H2    S    
O19   P5    D    
Ba2   P9    S    
C6    H17   S    
C18   C22   A    
Ba4   O35   S    
O23   P10   D    
C46   C64   S    
C85   H35   S    
C80   H22   S    
C10   C14   A    
C31   C35   A    
C68   O44   S    
C23   C50   A    
C70   H82   S    
C48   H78   S    
C32   C54   A    
Ba2   O6    S    
C100  H104  S    
C28   C87   S    
Ba3   O16   S    
O3    P3    S    
O43   P4    D    
O4    P4    S    
Ba1   Ba2   S    
C70   O46   S    
C2    C11   A    
C95   H89   S    
O1    P1    D    
Ba4   O17   S    
C37   C42   A    
C103  H114  S    
C19   C23   A    
C51   P16   S    
O48   P16   S    
C38   C43   A    
C14   F20   S    
O44   P12   S    
C65   C104  S    
C45   H70   S    
C102  H111  S    
O21   P7    D    
C14   C19   A    
C87   H40   S    
C87   O29   S    
Ba3   O8    S    
Ba1   O36   S    
C25   C91   A    
Ba1   O6    S    
O16   P8    S    
C75   F15   S    
C96   H90   S    
C3    H7    S    
C68   C73   S    
O37   P2    S    
O39   P4    S    
C69   C74   S    
C104  H116  S    
C31   C40   A    
O10   P9    S    
C100  H105  S    
C88   O30   S    
C36   P13   S    
C15   F2    S    
C28   H42   S    
C92   H65   S    
C45   C63   S    
C85   O27   S    
C78   C96   S    
C86   O28   S    
C17   F6    S    
Ba2   O12   S    
C46   H76   S    
C93   H86   S    
C84   H25   S    
O11   P10   S    
Ba4   P15   S    
C67   C71   S    
C66   F13   S    
C95   H87   S    
O14   P6    S    
C98   H99   S    
O34   P11   D    
C6    H15   S    
C1    H39   S    
C74   F14   S    
Ba1   O31   S    
C62   H69   S    
C48   C66   S    
C50   P1    S    
Ba2   O32   S    
C88   H38   S    
C50   C94   A    
C67   O45   S    
Ba4   O11   S    
O28   P5    S    
