data_mof_unit_33017.cif
_audit_creation_date              2012-12-11T14:40:09-0500
_audit_creation_method            fapswitch 2.2
_symmetry_space_group_name_H-M    P1
_symmetry_Int_Tables_number       1
_space_group_crystal_system       triclinic
_cell_length_a                    19.530041
_cell_length_b                    10.986024
_cell_length_c                    19.480813
_cell_angle_alpha                 90.176274
_cell_angle_beta                  97.645817
_cell_angle_gamma                 89.860676
_cell_volume                      4142.56602944

loop_
_atom_site_label
_atom_site_type_symbol
_atom_type_description
_atom_site_fract_x
_atom_site_fract_y
_atom_site_fract_z
_atom_type_partial_charge
C1    C     C_R   0.724485 0.955980 0.362092 0.552545
C2    C     C_R   0.273424 0.949005 0.640099 0.564903
C3    C     C_R   0.224487 0.455973 0.362091 0.552943
C4    C     C_R   0.773423 0.448997 0.640104 0.574983
C5    C     C_3   0.731572 0.292032 0.483768 -0.110184
C6    C     C_3   0.320270 0.347395 0.511071 -0.154377
C7    C     C_3   0.231492 0.792058 0.483775 -0.110204
C8    C     C_3   0.820243 0.847200 0.511035 -0.154380
C9    C     C_3   0.745705 0.394181 0.433781 0.041448
C10   C     C_3   0.266292 0.352720 0.561388 0.034275
C11   C     C_3   0.245701 0.894143 0.433785 0.041167
C12   C     C_3   0.766292 0.852676 0.561379 0.033890
C13   C     C_3   0.703798 0.482706 0.471297 -0.021248
C14   C     C_3   0.245372 0.481090 0.538551 -0.007462
C15   C     C_3   0.203850 0.982777 0.471280 -0.021508
C16   C     C_3   0.745471 0.981101 0.538555 -0.008098
C17   C     C_3   0.771275 0.519066 0.517007 -0.143861
C18   C     C_3   0.189338 0.428603 0.484141 -0.112688
C19   C     C_3   0.271344 0.019022 0.516997 -0.142668
C20   C     C_3   0.689370 0.928749 0.484161 -0.112689
C21   C     C_3   0.813002 0.427722 0.478902 -0.139050
C22   C     C_3   0.210342 0.298960 0.507545 -0.111850
C23   C     C_3   0.313012 0.927566 0.478913 -0.139134
C24   C     C_3   0.710273 0.799048 0.507550 -0.111775
C25   C     C_3   0.799430 0.326401 0.529857 -0.094795
C26   C     C_3   0.264059 0.292791 0.455903 -0.134082
C27   C     C_3   0.299365 0.826308 0.529872 -0.094280
C28   C     C_3   0.763963 0.792732 0.455882 -0.133957
C29   C     C_3   0.757581 0.417150 0.567537 0.057390
C30   C     C_3   0.243297 0.421470 0.433329 0.043969
C31   C     C_3   0.257575 0.917167 0.567534 0.059915
C32   C     C_3   0.743302 0.921465 0.433325 0.044068
C33   C     C_3   0.532921 0.266462 0.976562 -0.114866
C34   C     C_3   0.475085 0.274510 0.023169 -0.109933
C35   C     C_3   0.036128 0.762040 0.976296 -0.116342
C36   C     C_3   0.978753 0.777448 0.022958 -0.104865
C37   C     C_3   0.567752 0.162112 0.021209 -0.109892
C38   C     C_3   0.432581 0.178119 0.978537 -0.108540
C39   C     C_3   0.067237 0.654822 0.021090 -0.110791
C40   C     C_3   0.932841 0.685222 0.978567 -0.111947
C41   C     C_3   0.509474 0.170563 0.067086 0.053923
C42   C     C_3   0.490888 0.170465 0.932651 0.053924
C43   C     C_3   0.009454 0.670656 0.067037 0.054998
C44   C     C_3   0.990702 0.670228 0.932626 0.053734
C45   C     C_R   0.535820 0.180314 0.338310 0.539917
C46   C     C_R   0.464901 0.179859 0.662195 0.536531
C47   C     C_R   0.035822 0.680315 0.338311 0.540061
C48   C     C_R   0.964905 0.679858 0.662198 0.536439
C49   C     C_3   0.467497 0.073874 0.023546 -0.121250
C50   C     C_3   0.525103 0.065789 0.976123 -0.115792
C51   C     C_3   0.964023 0.578153 0.023708 -0.125744
C52   C     C_3   0.021153 0.562685 0.976217 -0.114974
C53   C     C_1   0.772306 0.448851 0.910109 -0.001953
C54   C     C_1   0.237155 0.425788 0.095723 -0.005913
C55   C     C_1   0.257328 0.909867 0.899753 -0.004448
C56   C     C_1   0.737177 0.925671 0.095750 -0.005265
C57   C     C_1   0.742546 0.385803 0.031192 -0.045864
C58   C     C_1   0.252299 0.408358 0.965284 -0.048027
C59   C     C_1   0.233779 0.859763 0.025586 -0.048464
C60   C     C_1   0.752324 0.908152 0.965318 -0.048774
C61   C     C_1   0.757527 0.419319 0.965481 -0.044408
C62   C     C_1   0.245627 0.415816 0.036046 -0.047627
C63   C     C_1   0.244574 0.884054 0.956766 -0.044028
C64   C     C_1   0.745653 0.915625 0.036079 -0.047463
C65   C     C_1   0.732282 0.355640 0.088027 -0.005314
C66   C     C_1   0.257169 0.394955 0.904944 -0.006036
C67   C     C_1   0.227338 0.839485 0.085146 -0.010936
C68   C     C_1   0.757191 0.894809 0.904974 -0.006296
C69   C     C_R   0.739687 0.363903 0.361532 0.550495
C70   C     C_R   0.275043 0.311796 0.632337 0.549722
C71   C     C_R   0.239685 0.863892 0.361535 0.551002
C72   C     C_R   0.775044 0.811783 0.632338 0.550479
C73   C     C_R   0.722034 0.952740 0.163722 0.539133
C74   C     C_R   0.277380 0.951191 0.835618 0.551079
C75   C     C_R   0.222028 0.452764 0.163712 0.538301
C76   C     C_R   0.791496 0.487490 0.845641 0.549395
C77   C     C_R   0.530115 0.178688 0.140866 0.535781
C78   C     C_R   0.470127 0.178676 0.858962 0.545427
C79   C     C_R   0.030255 0.678720 0.140796 0.535139
C80   C     C_R   0.970037 0.678645 0.858979 0.539964
C81   C     C_R   0.723414 0.315608 0.155720 0.546847
C82   C     C_R   0.263997 0.360336 0.835626 0.559961
C83   C     C_R   0.222085 0.810861 0.156029 0.552957
C84   C     C_R   0.764007 0.860291 0.835641 0.556259
C85   C     C_1   0.487139 0.171469 0.595450 -0.003293
C86   C     C_1   0.515408 0.172688 0.405846 -0.007968
C87   C     C_1   0.987152 0.671467 0.595457 -0.004356
C88   C     C_1   0.015417 0.672688 0.405851 -0.008135
C89   C     C_1   0.505907 0.168844 0.465492 -0.058067
C90   C     C_1   0.497700 0.168152 0.536094 -0.055642
C91   C     C_1   0.005922 0.668843 0.465500 -0.058007
C92   C     C_1   0.997717 0.668149 0.536101 -0.055703
C93   C     C_3   0.689690 0.382844 0.522708 -0.120219
C94   C     C_3   0.299137 0.478310 0.487263 -0.128370
C95   C     C_3   0.189668 0.882981 0.522698 -0.120322
C96   C     C_3   0.799213 0.978170 0.487242 -0.128310
Cr1   Cr    Cr6+3 0.765830 0.160660 0.268180 1.030687
Cr2   Cr    Cr6+3 0.234170 0.160660 0.731820 1.031321
Cr3   Cr    Cr6+3 0.265830 0.660660 0.268180 1.029925
Cr4   Cr    Cr6+3 0.734170 0.660660 0.731820 1.031770
Cr5   Cr    Cr6+3 0.612110 0.009150 0.248770 1.040634
Cr6   Cr    Cr6+3 0.387890 0.009150 0.751230 1.035111
Cr7   Cr    Cr6+3 0.112110 0.509150 0.248770 1.040117
Cr8   Cr    Cr6+3 0.887890 0.509150 0.751230 1.031572
Cr9   Cr    Cr6+3 0.615930 0.324050 0.248450 1.050134
Cr10  Cr    Cr6+3 0.384070 0.324050 0.751550 1.040686
Cr11  Cr    Cr6+3 0.115930 0.824050 0.248450 1.049681
Cr12  Cr    Cr6+3 0.884070 0.824050 0.751550 1.037162
H1    H     H_    0.714044 0.200174 0.465530 0.114674
H2    H     H_    0.373824 0.313362 0.524217 0.125931
H3    H     H_    0.213900 0.700234 0.465542 0.114798
H4    H     H_    0.873774 0.813018 0.524154 0.125935
H5    H     H_    0.640020 0.363344 0.542302 0.132028
H6    H     H_    0.334558 0.553059 0.477091 0.128832
H7    H     H_    0.139983 0.863612 0.542288 0.131408
H8    H     H_    0.834691 0.052828 0.477063 0.128827
H9    H     H_    0.292282 0.107147 0.536891 0.103665
H10   H     H_    0.635764 0.963699 0.471514 0.130448
H11   H     H_    0.792158 0.607209 0.536925 0.103335
H12   H     H_    0.135709 0.463409 0.471472 0.130515
H13   H     H_    0.862650 0.447611 0.459348 0.129341
H14   H     H_    0.173650 0.230019 0.521962 0.149536
H15   H     H_    0.362676 0.947322 0.459365 0.129393
H16   H     H_    0.673526 0.730180 0.521946 0.149568
H17   H     H_    0.838066 0.260767 0.555138 0.137245
H18   H     H_    0.271588 0.217663 0.419389 0.125248
H19   H     H_    0.337952 0.760620 0.555172 0.137148
H20   H     H_    0.771416 0.717580 0.419355 0.125185
H21   H     H_    0.623707 0.155007 0.040710 0.106078
H22   H     H_    0.376593 0.184741 0.959017 0.119362
H23   H     H_    0.122824 0.641509 0.040524 0.107451
H24   H     H_    0.877175 0.697776 0.959122 0.109095
H25   H     H_    0.560349 0.343965 0.956059 0.132119
H26   H     H_    0.453720 0.358905 0.043633 0.134219
H27   H     H_    0.066158 0.835897 0.955574 0.130178
H28   H     H_    0.960410 0.864499 0.043244 0.135489
H29   H     H_    0.440267 0.996538 0.044431 0.128380
H30   H     H_    0.546239 0.981685 0.955127 0.128661
H31   H     H_    0.934114 0.504447 0.044709 0.126581
H32   H     H_    0.039218 0.475986 0.955291 0.129357
O1    O     O_R   0.783230 0.287800 0.346510 -0.515028
O2    O     O_R   0.216770 0.287800 0.653490 -0.510138
O3    O     O_R   0.283230 0.787800 0.346510 -0.515074
O4    O     O_R   0.716770 0.787800 0.653490 -0.509405
O5    O     O_R   0.554500 0.081650 0.170370 -0.501387
O6    O     O_R   0.445500 0.081650 0.829630 -0.499550
O7    O     O_R   0.054500 0.581650 0.170370 -0.501443
O8    O     O_R   0.945500 0.581650 0.829630 -0.512839
O9    O     O_R   0.545430 0.285140 0.163100 -0.520547
O10   O     O_R   0.454570 0.285140 0.836900 -0.511584
O11   O     O_R   0.045430 0.785140 0.163100 -0.522106
O12   O     O_R   0.954570 0.785140 0.836900 -0.510938
O13   O     O_R   0.677850 0.374730 0.185500 -0.486210
O14   O     O_R   0.322150 0.374730 0.814500 -0.486661
O15   O     O_R   0.177850 0.874730 0.185500 -0.485445
O16   O     O_R   0.822150 0.874730 0.814500 -0.486283
O17   O     O_3   0.664630 0.164620 0.255130 -0.285067
O18   O     O_3   0.335370 0.164620 0.744870 -0.286204
O19   O     O_3   0.164630 0.664620 0.255130 -0.288157
O20   O     O_3   0.835370 0.664620 0.744870 -0.300273
O21   O     O_R   0.760130 0.037060 0.338610 -0.508813
O22   O     O_R   0.239870 0.037060 0.661390 -0.524604
O23   O     O_R   0.260130 0.537060 0.338610 -0.508678
O24   O     O_R   0.739870 0.537060 0.661390 -0.519839
O25   O     O_R   0.666620 0.921370 0.332440 -0.497139
O26   O     O_R   0.333380 0.921370 0.667560 -0.506418
O27   O     O_R   0.166620 0.421370 0.332440 -0.496828
O28   O     O_R   0.833380 0.421370 0.667560 -0.502323
O29   O     O_R   0.557170 0.082420 0.312350 -0.497561
O30   O     O_R   0.442830 0.082420 0.687650 -0.496015
O31   O     O_R   0.057170 0.582420 0.312350 -0.497298
O32   O     O_R   0.942830 0.582420 0.687650 -0.495427
O33   O     O_R   0.548310 0.285980 0.316250 -0.496637
O34   O     O_R   0.451690 0.285980 0.683750 -0.516226
O35   O     O_R   0.048310 0.785980 0.316250 -0.496520
O36   O     O_R   0.951690 0.785980 0.683750 -0.516031
O37   O     O_R   0.680520 0.375500 0.327470 -0.485369
O38   O     O_R   0.319480 0.375500 0.672530 -0.483727
O39   O     O_R   0.180520 0.875500 0.327470 -0.485299
O40   O     O_R   0.819480 0.875500 0.672530 -0.481571
O41   O     O_R   0.780350 0.286970 0.193350 -0.501533
O42   O     O_R   0.219650 0.286970 0.806650 -0.502050
O43   O     O_R   0.280350 0.786970 0.193350 -0.500814
O44   O     O_R   0.719650 0.786970 0.806650 -0.507712
O45   O     O_R   0.757460 0.036290 0.196640 -0.510259
O46   O     O_R   0.242540 0.036290 0.803360 -0.496531
O47   O     O_R   0.257460 0.536290 0.196640 -0.512085
O48   O     O_R   0.742540 0.536290 0.803360 -0.490214
O49   O     O_R   0.663740 0.920540 0.179290 -0.500062
O50   O     O_R   0.336260 0.920540 0.820710 -0.500885
O51   O     O_R   0.163740 0.420540 0.179290 -0.499837
O52   O     O_R   0.836260 0.420540 0.820710 -0.494482
C97   C     C_1   0.649695 0.558982 0.433428 0.195514
N1    N     N_1   0.606915 0.618459 0.403253 -0.284527
C98   C     C_1   0.233379 0.574912 0.589491 0.209859
N2    N     N_1   0.223641 0.647346 0.630361 -0.302446
C99   C     C_1   0.149797 0.059089 0.433365 0.195487
N3    N     N_1   0.107058 0.118594 0.403153 -0.284418
C100  C     C_1   0.733583 0.074950 0.589512 0.209704
N4    N     N_1   0.723933 0.147395 0.630400 -0.295410

loop_
_geom_bond_atom_site_label_1
_geom_bond_atom_site_label_2
_ccdc_geom_bond_type
C58   C62   S    
Cr9   O13   S    
C14   C98   S    
C67   C83   S    
Cr10  O10   S    
C49   H29   S    
C17   C29   S    
C14   C18   S    
C7    C27   S    
C35   C39   S    
C35   C36   S    
C8    C96   S    
C81   O41   A    
C44   C80   S    
C19   C31   S    
Cr6   O18   S    
C20   H10   S    
C94   H6    S    
C3    O27   A    
C38   C49   S    
C10   C22   S    
Cr7   O27   S    
Cr5   O5    S    
Cr11  O35   S    
C33   C42   S    
C38   H22   S    
Cr3   O3    S    
C16   C20   S    
Cr4   O48   S    
C9    C69   S    
Cr1   O45   S    
C38   C42   S    
Cr3   O19   S    
C8    H4    S    
C15   C95   S    
C73   O49   A    
C15   C99   S    
C11   C71   S    
C83   O15   A    
C34   H26   S    
C69   O1    A    
Cr8   O52   S    
C24   H16   S    
C81   O13   A    
Cr1   O41   S    
Cr12  O40   S    
C53   C61   T    
C80   O12   A    
C12   C24   S    
C26   H18   S    
C71   O39   A    
C49   C50   S    
C25   H17   S    
C7    C11   S    
C9    C13   S    
C59   C67   T    
C15   C19   S    
C55   C74   S    
C11   C15   S    
C58   C66   T    
Cr9   O17   S    
Cr2   O18   S    
C95   H7    S    
Cr10  O14   S    
C55   C63   T    
C4    O24   A    
Cr5   O29   S    
C18   C30   S    
C23   C27   S    
C2    O26   A    
C40   C44   S    
Cr3   O43   S    
C4    C29   S    
C76   O48   A    
C3    O23   A    
Cr8   O32   S    
C46   C85   S    
Cr11  O11   S    
C44   C52   S    
C39   C52   S    
C40   H24   S    
Cr5   O17   S    
C100  N4    T    
Cr6   O26   S    
Cr12  O12   S    
C87   C92   T    
Cr2   O2    S    
Cr7   O31   S    
C6    H2    S    
C2    O22   A    
C34   C41   S    
C27   H19   S    
Cr8   O20   S    
Cr4   O44   S    
C36   H28   S    
C28   C32   S    
C41   C49   S    
C73   O45   A    
Cr2   O22   S    
C69   O37   A    
C22   H14   S    
C74   O46   A    
C25   C29   S    
C54   C75   S    
C70   O2    A    
C16   C96   S    
C27   C31   S    
C51   C52   S    
C68   C84   S    
C21   H13   S    
C12   C16   S    
C84   O44   A    
Cr10  O38   S    
C10   C14   S    
C35   H27   S    
C91   C92   S    
C29   C93   S    
C19   C23   S    
C70   O38   A    
C23   H15   S    
C54   C62   T    
C6    C94   S    
Cr10  O18   S    
C1    C32   S    
C33   C37   S    
C46   O30   A    
C82   O14   A    
C13   C93   S    
C2    C31   S    
Cr1   O17   S    
Cr2   O42   S    
C3    C30   S    
C75   O51   A    
C5    C9    S    
C76   O52   A    
C45   O33   A    
Cr8   O28   S    
Cr4   O20   S    
C47   O31   A    
Cr12  O16   S    
C88   C91   T    
C36   C40   S    
C8    C12   S    
Cr11  O19   S    
C74   O50   A    
C46   O34   A    
C33   C34   S    
Cr10  O34   S    
C48   C87   S    
C83   O43   A    
Cr4   O24   S    
C78   O10   A    
C93   H5    S    
Cr5   O25   S    
C35   C44   S    
Cr1   O1    S    
C16   C100  S    
C42   C50   S    
C5    C25   S    
C10   C70   S    
C14   C94   S    
Cr9   O37   S    
C32   C96   S    
C42   C78   S    
Cr1   O21   S    
Cr4   O4    S    
C8    C28   S    
Cr3   O23   S    
C53   C76   S    
Cr7   O51   S    
C72   O40   A    
C78   O6    A    
C77   O9    A    
C9    C21   S    
C18   H12   S    
C19   H9    S    
C7    C95   S    
C48   O32   A    
C79   O11   A    
C20   C32   S    
C72   O4    A    
C21   C25   S    
C56   C73   S    
Cr11  O39   S    
C1    O25   A    
C34   C38   S    
C59   C63   S    
C33   H25   S    
C75   O47   A    
C24   C28   S    
C57   C65   T    
C86   C89   T    
C45   O29   A    
C6    C10   S    
C5    C93   S    
C85   C90   T    
C50   H30   S    
C57   C61   S    
Cr12  O20   S    
C7    H3    S    
C40   C51   S    
Cr9   O9    S    
C82   O42   A    
Cr5   O49   S    
C13   C17   S    
C60   C64   S    
C47   C88   S    
C18   C22   S    
C45   C86   S    
Cr3   O47   S    
Cr8   O8    S    
Cr2   O46   S    
Cr6   O6    S    
C66   C82   S    
C41   C77   S    
C37   C50   S    
C84   O16   A    
Cr7   O19   S    
C56   C64   T    
C6    C26   S    
C77   O5    A    
C39   H23   S    
Cr6   O30   S    
C43   C51   S    
C31   C95   S    
Cr12  O36   S    
C11   C23   S    
Cr6   O50   S    
C37   H21   S    
C79   O7    A    
C13   C97   S    
C37   C41   S    
C99   N3    T    
C12   C72   S    
C17   C21   S    
C17   H11   S    
C47   O35   A    
C1    O21   A    
C98   N2    T    
C52   H32   S    
C4    O28   A    
C80   O8    A    
C60   C68   T    
C30   C94   S    
C97   N1    T    
C22   C26   S    
C39   C43   S    
C65   C81   S    
C96   H8    S    
C36   C43   S    
Cr9   O33   S    
C5    H1    S    
C71   O3    A    
C89   C90   S    
C43   C79   S    
C20   C24   S    
Cr11  O15   S    
C28   H20   S    
Cr7   O7    S    
C48   O36   A    
C26   C30   S    
C51   H31   S    
