data_mof_unit_40697.cif
_audit_creation_date              2012-12-10T17:58:20-0500
_audit_creation_method            fapswitch 2.2
_symmetry_space_group_name_H-M    P1
_symmetry_Int_Tables_number       1
_space_group_crystal_system       triclinic
_cell_length_a                    9.587802
_cell_length_b                    10.813943
_cell_length_c                    15.515391
_cell_angle_alpha                 87.743826
_cell_angle_beta                  74.730282
_cell_angle_gamma                 88.822392
_cell_volume                      1550.58521309

loop_
_atom_site_label
_atom_site_type_symbol
_atom_type_description
_atom_site_fract_x
_atom_site_fract_y
_atom_site_fract_z
_atom_type_partial_charge
C1    C     C_R   0.000671 0.262279 0.500336 0.804669
C2    C     C_R   0.999329 0.737721 0.499664 0.804670
C3    C     C_R   0.573221 0.428019 0.090348 -0.161060
C4    C     C_R   0.426780 0.571979 0.909652 -0.161059
C5    C     C_R   0.717985 0.412733 0.046370 -0.154202
C6    C     C_R   0.282015 0.587265 0.953630 -0.154202
C7    C     C_R   0.869041 0.065371 0.521267 -0.160941
C8    C     C_R   0.130959 0.934629 0.478733 -0.160942
C9    C     C_R   0.868168 0.937489 0.520700 -0.134129
C10   C     C_R   0.131832 0.062511 0.479300 -0.134129
C11   C     C_R   0.999086 0.871696 0.499365 -0.024053
C12   C     C_R   0.000914 0.128304 0.500635 -0.024053
C13   C     C_R   0.559103 0.409136 0.544522 -0.093800
C14   C     C_R   0.440897 0.590863 0.455478 -0.093799
C15   C     C_R   0.411707 0.408060 0.544558 0.392927
C16   C     C_R   0.588293 0.591940 0.455442 0.392927
C17   C     C_R   0.918799 0.499975 0.672427 0.830537
C18   C     C_R   0.081201 0.500025 0.327573 0.830537
C19   C     C_R   0.874377 0.494111 0.771615 -0.118136
C20   C     C_R   0.125623 0.505889 0.228385 -0.118136
C21   C     C_R   0.917187 0.437608 0.915405 -0.234881
C22   C     C_R   0.082814 0.562391 0.084594 -0.234881
C23   C     C_R   0.971174 0.465214 0.824453 0.288532
C24   C     C_R   0.028826 0.534786 0.175547 0.288532
C25   C     C_R   0.727028 0.510998 0.814522 -0.281753
C26   C     C_R   0.272972 0.489001 0.185477 -0.281752
C27   C     C_R   0.672847 0.493851 0.907833 0.094895
C28   C     C_R   0.327153 0.506148 0.092167 0.094895
C29   C     C_R   0.769436 0.448427 0.956740 0.092954
C30   C     C_R   0.230564 0.551571 0.043259 0.092954
C31   C     C_R   0.525114 0.516106 0.953454 0.066892
C32   C     C_R   0.474886 0.483892 0.046546 0.066892
Cu1   Cu    Cu3+1 0.140660 0.500020 0.500000 1.018181
Cu2   Cu    Cu3+1 0.859340 0.499980 0.500000 1.018181
H1    H     H_    0.790277 0.370685 0.082547 0.178786
H2    H     H_    0.209724 0.629313 0.917453 0.178787
H3    H     H_    0.344671 0.466444 0.226845 0.176012
H4    H     H_    0.655329 0.533554 0.773155 0.176013
H5    H     H_    0.991580 0.407883 0.954171 0.171442
H6    H     H_    0.008420 0.592116 0.045829 0.171442
H7    H     H_    0.541779 0.393619 0.158716 0.161420
H8    H     H_    0.458222 0.606379 0.841284 0.161420
H9    H     H_    0.766530 0.114731 0.538453 0.161522
H10   H     H_    0.233470 0.885269 0.461547 0.161522
H11   H     H_    0.765428 0.890353 0.537882 0.178349
H12   H     H_    0.234572 0.109647 0.462118 0.178349
H13   H     H_    0.602350 0.336627 0.580396 0.167718
H14   H     H_    0.397649 0.663373 0.419604 0.167718
N1    N     N_R   0.352080 0.500030 0.499980 -0.205417
N2    N     N_R   0.647920 0.499970 0.500020 -0.205417
O1    O     O_R   0.118740 0.319660 0.500000 -0.547658
O2    O     O_R   0.881260 0.680340 0.500000 -0.547658
O3    O     O_R   0.881170 0.319630 0.500010 -0.598398
O4    O     O_R   0.118830 0.680370 0.499990 -0.598398
O5    O     O_R   0.055570 0.500030 0.629830 -0.506723
O6    O     O_R   0.944430 0.499970 0.370170 -0.506724
O7    O     O_R   0.818000 0.500000 0.629840 -0.596375
O8    O     O_R   0.182000 0.500000 0.370160 -0.596375
Br1   Br    Br    0.822655 0.537801 0.219848 -0.503737
Br2   Br    Br    0.177345 0.462201 0.780152 -0.503739
Br3   Br    Br    0.306145 0.270249 0.609385 -0.463575
Br4   Br    Br    0.693854 0.729752 0.390615 -0.463575

loop_
_geom_bond_atom_site_label_1
_geom_bond_atom_site_label_2
_ccdc_geom_bond_type
Cu1   O5    S    
Cu2   O7    S    
C19   C23   A    
C26   H3    S    
C9    H11   S    
Cu1   O8    S    
C7    H9    S    
C25   H4    S    
C27   C29   A    
C9    C11   A    
C17   O5    A    
C26   C28   A    
C31   C32   A    
C21   H5    S    
C18   O6    A    
C3    C5    A    
C22   H6    S    
C20   C24   A    
C4    H8    S    
C28   C30   A    
Cu1   Cu2   S    
C15   Br3   S    
C3    C32   A    
C15   N1    A    
Cu2   O6    S    
C1    O1    A    
C7    C12   A    
C1    C12   S    
C2    O2    A    
Cu2   O3    S    
C8    C11   A    
C2    C11   S    
C10   C12   A    
C22   C24   A    
C4    C6    A    
C13   H13   S    
C17   C19   S    
C16   N2    A    
C5    C29   A    
C13   C15   A    
C21   C23   A    
C23   Br2   S    
C19   C25   A    
C14   C16   A    
Cu2   N2    S    
C4    C31   A    
C25   C27   A    
Cu1   N1    S    
C13   N2    A    
C14   N1    A    
C5    H1    S    
C10   H12   S    
C28   C32   A    
C27   C31   A    
C18   C20   S    
C8    C10   A    
C2    O4    A    
C17   O7    A    
Cu1   O4    S    
C7    C9    A    
C1    O3    A    
C3    H7    S    
C14   H14   S    
Cu2   O2    S    
C22   C30   A    
C6    C30   A    
C21   C29   A    
C16   Br4   S    
C24   Br1   S    
Cu1   O1    S    
C8    H10   S    
C6    H2    S    
C18   O8    A    
C20   C26   A    
