data_mof_unit_33853.cif
_audit_creation_date              2012-12-11T17:23:13-0500
_audit_creation_method            fapswitch 2.2
_symmetry_space_group_name_H-M    P1
_symmetry_Int_Tables_number       1
_space_group_crystal_system       triclinic
_cell_length_a                    22.47994
_cell_length_b                    7.087119
_cell_length_c                    19.463177
_cell_angle_alpha                 90.000067
_cell_angle_beta                  99.09491
_cell_angle_gamma                 90.0
_cell_volume                      3061.85047766

loop_
_atom_site_label
_atom_site_type_symbol
_atom_type_description
_atom_site_fract_x
_atom_site_fract_y
_atom_site_fract_z
_atom_type_partial_charge
O1    O     O_R   0.443980 0.494320 0.557430 -0.529268
O2    O     O_R   0.556020 0.994320 0.442570 -0.529268
O3    O     O_R   0.441210 0.822520 0.414610 -0.532331
O4    O     O_R   0.558790 0.322520 0.585390 -0.532332
C1    C     C_R   0.425916 0.655320 0.389504 0.805232
C2    C     C_R   0.574084 0.155320 0.610496 0.805233
O5    O     O_R   0.436920 0.823940 0.555180 -0.547177
O6    O     O_R   0.563080 0.323940 0.444820 -0.547177
O7    O     O_R   0.551700 0.995760 0.584140 -0.537274
O8    O     O_R   0.448300 0.495760 0.415860 -0.537274
C3    C     C_R   0.422679 0.655818 0.576278 0.697020
C4    C     C_R   0.577321 0.155818 0.423722 0.697020
O9    O     O_3   0.537660 0.661290 0.509340 -0.373594
O10   O     O_3   0.462340 0.161290 0.490660 -0.373594
V1    V     V_3+5 0.493010 0.935560 0.498270 1.463598
V2    V     V_3+5 0.506990 0.435560 0.501730 1.463597
C5    C     C_R   0.744918 0.967660 0.198049 0.492945
C6    C     C_R   0.255082 0.467660 0.801951 0.492943
C7    C     C_R   0.793311 0.095172 0.204340 -0.177374
C8    C     C_R   0.206689 0.595172 0.795660 -0.177374
C9    C     C_R   0.798026 0.235837 0.256126 0.413518
C10   C     C_R   0.201973 0.735837 0.743874 0.413517
C11   C     C_R   0.754756 0.246443 0.301126 -0.319429
C12   C     C_R   0.245244 0.746444 0.698874 -0.319429
H1    H     H_    0.759198 0.354269 0.341066 0.164572
H2    H     H_    0.240802 0.854271 0.658934 0.164571
C13   C     C_R   0.706466 0.118713 0.295127 -0.124199
C14   C     C_R   0.293534 0.618714 0.704873 -0.124200
C15   C     C_R   0.702697 0.974683 0.244349 0.425882
C16   C     C_R   0.297303 0.474683 0.755651 0.425883
C17   C     C_1   0.838307 0.081014 0.158143 0.128657
C18   C     C_1   0.161693 0.581014 0.841857 0.128660
C19   C     C_1   0.661234 0.135645 0.340998 0.056417
C20   C     C_1   0.338765 0.635646 0.659002 0.056417
C21   C     C_1   0.623143 0.146571 0.378830 -0.196060
C22   C     C_1   0.376857 0.646572 0.621170 -0.196060
C23   C     C_1   0.876217 0.071322 0.120126 -0.135805
C24   C     C_1   0.123783 0.571321 0.879874 -0.135804
C25   C     C_R   0.633133 0.205525 0.801687 0.627264
C26   C     C_R   0.366867 0.705526 0.198313 0.627265
C27   C     C_R   0.617206 0.151113 0.676833 -0.316235
C28   C     C_R   0.382794 0.651113 0.323167 -0.316234
C29   C     C_R   0.911087 0.084224 0.762708 0.598564
C30   C     C_R   0.088913 0.584224 0.237292 0.598564
C31   C     C_R   0.876044 0.118526 0.698721 -0.196780
C32   C     C_R   0.123956 0.618526 0.301279 -0.196780
C33   C     C_R   0.813965 0.137403 0.693266 -0.159680
C34   C     C_R   0.186035 0.637402 0.306734 -0.159680
C35   C     C_R   0.784147 0.112617 0.751253 0.100715
C36   C     C_R   0.215853 0.612617 0.248747 0.100715
C37   C     C_R   0.820389 0.086979 0.817974 -0.168450
C38   C     C_R   0.179611 0.586978 0.182026 -0.168450
C39   C     C_R   0.719733 0.126851 0.745220 -0.115916
C40   C     C_R   0.280266 0.626850 0.254780 -0.115917
C41   C     C_R   0.694726 0.160527 0.806728 -0.290051
C42   C     C_R   0.305274 0.660527 0.193272 -0.290050
C43   C     C_R   0.731308 0.143032 0.872473 0.438548
C44   C     C_R   0.268692 0.643033 0.127527 0.438549
C45   C     C_R   0.791349 0.082074 0.877242 0.300174
C46   C     C_R   0.208651 0.582074 0.122758 0.300173
C47   C     C_R   0.679756 0.107469 0.680369 0.384460
C48   C     C_R   0.320244 0.607468 0.319631 0.384461
C49   C     C_R   0.595032 0.202196 0.737687 0.277528
C50   C     C_R   0.404967 0.702197 0.262313 0.277527
C51   C     C_R   0.884567 0.072679 0.823011 -0.202411
C52   C     C_R   0.115433 0.572679 0.176989 -0.202411
H3    H     H_    0.790692 0.183634 0.643783 0.169873
H4    H     H_    0.209308 0.683632 0.356218 0.169873
H5    H     H_    0.897396 0.136926 0.653048 0.163238
H6    H     H_    0.102604 0.636925 0.346952 0.163238
O11   O     O_R   0.051730 0.724670 0.084120 -0.541022
O12   O     O_R   0.948270 0.224670 0.915880 -0.541021
O13   O     O_R   0.063080 0.393540 0.944820 -0.539177
O14   O     O_R   0.936920 0.893540 0.055180 -0.539177
C53   C     C_R   0.078034 0.562060 0.924716 0.767947
C54   C     C_R   0.921966 0.062060 0.075284 0.767947
O15   O     O_R   0.058800 0.395030 0.085390 -0.536411
O16   O     O_R   0.941200 0.895030 0.914610 -0.536412
O17   O     O_R   0.943980 0.223310 0.057440 -0.533808
O18   O     O_R   0.056020 0.723310 0.942560 -0.533808
C55   C     C_R   0.073619 0.563688 0.110330 0.871493
C56   C     C_R   0.926381 0.063688 0.889670 0.871493
O19   O     O_3   0.962360 0.556290 0.990650 -0.388012
O20   O     O_3   0.037640 0.056290 0.009350 -0.388012
V3    V     V_3+5 0.006980 0.281990 0.001730 1.492704
V4    V     V_3+5 0.993020 0.781990 0.998270 1.492705
O21   O     O_3   0.657145 0.841550 0.237697 -0.509477
C57   C     C_3   0.669611 0.707045 0.291782 -0.169331
H7    H     H_    0.644844 0.744041 0.334931 0.138948
H8    H     H_    0.718428 0.690502 0.312819 0.088007
H9    H     H_    0.653180 0.567249 0.271296 0.161064
O22   O     O_3   0.342855 0.341550 0.762302 -0.509477
C58   C     C_3   0.330389 0.207047 0.708217 -0.169329
H10   H     H_    0.355158 0.244041 0.665069 0.138949
H11   H     H_    0.281572 0.190509 0.687177 0.088004
H12   H     H_    0.346818 0.067249 0.728703 0.161064
O23   O     O_3   0.821421 0.023365 0.941118 -0.571795
C59   C     C_3   0.805486 0.833469 0.950834 -0.168945
H13   H     H_    0.820410 0.740263 0.910763 0.110481
H14   H     H_    0.756218 0.817054 0.950585 0.171569
H15   H     H_    0.828324 0.784968 0.002422 0.163098
O24   O     O_3   0.178579 0.523365 0.058882 -0.571795
C60   C     C_3   0.194514 0.333470 0.049166 -0.168945
H16   H     H_    0.179590 0.240263 0.089236 0.110481
H17   H     H_    0.243782 0.317055 0.049414 0.171569
H18   H     H_    0.171676 0.284968 0.997578 0.163098
F1    F     F_    0.739234 0.833094 0.147738 -0.665107
F2    F     F_    0.260766 0.333093 0.852261 -0.665107
O25   O     O_3   0.847254 0.355204 0.266163 -0.535645
C61   C     C_3   0.831989 0.522139 0.228144 -0.092220
H19   H     H_    0.795524 0.599320 0.248583 0.135475
H20   H     H_    0.818747 0.493016 0.171560 0.143075
H21   H     H_    0.872061 0.615621 0.234160 0.180966
O26   O     O_3   0.152746 0.855203 0.733838 -0.535645
C62   C     C_3   0.168012 0.022143 0.771853 -0.092217
H22   H     H_    0.204473 0.099327 0.751407 0.135468
H23   H     H_    0.181260 0.993027 0.828437 0.143081
H24   H     H_    0.127939 0.115619 0.765842 0.180966
O27   O     O_3   0.535165 0.251765 0.734747 -0.529148
C63   C     C_3   0.502707 0.090216 0.749349 -0.084659
H25   H     H_    0.520021 0.031278 0.801704 0.184182
H26   H     H_    0.503184 0.979980 0.708735 0.091582
H27   H     H_    0.455262 0.131438 0.749402 0.174320
O28   O     O_3   0.464834 0.751768 0.265253 -0.529148
C64   C     C_3   0.497293 0.590221 0.250651 -0.084661
H28   H     H_    0.479978 0.531278 0.198297 0.184179
H29   H     H_    0.496818 0.479988 0.291267 0.091583
H30   H     H_    0.544738 0.631446 0.250596 0.174324
O29   O     O_3   0.706617 0.161727 0.932939 -0.498848
C65   C     C_3   0.726000 0.334753 0.964771 -0.003541
H31   H     H_    0.712979 0.456007 0.929145 0.109328
H32   H     H_    0.775460 0.335564 0.982994 0.094344
H33   H     H_    0.703634 0.354388 0.011150 0.181627
O30   O     O_3   0.293383 0.661728 0.067061 -0.498849
C66   C     C_3   0.274000 0.834754 0.035229 -0.003541
H34   H     H_    0.287021 0.956007 0.070855 0.109327
H35   H     H_    0.224540 0.835564 0.017006 0.094345
H36   H     H_    0.296366 0.854388 0.988850 0.181627
F3    F     F_    0.608821 0.253810 0.858857 -0.607575
F4    F     F_    0.391179 0.753812 0.141143 -0.607574
O31   O     O_3   0.700163 0.007379 0.627214 -0.541586
C67   C     C_3   0.691768 0.107549 0.563760 -0.257283
H37   H     H_    0.684493 0.262181 0.569166 0.109771
H38   H     H_    0.654219 0.042341 0.528650 0.151023
H39   H     H_    0.732319 0.089012 0.538538 0.154473
O32   O     O_3   0.299837 0.507377 0.372786 -0.541586
C68   C     C_3   0.308232 0.607546 0.436240 -0.257284
H40   H     H_    0.315507 0.762179 0.430834 0.109771
H41   H     H_    0.345781 0.542338 0.471350 0.151024
H42   H     H_    0.267681 0.589009 0.461462 0.154473
F5    F     F_    0.971834 0.071914 0.766442 -0.688059
F6    F     F_    0.028166 0.571914 0.233558 -0.688060

loop_
_geom_bond_atom_site_label_1
_geom_bond_atom_site_label_2
_ccdc_geom_bond_type
C66   H36   S    
O21   C57   S    
C58   H10   S    
C13   C15   A    
C5    C15   A    
C30   C52   A    
C68   H40   S    
O1    C3    A    
C54   O17   A    
C27   C47   A    
C1    C28   S    
C7    C17   S    
C2    O7    A    
O26   C62   S    
C38   C52   A    
C66   H34   S    
C33   C35   A    
C44   O30   S    
O5    C3    A    
C30   F6    S    
O14   C54   A    
C43   O29   S    
C3    C22   S    
C68   H41   S    
C12   H2    S    
O29   C65   S    
C5    F1    S    
C43   C45   A    
C44   C46   A    
C62   H22   S    
O23   C59   S    
C37   C51   A    
C61   H19   S    
O18   V4    S    
C38   C46   A    
C5    C7    A    
C39   C47   A    
C25   C41   A    
C63   H26   S    
C26   C42   A    
C2    C27   S    
C64   H30   S    
C36   C38   A    
C6    C16   A    
C11   C13   A    
C60   H16   S    
C53   O18   A    
C28   C48   A    
C6    C8    A    
C63   H27   S    
C29   C51   A    
O16   V4    S    
C6    F2    S    
C31   C33   A    
O2    C4    A    
O6    V2    S    
O13   C53   A    
C67   H39   S    
C46   O24   S    
C33   H3    S    
C30   C32   A    
O12   V3    S    
C25   F3    S    
C24   C53   S    
C39   C41   A    
C40   C42   A    
C32   H6    S    
C31   H5    S    
C68   H42   S    
O20   V3    S    
O4    C2    A    
C40   C48   A    
C35   C37   A    
C50   O28   S    
C34   C36   A    
C34   H4    S    
C17   C23   T    
O4    V2    S    
C65   H32   S    
O11   V4    S    
C49   O27   S    
O16   C56   A    
C57   H9    S    
O15   C55   A    
O6    C4    A    
C62   H24   S    
C60   H17   S    
O1    V2    S    
C36   C40   A    
O14   V4    S    
C4    C21   S    
O2    V1    S    
C29   C31   A    
C61   H21   S    
O13   V3    S    
C16   O22   S    
O19   V3    S    
C23   C54   S    
C57   H8    S    
C58   H12   S    
C18   C24   T    
C41   C43   A    
C64   H28   S    
C45   O23   S    
C10   C12   A    
C65   H33   S    
C37   C45   A    
C27   C49   A    
C28   C50   A    
O17   V3    S    
C67   H38   S    
C29   F5    S    
C63   H25   S    
O32   C68   S    
C8    C18   S    
C47   O31   S    
C66   H35   S    
C62   H23   S    
C7    C9    A    
O10   V1    S    
C12   C14   A    
C8    C10   A    
O3    C1    A    
C9    O25   S    
O27   C63   S    
O30   C66   S    
C59   H15   S    
C25   C49   A    
C10   O26   S    
C59   H14   S    
C26   C50   A    
C9    C11   A    
C65   H31   S    
O7    V1    S    
C14   C16   A    
O8    V2    S    
O31   C67   S    
C52   C55   S    
C51   C56   S    
O15   V3    S    
C35   C39   A    
C26   F4    S    
O5    V1    S    
O22   C58   S    
C19   C21   T    
C42   C44   A    
C60   H18   S    
C20   C22   T    
C11   H1    S    
O24   C60   S    
C61   H20   S    
C15   O21   S    
C14   C20   S    
C32   C34   A    
C1    O8    A    
O19   V4    S    
C57   H7    S    
C58   H11   S    
C59   H13   S    
C48   O32   S    
O9    V2    S    
C13   C19   S    
C64   H29   S    
C67   H37   S    
O20   V4    S    
O3    V1    S    
O25   C61   S    
O12   C56   A    
O28   C64   S    
O11   C55   A    
