data_mof_unit_16951.cif
_audit_creation_date              2012-12-10T20:41:55-0500
_audit_creation_method            fapswitch 2.2
_symmetry_space_group_name_H-M    P1
_symmetry_Int_Tables_number       1
_space_group_crystal_system       triclinic
_cell_length_a                    14.987954
_cell_length_b                    15.224657
_cell_length_c                    9.89194
_cell_angle_alpha                 90.10835
_cell_angle_beta                  89.142588
_cell_angle_gamma                 90.03787
_cell_volume                      2256.94953574

loop_
_atom_site_label
_atom_site_type_symbol
_atom_type_description
_atom_site_fract_x
_atom_site_fract_y
_atom_site_fract_z
_atom_type_partial_charge
C1    C     C_R   0.383145 0.876692 0.500513 0.889193
C2    C     C_R   0.928718 0.532452 0.073011 0.188876
C3    C     C_R   0.573723 0.976147 0.070110 -0.156219
C4    C     C_R   0.073723 0.476146 0.070110 -0.156220
C5    C     C_R   0.573776 0.976331 0.926368 -0.137613
C6    C     C_R   0.073776 0.476331 0.926368 -0.137613
C7    C     C_R   0.428939 0.033000 0.930276 0.154755
C8    C     C_R   0.928939 0.533000 0.930276 0.154755
C9    C     C_3   0.335504 0.000393 0.924172 -0.629848
C10   C     C_3   0.835505 0.500393 0.924171 -0.629848
C11   C     C_3   0.334583 0.999224 0.077860 0.197825
C12   C     C_R   0.382553 0.122651 0.500374 0.888741
C13   C     C_3   0.834583 0.499224 0.077860 0.197826
C14   C     C_R   0.622990 0.116957 0.499353 0.867290
C15   C     C_R   0.622812 0.882852 0.499245 0.867195
C16   C     C_R   0.122990 0.616957 0.499353 0.867291
C17   C     C_R   0.122812 0.382852 0.499245 0.867195
C18   C     C_R   0.298233 0.236087 0.621448 0.134954
C19   C     C_R   0.299777 0.762082 0.622695 0.135208
C20   C     C_R   0.798235 0.736089 0.621446 0.134956
C21   C     C_R   0.799777 0.262082 0.622695 0.135208
C22   C     C_R   0.328773 0.199983 0.500096 -0.106861
C23   C     C_R   0.883145 0.376692 0.500513 0.889193
C24   C     C_R   0.330714 0.798088 0.501271 -0.107585
C25   C     C_R   0.828773 0.699983 0.500095 -0.106861
C26   C     C_R   0.830714 0.298088 0.501271 -0.107585
C27   C     C_R   0.308524 0.241623 0.377652 -0.213164
C28   C     C_R   0.312358 0.754331 0.379574 -0.219300
C29   C     C_R   0.808522 0.741621 0.377651 -0.213164
C30   C     C_R   0.812358 0.254331 0.379574 -0.219299
C31   C     C_R   0.743558 0.806320 0.376753 -0.234098
C32   C     C_R   0.746436 0.190361 0.378041 -0.234526
C33   C     C_R   0.243560 0.306322 0.376754 -0.234096
C34   C     C_R   0.882553 0.622651 0.500374 0.888741
C35   C     C_R   0.246436 0.690361 0.378041 -0.234526
C36   C     C_R   0.700410 0.829076 0.498570 -0.097726
C37   C     C_R   0.701330 0.169772 0.499031 -0.100743
C38   C     C_R   0.200410 0.329075 0.498570 -0.097726
C39   C     C_R   0.201330 0.669772 0.499031 -0.100743
C40   C     C_R   0.734775 0.800490 0.620753 0.132355
C41   C     C_R   0.735443 0.198582 0.621186 0.137537
C42   C     C_R   0.234772 0.300487 0.620754 0.132354
C43   C     C_R   0.235443 0.698582 0.621185 0.137537
C44   C     C_3   0.687234 0.764310 0.742172 -0.477978
C45   C     C_3   0.256747 0.192521 0.741727 -0.506354
C46   C     C_3   0.688597 0.233607 0.743884 -0.468345
C47   C     C_3   0.187227 0.264303 0.742168 -0.477973
C48   C     C_3   0.188597 0.733607 0.743884 -0.468345
C49   C     C_3   0.260089 0.803675 0.746529 -0.516398
C50   C     C_3   0.756752 0.692526 0.741729 -0.506356
C51   C     C_3   0.760089 0.303675 0.746529 -0.516399
C52   C     C_R   0.428718 0.032452 0.073011 0.188878
H1    H     H_    0.337447 0.220150 0.282268 0.171080
H2    H     H_    0.691673 0.187395 0.830599 0.203549
H3    H     H_    0.191795 0.308548 0.831227 0.193674
H4    H     H_    0.191672 0.687395 0.830599 0.203549
H5    H     H_    0.618980 0.740060 0.719819 0.207915
H6    H     H_    0.621101 0.259912 0.722110 0.205206
H7    H     H_    0.118975 0.240052 0.719809 0.207913
H8    H     H_    0.121101 0.759912 0.722110 0.205206
H9    H     H_    0.300851 0.195430 0.830978 0.200437
H10   H     H_    0.304341 0.796036 0.834843 0.195819
H11   H     H_    0.800858 0.695435 0.830978 0.200439
H12   H     H_    0.343722 0.773267 0.285099 0.175782
H13   H     H_    0.804341 0.296036 0.834843 0.195819
H14   H     H_    0.228423 0.127148 0.716208 0.201000
H15   H     H_    0.233732 0.870742 0.727575 0.206511
H16   H     H_    0.728426 0.627153 0.716215 0.201000
H17   H     H_    0.733732 0.370742 0.727575 0.206511
H18   H     H_    0.632870 0.955479 0.122627 0.142803
H19   H     H_    0.132870 0.455479 0.122627 0.142803
H20   H     H_    0.633096 0.956321 0.871073 0.144298
H21   H     H_    0.133096 0.456320 0.871073 0.144299
H22   H     H_    0.288544 0.047824 0.881237 0.192951
H23   H     H_    0.837443 0.720146 0.282267 0.171082
H24   H     H_    0.333410 0.935134 0.876923 0.212108
H25   H     H_    0.788544 0.547824 0.881237 0.192950
H26   H     H_    0.833411 0.435134 0.876923 0.212108
H27   H     H_    0.207460 0.041859 0.119327 0.183027
H28   H     H_    0.281008 0.123908 0.097088 0.155868
H29   H     H_    0.371499 0.868669 0.088643 0.164355
H30   H     H_    0.261863 0.887262 0.111374 0.173615
H31   H     H_    0.781007 0.623907 0.097087 0.155868
H32   H     H_    0.707460 0.541857 0.119328 0.183028
H33   H     H_    0.761864 0.387259 0.111366 0.173613
H34   H     H_    0.843722 0.273267 0.285099 0.175782
H35   H     H_    0.871503 0.368669 0.088646 0.164356
H36   H     H_    0.722917 0.833137 0.280812 0.161799
H37   H     H_    0.726869 0.162316 0.282209 0.169016
H38   H     H_    0.222921 0.333141 0.280813 0.161797
H39   H     H_    0.226869 0.662316 0.282209 0.169016
H40   H     H_    0.691806 0.808556 0.831228 0.193674
N1    N     N_R   0.499140 0.000000 0.142800 -0.111321
N2    N     N_R   0.999140 0.500000 0.142800 -0.111322
N3    N     N_R   0.499160 1.000000 0.857150 -0.094200
N4    N     N_R   0.999160 0.500000 0.857150 -0.094200
N5    N     N_3   0.272464 0.061892 0.140934 -0.417421
N6    N     N_3   0.325252 0.911045 0.134927 -0.395307
N7    N     N_3   0.772464 0.561891 0.140934 -0.417421
N8    N     N_3   0.825252 0.411045 0.134926 -0.395307
O1    O     O_R   0.408400 0.908380 0.614690 -0.617338
O2    O     O_R   0.591610 0.908390 0.614650 -0.625050
O3    O     O_R   0.091610 0.591610 0.614650 -0.619378
O4    O     O_R   0.091610 0.408390 0.614650 -0.625050
O5    O     O_R   0.591590 0.091600 0.385310 -0.626333
O6    O     O_R   0.591590 0.908400 0.385310 -0.631593
O7    O     O_R   0.091590 0.591600 0.385310 -0.626333
O8    O     O_R   0.091590 0.408400 0.385310 -0.631593
O9    O     O_R   0.408400 0.091620 0.614690 -0.612332
O10   O     O_R   0.908400 0.408380 0.614690 -0.617338
O11   O     O_R   0.908400 0.591620 0.614690 -0.612332
O12   O     O_R   0.408370 0.908370 0.385350 -0.591005
O13   O     O_R   0.408370 0.091630 0.385350 -0.604929
O14   O     O_R   0.908370 0.408370 0.385350 -0.591006
O15   O     O_R   0.908370 0.591630 0.385350 -0.604930
O16   O     O_R   0.591610 0.091610 0.614650 -0.619378
Zn1   Zn    Zn3+2 0.500010 0.000000 0.653130 0.941307
Zn2   Zn    Zn3+2 0.000010 0.500000 0.653130 0.941307
Zn3   Zn    Zn3+2 0.499980 0.000000 0.346870 0.956912
Zn4   Zn    Zn3+2 0.999980 0.500000 0.346870 0.956912

loop_
_geom_bond_atom_site_label_1
_geom_bond_atom_site_label_2
_ccdc_geom_bond_type
C21   C26   A    
C50   H11   S    
H28   N5    S    
O8    Zn4   S    
C8    N4    A    
O10   Zn2   S    
O7    Zn4   S    
C10   H26   S    
O9    Zn1   S    
C27   C33   A    
C11   N6    S    
C15   O6    A    
N4    Zn2   S    
C17   O4    A    
C7    C52   A    
C12   O13   A    
C5    H20   S    
C18   C42   A    
C1    O12   A    
C20   C40   A    
O6    Zn3   S    
C20   C25   A    
C12   C22   S    
O16   Zn1   S    
C48   H4    S    
C51   H13   S    
C23   C26   S    
C2    C13   S    
C20   C50   S    
C11   C52   S    
C16   O7    A    
O13   Zn3   S    
N2    Zn4   S    
C14   O5    A    
C28   C35   A    
C41   C46   S    
C49   H10   S    
C9    H24   S    
C30   H34   S    
C43   C48   S    
C44   H40   S    
C25   C34   S    
C17   C38   S    
C51   H17   S    
H31   N7    S    
C46   H6    S    
C34   O11   A    
H30   N6    S    
C12   O9    A    
C5    N3    A    
C10   H25   S    
C19   C43   A    
C48   H8    S    
O4    Zn2   S    
C45   C47   S    
C25   C29   A    
C36   C40   A    
C3    H18   S    
C4    C6    A    
C17   O8    A    
C39   C43   A    
C34   O15   A    
C46   C51   S    
N3    Zn1   S    
C13   N7    S    
C35   C39   A    
C19   C49   S    
C16   O3    A    
C32   H37   S    
C2    N2    A    
C44   H5    S    
C46   H2    S    
C52   N1    A    
C3    N1    A    
C32   C37   A    
C9    C11   S    
O2    Zn1   S    
C4    N2    A    
C28   H12   S    
C48   C49   S    
C26   C30   A    
C6    N4    A    
C22   C27   A    
O11   Zn2   S    
C21   C41   A    
O3    Zn2   S    
C9    H22   S    
C18   C45   S    
C1    O1    A    
C15   C36   S    
C21   C51   S    
C6    H21   S    
C47   H3    S    
H35   N8    S    
C44   C50   S    
C7    C9    S    
C23   O10   A    
C31   H36   S    
C49   H15   S    
C18   C22   A    
H32   N7    S    
H27   N5    S    
C2    C8    A    
C24   C28   A    
C3    C5    A    
C10   C13   S    
O12   Zn3   S    
C27   H1    S    
C38   C42   A    
C29   H23   S    
C7    N3    A    
C33   C38   A    
C11   N5    S    
O1    Zn1   S    
C13   N8    S    
C19   C24   A    
C29   C31   A    
H33   N8    S    
C33   H38   S    
C23   O14   A    
C30   C32   A    
C14   O16   A    
C45   H9    S    
C42   C47   S    
C15   O2    A    
C37   C41   A    
C16   C39   S    
C47   H7    S    
C40   C44   S    
C1    C24   S    
C8    C10   S    
O15   Zn4   S    
H29   N6    S    
C45   H14   S    
C31   C36   A    
O5    Zn3   S    
N1    Zn3   S    
C50   H16   S    
C4    H19   S    
O14   Zn4   S    
C14   C37   S    
C35   H39   S    
