data_mof_unit_19018.cif
_audit_creation_date              2012-10-26T20:20:45-0400
_audit_creation_method            fapswitch 2.2
_symmetry_space_group_name_H-M    P1
_symmetry_Int_Tables_number       1
_space_group_crystal_system       triclinic
_cell_length_a                    8.72149
_cell_length_b                    10.783168
_cell_length_c                    9.62603
_cell_angle_alpha                 88.384325
_cell_angle_beta                  97.274745
_cell_angle_gamma                 92.204209
_cell_volume                      897.082686529

loop_
_atom_site_label
_atom_site_type_symbol
_atom_type_description
_atom_site_fract_x
_atom_site_fract_y
_atom_site_fract_z
_atom_type_partial_charge
C1    C     C_R   0.498809 0.262429 0.501162 0.542134
C2    C     C_R   0.565752 0.062918 0.619725 -0.146578
C3    C     C_R   0.501014 0.871602 0.498365 0.023892
C4    C     C_R   0.496870 0.128384 0.502300 0.019850
C5    C     C_R   0.414497 0.414555 0.070404 0.015150
C6    C     C_R   0.582607 0.587679 0.930105 0.024904
C7    C     C_R   0.420570 0.407659 0.924195 0.126397
C8    C     C_R   0.587040 0.587235 0.078249 0.127291
C9    C     C_3   0.354960 0.284164 0.864461 -0.227989
C10   C     C_3   0.198448 0.290430 0.774113 -0.383241
C11   C     C_3   0.695320 0.684581 0.151754 -0.251088
C12   C     C_R   0.500604 0.737576 0.498898 0.543794
C13   C     C_3   0.639591 0.815685 0.115473 -0.448124
C14   C     C_R   0.204305 0.500695 0.464230 0.541648
C15   C     C_R   0.795679 0.502538 0.535475 0.545680
C16   C     C_2   0.038498 0.499463 0.444426 -0.164690
C17   C     C_2   0.961353 0.508916 0.554274 -0.163920
C18   C     C_R   0.429139 0.065282 0.383302 -0.137954
C19   C     C_R   0.567910 0.934665 0.617740 -0.135419
C20   C     C_R   0.430206 0.936977 0.381836 -0.143942
Cu1   Cu    Cu3+1 0.500000 0.500020 0.640660 0.924885
Cu2   Cu    Cu3+1 0.500000 0.499980 0.359340 0.918928
H1    H     H_    0.979547 0.488847 0.338707 0.128655
H2    H     H_    0.212319 0.291864 0.661537 0.182360
H3    H     H_    0.126725 0.205554 0.792525 0.109822
H4    H     H_    0.441012 0.232769 0.817734 0.165611
H5    H     H_    0.334763 0.218131 0.951852 0.075296
H6    H     H_    0.514428 0.820272 0.124088 0.163767
H7    H     H_    0.704545 0.882884 0.188274 0.144726
H8    H     H_    0.659059 0.843338 0.006935 0.123230
H9    H     H_    0.713172 0.672538 0.265425 0.214715
H10   H     H_    0.812091 0.676786 0.118583 0.100546
H11   H     H_    0.020067 0.522418 0.659299 0.123864
H12   H     H_    0.373799 0.115075 0.292335 0.114848
H13   H     H_    0.623050 0.884874 0.708796 0.114443
H14   H     H_    0.372800 0.888928 0.291520 0.117447
H15   H     H_    0.620710 0.110785 0.711298 0.111762
H16   H     H_    0.347985 0.346455 0.124790 0.115087
H17   H     H_    0.650460 0.656162 0.877661 0.116472
H18   H     H_    0.134782 0.371342 0.801684 0.147489
N1    N     N_R   0.500040 0.500030 0.852080 -0.228000
N2    N     N_R   0.499960 0.499970 0.147920 -0.235427
O1    O     O_R   0.499990 0.319660 0.618740 -0.516854
O2    O     O_R   0.500010 0.680340 0.381260 -0.515308
O3    O     O_R   0.499990 0.319630 0.381170 -0.506505
O4    O     O_R   0.500010 0.680370 0.618830 -0.508058
O5    O     O_R   0.274840 0.500010 0.591370 -0.496447
O6    O     O_R   0.725160 0.499990 0.408630 -0.515750
O7    O     O_R   0.274830 0.499980 0.353800 -0.499232
O8    O     O_R   0.725170 0.500020 0.646200 -0.500168

loop_
_geom_bond_atom_site_label_1
_geom_bond_atom_site_label_2
_ccdc_geom_bond_type
C9    H4    S    
C2    C4    A    
C5    N2    A    
C5    C7    A    
C13   H6    S    
C3    C19   A    
C14   O5    A    
C12   O4    A    
C11   C13   S    
C9    C10   S    
Cu2   O6    S    
C1    C4    S    
C4    C18   A    
Cu2   O2    S    
C11   H9    S    
C3    C20   A    
C12   O2    A    
C19   H13   S    
C5    H16   S    
C18   H12   S    
C2    H15   S    
C1    O3    A    
Cu2   N2    S    
C17   H11   S    
C15   O6    A    
C8    C11   S    
Cu1   N1    S    
C10   H3    S    
C13   H7    S    
Cu1   O8    S    
C8    N2    A    
C11   H10   S    
C16   H1    S    
C18   C20   A    
C7    N1    A    
C14   C16   S    
C14   O7    A    
C20   H14   S    
C13   H8    S    
Cu2   O3    S    
C9    H5    S    
C15   C17   S    
Cu1   O4    S    
C15   O8    A    
Cu2   O7    S    
C7    C9    S    
C6    H17   S    
C10   H18   S    
C6    C8    A    
C3    C12   S    
C10   H2    S    
C2    C19   A    
Cu1   Cu2   S    
C1    O1    A    
Cu1   O1    S    
C16   C17   D    
Cu1   O5    S    
C6    N1    A    
