data_mof_unit_62879.cif
_audit_creation_date              2012-12-10T16:43:34-0500
_audit_creation_method            fapswitch 2.2
_symmetry_space_group_name_H-M    P1
_symmetry_Int_Tables_number       1
_space_group_crystal_system       triclinic
_cell_length_a                    18.456611
_cell_length_b                    18.430026
_cell_length_c                    18.446544
_cell_angle_alpha                 119.584701
_cell_angle_beta                  90.394756
_cell_angle_gamma                 119.843635
_cell_volume                      4459.79552459

loop_
_atom_site_label
_atom_site_type_symbol
_atom_type_description
_atom_site_fract_x
_atom_site_fract_y
_atom_site_fract_z
_atom_type_partial_charge
C1    C     C_R   0.361377 0.000263 0.138413 0.508335
C2    C     C_2   0.803323 0.998633 0.691154 -0.094050
C3    C     C_2   0.721806 0.940866 0.778260 -0.158171
C4    C     C_R   0.638910 0.000499 0.861798 0.512236
C5    C     C_2   0.697008 0.004808 0.809209 -0.095067
C6    C     C_2   0.280977 0.443855 0.723480 -0.157115
C7    C     C_2   0.192237 0.387737 0.691218 -0.092911
C8    C     C_2   0.337146 0.556201 0.777289 -0.157275
C9    C     C_2   0.304505 0.612259 0.808812 -0.092532
C10   C     C_2   0.281009 0.060156 0.337041 -0.158347
C11   C     C_2   0.192315 0.995693 0.304675 -0.094341
C12   C     C_R   0.113493 0.028949 0.808222 -0.098766
C13   C     C_2   0.337108 0.057604 0.280788 -0.157024
C14   C     C_2   0.304447 0.001299 0.192201 -0.095378
C15   C     C_2   0.776212 0.938453 0.218330 -0.158787
C16   C     C_R   0.639599 0.277293 0.138095 0.509502
C17   C     C_2   0.810942 0.006491 0.306218 -0.090092
C18   C     C_2   0.724457 0.942564 0.162315 -0.159239
C19   C     C_2   0.688968 0.995003 0.195310 -0.089546
C20   C     C_2   0.787841 0.558137 0.220178 -0.142090
C21   C     C_2   0.812897 0.612474 0.308514 -0.109110
C22   C     C_2   0.741569 0.446471 0.163572 -0.029636
C23   C     C_R   0.180050 0.015782 0.781147 0.028644
C24   C     C_2   0.692370 0.388578 0.192296 -0.069887
C25   C     C_R   0.138411 0.277046 0.638268 0.511884
C26   C     C_R   0.862123 0.722934 0.361854 0.514066
C27   C     C_R   0.861191 0.999767 0.638373 0.509274
C28   C     C_R   0.361404 0.722954 0.861777 0.514429
C29   C     C_R   0.138434 0.999650 0.361492 0.512143
C30   C     C_R   0.861032 0.000740 0.360499 0.514830
C31   C     C_R   0.139936 0.001522 0.641715 0.493055
C32   C     C_R   0.638917 0.999281 0.139549 0.514680
C33   C     C_R   0.359926 0.001675 0.861611 0.493672
C34   C     C_R   0.234834 0.016052 0.835861 0.028705
C35   C     C_R   0.221153 0.029536 0.915740 -0.097549
C36   C     C_R   0.153942 0.040297 0.939904 -0.120998
C37   C     C_R   0.100307 0.039987 0.886342 -0.121928
C38   C     C_3   0.751435 0.401815 0.073149 -0.351341
C39   C     C_R   0.303871 0.006857 0.810740 0.024782
C40   C     C_R   0.320580 0.002974 0.735587 -0.148146
C41   C     C_R   0.267171 0.002756 0.682242 -0.147853
C42   C     C_R   0.195812 0.006398 0.702809 0.025114
C43   C     C_2   0.780620 0.943411 0.724749 -0.161078
H1    H     H_    0.374136 0.997565 0.716880 0.130812
H2    H     H_    0.234484 0.955161 0.156295 0.105039
H3    H     H_    0.786913 0.878611 0.185695 0.157815
H4    H     H_    0.263085 0.034328 0.961441 0.132776
H5    H     H_    0.805473 0.070110 0.340488 0.107049
H6    H     H_    0.714395 0.899755 0.091973 0.156741
H7    H     H_    0.693863 0.034231 0.264184 0.107062
H8    H     H_    0.804632 0.597208 0.187648 0.157198
H9    H     H_    0.801764 0.577063 0.343660 0.108015
H10   H     H_    0.687184 0.423121 0.257680 0.090297
H11   H     H_    0.144327 0.050514 0.001220 0.114824
H12   H     H_    0.720076 0.063876 0.798104 0.104588
H13   H     H_    0.049077 0.049949 0.906100 0.114769
H14   H     H_    0.072252 0.033253 0.770885 0.133053
H15   H     H_    0.280371 0.997270 0.623208 0.130700
H16   H     H_    0.804854 0.896705 0.711887 0.154894
H17   H     H_    0.778745 0.043894 0.700332 0.107883
H18   H     H_    0.699243 0.884636 0.793296 0.155624
H19   H     H_    0.802301 0.462591 0.066804 0.111338
H20   H     H_    0.773121 0.351820 0.062129 0.148451
H21   H     H_    0.687883 0.358216 0.020903 0.166249
H22   H     H_    0.314734 0.406560 0.709378 0.156766
H23   H     H_    0.156147 0.421638 0.701692 0.108106
H24   H     H_    0.408222 0.593552 0.792026 0.155747
H25   H     H_    0.234497 0.578312 0.797709 0.108034
H26   H     H_    0.314754 0.116770 0.407892 0.156172
H27   H     H_    0.156310 0.936461 0.234911 0.106321
H28   H     H_    0.408156 0.105195 0.314364 0.157567
O1    O     O_3   0.500000 0.000000 0.000000 -0.440634
O2    O     O_R   0.054120 0.939900 0.325040 -0.542328
O3    O     O_R   0.884120 0.060070 0.444330 -0.540439
O4    O     O_R   0.325020 0.939940 0.054210 -0.546228
O5    O     O_R   0.175860 0.060090 0.615830 -0.541921
O6    O     O_R   0.884120 0.939900 0.324160 -0.542808
O7    O     O_R   0.055710 0.939940 0.615850 -0.548263
O8    O     O_R   0.885720 0.939940 0.614980 -0.545752
O9    O     O_R   0.174930 0.060060 0.445830 -0.541159
O10   O     O_R   0.054120 0.229160 0.614300 -0.540470
O11   O     O_R   0.885050 0.770830 0.325070 -0.542484
O12   O     O_R   0.614240 0.229150 0.054160 -0.546568
O13   O     O_R   0.614240 0.060060 0.885070 -0.545775
O14   O     O_R   0.614900 0.229170 0.174980 -0.539691
O15   O     O_R   0.445840 0.770840 0.885740 -0.541528
O16   O     O_R   0.615830 0.060100 0.175880 -0.540665
O17   O     O_R   0.324090 0.939910 0.884220 -0.546005
O18   O     O_R   0.615830 0.939930 0.055710 -0.543788
O19   O     O_R   0.444240 0.060060 0.884190 -0.542405
O20   O     O_R   0.325020 0.770840 0.885120 -0.536775
O21   O     O_R   0.445840 0.060100 0.175010 -0.539794
O22   O     O_R   0.614900 0.939900 0.885710 -0.541065
O23   O     O_3   0.999960 0.000000 0.500040 -0.441901
O24   O     O_R   0.174930 0.229160 0.614920 -0.541098
O25   O     O_R   0.885720 0.770850 0.445880 -0.536604
O26   O     O_R   0.885050 0.060100 0.614330 -0.539468
Zn1   Zn    Zn3+2 0.542440 0.085830 0.956610 0.926565
Zn2   Zn    Zn3+2 0.543390 0.085850 0.129220 0.938238
Zn3   Zn    Zn3+2 0.543390 0.914160 0.957530 0.934796
Zn4   Zn    Zn3+2 0.370780 0.914160 0.956640 0.937671
Zn5   Zn    Zn3+2 0.957510 0.914170 0.543430 0.934743
Zn6   Zn    Zn3+2 0.956570 0.085840 0.542520 0.941914
Zn7   Zn    Zn3+2 0.956570 0.914150 0.370820 0.936434
Zn8   Zn    Zn3+2 0.129180 0.085840 0.543400 0.934269

loop_
_geom_bond_atom_site_label_1
_geom_bond_atom_site_label_2
_ccdc_geom_bond_type
C15   C18   S    
C21   C26   S    
O23   Zn8   S    
O5    Zn8   S    
C31   C42   S    
O25   Zn5   S    
O7    Zn5   S    
C41   C42   A    
C35   C36   A    
C17   H5    S    
C35   H4    S    
O17   Zn4   S    
C11   H27   S    
O1    Zn1   S    
C12   C23   A    
C3    C43   S    
C33   C39   S    
C23   C42   A    
C36   C37   A    
C33   O17   A    
C41   H15   S    
C18   C19   D    
C20   H8    S    
C27   O8    A    
O10   Zn6   S    
C30   O3    A    
C2    H17   S    
C29   O2    A    
O1    Zn4   S    
C22   C38   S    
C34   C35   A    
C12   C37   A    
O24   Zn8   S    
C30   O6    A    
C6    H22   S    
C8    C9    D    
O12   Zn1   S    
O8    Zn5   S    
C2    C27   S    
O15   Zn3   S    
C38   H21   S    
C43   H16   S    
C18   H6    S    
O23   Zn7   S    
C16   C24   S    
C13   C14   D    
C25   O10   A    
C17   C30   S    
C37   H13   S    
O20   Zn4   S    
C19   C32   S    
C14   H2    S    
O16   Zn2   S    
C3    H18   S    
C26   O25   A    
O18   Zn3   S    
C34   C39   A    
C1    O4    A    
C39   C40   A    
C6    C8    S    
C13   H28   S    
C24   H10   S    
C32   O16   A    
O9    Zn8   S    
C16   O12   A    
O14   Zn2   S    
O2    Zn7   S    
C32   O18   A    
C4    O13   A    
C2    C43   D    
C23   C34   A    
O22   Zn3   S    
C11   C29   S    
O26   Zn6   S    
C12   H14   S    
C40   C41   A    
C20   C22   S    
O23   Zn6   S    
C25   O24   A    
C1    O21   A    
C28   O15   A    
C16   O14   A    
C22   C24   D    
C31   O7    A    
C38   H20   S    
O1    Zn3   S    
C15   C17   D    
C27   O26   A    
O21   Zn2   S    
C5    H12   S    
C4    C5    S    
C3    C5    D    
C10   C13   S    
C6    C7    D    
C7    C25   S    
O13   Zn1   S    
C9    H25   S    
C33   O19   A    
C7    H23   S    
C19   H7    S    
C31   O5    A    
C29   O9    A    
C28   O20   A    
C36   H11   S    
C10   C11   D    
C4    O22   A    
C10   H26   S    
C40   H1    S    
C20   C21   D    
O23   Zn5   S    
C8    H24   S    
C26   O11   A    
O4    Zn4   S    
O11   Zn7   S    
O6    Zn7   S    
C1    C14   S    
C15   H3    S    
O19   Zn1   S    
C21   H9    S    
C9    C28   S    
O3    Zn6   S    
C38   H19   S    
O1    Zn2   S    
