data_mof_unit_15156.cif
_audit_creation_date              2012-12-10T20:50:10-0500
_audit_creation_method            fapswitch 2.2
_symmetry_space_group_name_H-M    P1
_symmetry_Int_Tables_number       1
_space_group_crystal_system       triclinic
_cell_length_a                    19.306682
_cell_length_b                    8.914319
_cell_length_c                    8.188487
_cell_angle_alpha                 90.002405
_cell_angle_beta                  89.994896
_cell_angle_gamma                 90.000691
_cell_volume                      1409.28709945

loop_
_atom_site_label
_atom_site_type_symbol
_atom_type_description
_atom_site_fract_x
_atom_site_fract_y
_atom_site_fract_z
_atom_type_partial_charge
Br1   Br    Br    0.132369 0.396117 0.830973 -0.404959
Br2   Br    Br    0.867608 0.395977 0.169000 -0.404916
Br3   Br    Br    0.867554 0.604176 0.830945 -0.405005
Br4   Br    Br    0.132403 0.604190 0.169133 -0.405020
C1    C     C_R   0.500000 0.218368 0.499998 0.922773
C2    C     C_R   0.250312 0.486240 0.350992 0.064943
C3    C     C_R   0.179530 0.480189 0.645510 0.221525
C4    C     C_R   0.820468 0.480048 0.354506 0.221581
C5    C     C_R   0.820452 0.520064 0.645429 0.221547
C6    C     C_R   0.179538 0.520057 0.354578 0.221504
C7    C     C_R   0.143810 0.500143 0.500049 -0.112469
C8    C     C_R   0.856194 0.500084 0.499966 -0.112522
C9    C     C_R   0.288267 0.500048 0.500024 -0.160574
C10   C     C_R   0.711732 0.500005 0.499973 -0.160548
C11   C     C_R   0.930684 0.500103 0.499975 0.420838
C12   C     C_R   0.500000 0.781632 0.500002 0.922763
C13   C     C_R   0.069329 0.500135 0.500046 0.420969
C14   C     C_3   0.280205 0.578406 0.805717 -0.361664
C15   C     C_3   0.304412 0.740738 0.783699 -0.779344
C16   C     C_3   0.719804 0.578296 0.194277 -0.361661
C17   C     C_3   0.695616 0.740644 0.216273 -0.779291
C18   C     C_3   0.719810 0.421616 0.805631 -0.361676
C19   C     C_3   0.695643 0.259267 0.783531 -0.779431
C20   C     C_3   0.280186 0.421711 0.194332 -0.361670
C21   C     C_3   0.304353 0.259351 0.216343 -0.779346
C22   C     C_R   0.364907 0.500008 0.500007 0.892110
C23   C     C_R   0.635093 0.499997 0.499992 0.892117
C24   C     C_1   0.500000 0.065310 0.499997 -0.194454
C25   C     C_1   0.500000 0.934690 0.500003 -0.194457
C26   C     C_R   0.250314 0.513913 0.649070 0.064932
C27   C     C_R   0.749688 0.513818 0.350933 0.064895
C28   C     C_R   0.749682 0.486207 0.649003 0.064927
H1    H     H_    0.325240 0.783397 0.901286 0.245155
H2    H     H_    0.678324 0.506015 0.144167 0.221002
H3    H     H_    0.674881 0.216500 0.901138 0.245189
H4    H     H_    0.654520 0.248801 0.689927 0.254057
H5    H     H_    0.740059 0.187619 0.746626 0.268797
H6    H     H_    0.760176 0.415355 0.900883 0.248881
H7    H     H_    0.678321 0.493833 0.855818 0.221023
H8    H     H_    0.325154 0.216656 0.098738 0.245161
H9    H     H_    0.345446 0.248834 0.310014 0.254047
H10   H     H_    0.259925 0.187675 0.253107 0.268801
H11   H     H_    0.239822 0.415490 0.099073 0.248868
H12   H     H_    0.345494 0.751215 0.689981 0.254051
H13   H     H_    0.321676 0.493953 0.144191 0.221010
H14   H     H_    0.259998 0.812472 0.746995 0.268779
H15   H     H_    0.239842 0.584671 0.900995 0.248867
H16   H     H_    0.321676 0.506115 0.855838 0.221006
H17   H     H_    0.674778 0.783279 0.098689 0.245157
H18   H     H_    0.654546 0.751164 0.310019 0.254040
H19   H     H_    0.740041 0.812368 0.252932 0.268787
H20   H     H_    0.760162 0.584523 0.098994 0.248891
N1    N     N_1   0.500000 0.500000 0.073640 -0.044264
N2    N     N_1   0.500000 0.500000 0.926360 -0.044266
N3    N     N_R   0.034353 0.368598 0.498985 -0.092613
N4    N     N_R   0.965665 0.631639 0.500641 -0.092487
N5    N     N_R   0.965672 0.368580 0.499363 -0.092497
N6    N     N_R   0.034345 0.631653 0.501084 -0.092590
O1    O     O_R   0.500000 0.285350 0.636850 -0.613834
O2    O     O_R   0.500000 0.714650 0.363150 -0.613828
O3    O     O_R   0.500000 0.714650 0.636850 -0.613834
O4    O     O_R   0.500000 0.285350 0.363150 -0.613828
O5    O     O_R   0.398140 0.500000 0.636920 -0.618232
O6    O     O_R   0.601860 0.500000 0.363080 -0.618233
O7    O     O_R   0.601860 0.500000 0.636920 -0.618234
O8    O     O_R   0.398140 0.500000 0.363080 -0.618231
Zn1   Zn    Zn3+2 0.500000 0.500000 0.682780 0.968492
Zn2   Zn    Zn3+2 0.500000 0.500000 0.317220 0.968494

loop_
_geom_bond_atom_site_label_1
_geom_bond_atom_site_label_2
_ccdc_geom_bond_type
C21   H10   S    
C2    C6    A    
O8    Zn2   S    
C22   O5    A    
C23   O7    A    
C10   C23   S    
C1    C24   S    
O3    Zn1   S    
C22   O8    A    
C8    C11   S    
O4    Zn2   S    
C13   N6    A    
C4    C8    A    
C16   H2    S    
C11   N4    A    
C16   C17   S    
C17   H17   S    
C15   H14   S    
C2    C20   S    
C16   H20   S    
C3    C26   A    
Br1   C3    S    
N1    N2    T    
C15   H12   S    
C2    C9    A    
C3    C7    A    
Br3   C5    S    
C11   N5    A    
C18   C28   S    
C14   C26   S    
C20   H13   S    
O6    Zn2   S    
C24   C25   T    
N4    N6    A    
C1    O4    A    
C14   C15   S    
C19   H3    S    
C6    C7    A    
N3    N5    A    
C21   H8    S    
C15   H1    S    
C20   H11   S    
C5    C8    A    
O5    Zn1   S    
C9    C22   S    
O7    Zn1   S    
C12   O3    A    
C1    O1    A    
Br4   C6    S    
C18   H6    S    
C9    C26   A    
C17   H19   S    
C20   C21   S    
O2    Zn2   S    
C19   H4    S    
C12   O2    A    
C21   H9    S    
N1    Zn2   S    
C10   C27   A    
C13   N3    A    
C18   C19   S    
C7    C13   S    
N2    Zn1   S    
C17   H18   S    
C5    C28   A    
O1    Zn1   S    
C12   C25   S    
C19   H5    S    
C4    C27   A    
C18   H7    S    
C23   O6    A    
Br2   C4    S    
C10   C28   A    
C14   H15   S    
C16   C27   S    
C14   H16   S    
