data_mof_unit_43808.cif
_audit_creation_date              2012-10-26T18:26:36-0400
_audit_creation_method            fapswitch 2.2
_symmetry_space_group_name_H-M    P1
_symmetry_Int_Tables_number       1
_space_group_crystal_system       triclinic
_cell_length_a                    15.830388
_cell_length_b                    8.683268
_cell_length_c                    7.544538
_cell_angle_alpha                 103.329509
_cell_angle_beta                  94.979731
_cell_angle_gamma                 93.251911
_cell_volume                      1002.16615023

loop_
_atom_site_label
_atom_site_type_symbol
_atom_type_description
_atom_site_fract_x
_atom_site_fract_y
_atom_site_fract_z
_atom_type_partial_charge
C1    C     C_R   0.497355 0.199876 0.453056 0.539582
C2    C     C_3   0.979711 0.628557 0.622418 -0.133289
C3    C     C_1   0.250600 0.500391 0.503064 0.049769
C4    C     C_1   0.749399 0.499609 0.496936 0.049768
C5    C     C_3   0.034829 0.497604 0.668971 -0.130245
C6    C     C_3   0.965171 0.502396 0.331029 -0.130245
C7    C     C_3   0.083302 0.501692 0.501586 0.047236
C8    C     C_3   0.916698 0.498308 0.498414 0.047236
C9    C     C_1   0.175037 0.501093 0.503161 0.029709
C10   C     C_1   0.824963 0.498906 0.496839 0.029709
C11   C     C_2   0.940385 0.219881 0.594798 0.225799
C12   C     C_R   0.502645 0.800123 0.546944 0.539582
C13   C     C_2   0.059615 0.780119 0.405202 0.225799
C14   C     C_2   0.401867 0.373277 0.936323 0.467272
C15   C     C_2   0.598133 0.626723 0.063677 0.467269
C16   C     C_R   0.340168 0.499618 0.500935 0.551242
C17   C     C_R   0.659832 0.500382 0.499065 0.551242
C18   C     C_2   0.496044 0.031411 0.427374 -0.133874
C19   C     C_2   0.503956 0.968589 0.572626 -0.133874
C20   C     C_3   0.970735 0.369087 0.544371 0.043652
C21   C     C_3   0.029265 0.630913 0.455629 0.043652
C22   C     C_3   0.020289 0.371443 0.377582 -0.133290
Cu1   Cu    Cu3+1 0.509330 0.517380 0.684380 1.031046
Cu2   Cu    Cu3+1 0.490670 0.482620 0.315620 1.031043
H1    H     H_    0.037760 0.265521 0.278033 0.126332
H2    H     H_    0.594799 0.729270 0.174547 0.088057
H3    H     H_    0.962240 0.734479 0.721967 0.126332
H4    H     H_    0.935909 0.505194 0.192716 0.134978
H5    H     H_    0.064091 0.494806 0.807284 0.134978
H6    H     H_    0.488532 0.958829 0.287912 0.130573
H7    H     H_    0.511468 0.041171 0.712088 0.130572
H8    H     H_    0.986058 0.138307 0.624185 0.098473
H9    H     H_    0.013942 0.861693 0.375814 0.098473
H10   H     H_    0.405201 0.270727 0.825457 0.088052
N1    N     N_2   0.476600 0.456420 0.038510 -0.177619
N2    N     N_2   0.523400 0.543580 0.961490 -0.177618
O1    O     O_R   0.506070 0.286130 0.619780 -0.535291
O2    O     O_2   0.135119 0.810799 0.396862 -0.491525
O3    O     O_2   0.332139 0.412857 0.977704 -0.493590
O4    O     O_2   0.667861 0.587149 0.022292 -0.493591
O5    O     O_R   0.493930 0.713870 0.380220 -0.535291
O6    O     O_R   0.490300 0.256770 0.308360 -0.507092
O7    O     O_R   0.509700 0.743230 0.691640 -0.507091
O8    O     O_R   0.386960 0.514660 0.655680 -0.510201
O9    O     O_R   0.613040 0.485340 0.344320 -0.510204
O10   O     O_R   0.371190 0.485310 0.344260 -0.450987
O11   O     O_R   0.628810 0.514690 0.655740 -0.450984
O12   O     O_2   0.864881 0.189201 0.603137 -0.491525

loop_
_geom_bond_atom_site_label_1
_geom_bond_atom_site_label_2
_ccdc_geom_bond_type
C14   H10   S    
Cu1   Cu2   S    
C13   H9    S    
C2    H3    S    
C3    C9    T    
C7    C22   S    
Cu2   O6    S    
C16   O8    A    
N1    N2    D    
C1    O1    A    
C19   H7    S    
C2    C21   S    
C11   O12   D    
C13   C21   S    
C5    C20   S    
C7    C21   S    
Cu2   O5    S    
C13   O2    D    
C8    C20   S    
C18   H6    S    
C4    C17   S    
C12   C19   S    
C20   C22   S    
C11   H8    S    
C18   C19   D    
C12   O7    A    
C5    H5    S    
C15   O4    D    
C2    C8    S    
C11   C20   S    
Cu2   N1    S    
Cu1   O11   S    
Cu2   O9    S    
C4    C10   T    
C2    C5    S    
C7    C9    S    
C15   N2    S    
C1    O6    A    
Cu1   O7    S    
C12   O5    A    
C8    C10   S    
Cu1   N2    S    
C16   O10   A    
C14   N1    S    
C5    C7    S    
C1    C18   S    
C15   H2    S    
C6    C8    S    
C14   O3    D    
Cu1   O1    S    
C6    C21   S    
C6    H4    S    
C3    C16   S    
C17   O11   A    
C17   O9    A    
Cu2   O10   S    
Cu1   O8    S    
C22   H1    S    
C6    C22   S    
