data_mof_unit_14045.cif
_audit_creation_date              2012-12-10T17:02:17-0500
_audit_creation_method            fapswitch 2.2
_symmetry_space_group_name_H-M    P1
_symmetry_Int_Tables_number       1
_space_group_crystal_system       triclinic
_cell_length_a                    10.608804
_cell_length_b                    10.641629
_cell_length_c                    10.062713
_cell_angle_alpha                 93.410493
_cell_angle_beta                  88.133787
_cell_angle_gamma                 90.480018
_cell_volume                      1133.39247333

loop_
_atom_site_label
_atom_site_type_symbol
_atom_type_description
_atom_site_fract_x
_atom_site_fract_y
_atom_site_fract_z
_atom_type_partial_charge
C1    C     C_R   0.503803 0.262591 0.495338 1.022672
C2    C     C_R   0.057504 0.487046 0.627042 0.003850
C3    C     C_R   0.127592 0.450432 0.508406 -0.058611
C4    C     C_R   0.065141 0.417259 0.389398 -0.173985
C5    C     C_R   0.937987 0.443144 0.384947 0.592655
C6    C     C_R   0.876215 0.506821 0.494320 -0.147718
C7    C     C_2   0.398363 0.931712 0.433974 -0.340154
C8    C     C_2   0.458460 0.867405 0.523154 0.380580
C9    C     C_2   0.401664 0.067611 0.454293 0.613254
C10   C     C_2   0.510521 0.129433 0.478378 -0.267687
C11   C     C_2   0.477091 0.595892 0.936386 -0.083713
C12   C     C_R   0.261228 0.480847 0.501600 0.966987
C13   C     C_2   0.521060 0.597772 0.076747 0.179736
C14   C     C_R   0.487762 0.736684 0.504962 0.904813
C15   C     C_R   0.740766 0.506805 0.498254 1.011081
C16   C     C_R   0.100691 0.477326 0.759205 -0.175538
C17   C     C_R   0.049739 0.559465 0.863558 -0.318452
C18   C     C_R   0.948680 0.637716 0.836411 0.701151
C19   C     C_R   0.892249 0.626398 0.713185 0.579402
C20   C     C_R   0.940928 0.541871 0.611091 -0.237778
N1    N     N_2   0.501340 0.501330 0.852150 -0.230415
N2    N     N_2   0.501380 0.501360 0.147810 0.156091
O1    O     O_R   0.499980 0.319060 0.613040 -0.632064
O2    O     O_R   0.500020 0.319100 0.386900 -0.568116
O3    O     O_R   0.316750 0.499980 0.613090 -0.680892
O4    O     O_R   0.316790 0.500020 0.386950 -0.550068
O5    O     O_R   0.499980 0.680900 0.613100 -0.583684
O6    O     O_R   0.500020 0.680940 0.386960 -0.631666
O7    O     O_R   0.683210 0.499980 0.613050 -0.610158
O8    O     O_R   0.683250 0.500020 0.386910 -0.524155
Zn1   Zn    Zn3+2 0.499970 0.499970 0.650990 1.013813
Zn2   Zn    Zn3+2 0.500030 0.500030 0.349010 1.175804
C21   C     C_2   0.126662 0.350871 0.270238 0.622590
H1    H     H_    0.084019 0.352527 0.173809 0.095850
O9    O     O_2   0.222167 0.289260 0.278653 -0.472103
C22   C     C_2   0.638385 0.073095 0.456436 0.463889
H2    H     H_    0.650641 0.979432 0.409450 0.084326
O10   O     O_2   0.732419 0.132821 0.489027 -0.505059
C23   C     C_2   0.395601 0.698315 0.896540 0.462591
H3    H     H_    0.348442 0.689527 0.802615 0.121609
O11   O     O_2   0.376086 0.791688 0.970533 -0.567110
C24   C     C_2   0.592397 0.410103 0.883520 0.728909
H4    H     H_    0.572786 0.310924 0.862373 0.085598
O12   O     O_2   0.695429 0.442184 0.925315 -0.562255
C25   C     C_2   0.605305 0.702137 0.121639 0.488937
H5    H     H_    0.601526 0.791836 0.076131 0.106799
O13   O     O_2   0.685463 0.686802 0.203247 -0.474118
F1    F     F_    0.419297 0.415856 0.098243 -0.602178
C26   C     C_2   0.181031 0.368956 0.790990 0.558949
H6    H     H_    0.224302 0.365144 0.886486 0.048746
O14   O     O_2   0.196623 0.279177 0.710936 -0.467482
C27   C     C_2   0.102350 0.566830 0.999186 0.532538
H7    H     H_    0.196747 0.534387 0.015240 0.036281
O15   O     O_2   0.041085 0.610868 0.095493 -0.427458
F2    F     F_    0.901262 0.722804 0.930555 -0.551560
F3    F     F_    0.795143 0.704256 0.691352 -0.598486
F4    F     F_    0.874126 0.402875 0.275008 -0.611855
C28   C     C_2   0.325538 0.875853 0.321189 0.485076
H8    H     H_    0.307935 0.932067 0.237273 0.149008
O16   O     O_2   0.278657 0.770849 0.323726 -0.532234
F5    F     F_    0.494030 0.926556 0.640438 -0.607352
F6    F     F_    0.289899 0.129846 0.458500 -0.579482

loop_
_geom_bond_atom_site_label_1
_geom_bond_atom_site_label_2
_ccdc_geom_bond_type
C19   F3    S    
O3    Zn1   S    
N2    F1    S    
O2    Zn2   S    
O4    Zn2   S    
C14   O5    A    
C6    C20   A    
C9    C10   D    
C8    F5    S    
C7    C28   S    
C19   C20   A    
C5    F4    S    
C12   O3    A    
C1    O1    A    
C22   O10   D    
C17   C18   A    
C28   H8    S    
C7    C8    D    
O7    Zn1   S    
C25   H5    S    
C16   C26   S    
O8    Zn2   S    
N1    Zn1   S    
N1    C24   S    
C24   O12   D    
C18   F2    S    
C15   O8    A    
C4    C5    A    
C17   C27   S    
C22   H2    S    
C21   O9    D    
C27   O15   D    
C13   N2    D    
C15   O7    A    
C28   O16   D    
C2    C3    A    
C25   O13   D    
C5    C6    A    
C11   C23   S    
C11   C13   S    
C2    C16   A    
C24   H4    S    
C2    C20   A    
C9    F6    S    
O6    Zn2   S    
N2    Zn2   S    
C21   H1    S    
C27   H7    S    
C13   C25   S    
C1    O2    A    
C23   O11   D    
C26   H6    S    
C26   O14   D    
C23   H3    S    
C7    C9    S    
C4    C21   S    
C18   C19   A    
C8    C14   S    
C3    C12   S    
C14   O6    A    
C6    C15   S    
O5    Zn1   S    
C11   N1    D    
C1    C10   S    
C3    C4    A    
C12   O4    A    
C16   C17   A    
C10   C22   S    
O1    Zn1   S    
